CHEMBL3231_lig412
                    3D
 Schrodinger Suite 2021-1.
 46 49  0  0  1  0            999 V2000
   50.8640  100.9746   27.9262 C   0  0  0  0  0  0
   50.4502  102.3094   28.0180 C   0  0  0  0  0  0
   50.8320  103.1291   29.0916 C   0  0  0  0  0  0
   51.6761  100.4408   28.9330 C   0  0  0  0  0  0
   52.0653  101.2477   30.0057 C   0  0  0  0  0  0
   51.6422  102.5800   30.0994 C   0  0  0  0  0  0
   51.9993  103.3867   31.2033 N   0  0  0  0  0  0
   52.7889  102.9301   32.1067 C   0  0  0  0  0  0
   53.2482  101.6390   32.0395 N   0  0  0  0  0  0
   52.9616  100.7124   31.0949 C   0  0  0  0  0  0
   53.4002   99.5697   31.1694 O   0  0  0  0  0  0
   50.4385  100.1487   26.7559 C   0  0  0  0  0  0
   53.2176  103.8170   33.2920 C   0  0  2  0  0  0
   54.6111  104.2463   33.2110 N   0  0  0  0  0  0
   52.9820  103.1497   34.6741 C   0  0  0  0  0  0
   51.5174  102.8710   35.0030 C   0  0  0  0  0  0
   50.9973  101.5753   34.8874 C   0  0  0  0  0  0
   49.6642  101.3210   35.2113 C   0  0  0  0  0  0
   48.8425  102.3625   35.6450 C   0  0  0  0  0  0
   49.3525  103.6551   35.7591 C   0  0  0  0  0  0
   50.6845  103.9099   35.4373 C   0  0  0  0  0  0
   50.5178   98.7530   26.5693 C   0  0  0  0  0  0
   50.0431   98.3476   25.4108 N   0  0  0  0  0  0
   49.6456   99.4702   24.8108 N   0  0  0  0  0  0
   49.8603  100.5839   25.5713 C   0  0  0  0  0  0
   48.5545  104.6620   36.1843 F   0  0  0  0  0  0
   50.4488  104.4538   29.2104 O   0  0  0  0  0  0
   49.8059  105.1119   28.1335 C   0  0  0  0  0  0
   49.8389  102.7147   27.2279 H   0  0  0  0  0  0
   52.0103   99.4116   28.8750 H   0  0  0  0  0  0
   53.8710  101.2995   32.7547 H   0  0  0  0  0  0
   52.6290  104.7360   33.2667 H   0  0  0  0  0  0
   55.2315  103.4554   33.1028 H   0  0  0  0  0  0
   54.7595  104.8343   32.3929 H   0  0  0  0  0  0
   53.3699  103.8011   35.4612 H   0  0  0  0  0  0
   53.5672  102.2321   34.7729 H   0  0  0  0  0  0
   51.6278  100.7632   34.5537 H   0  0  0  0  0  0
   49.2682  100.3180   35.1271 H   0  0  0  0  0  0
   47.8106  102.1682   35.9006 H   0  0  0  0  0  0
   51.0729  104.9136   35.5292 H   0  0  0  0  0  0
   50.9167   98.0466   27.2835 H   0  0  0  0  0  0
   49.2387   99.4833   23.8795 H   0  0  0  0  0  0
   49.5844  101.5622   25.2123 H   0  0  0  0  0  0
   49.7230  106.1745   28.3535 H   0  0  0  0  0  0
   50.3561  105.0122   27.1965 H   0  0  0  0  0  0
   48.7984  104.7301   28.0117 H   0  0  0  0  0  0
  1  2  2  0  0  0
  1  4  1  0  0  0
  1 12  1  0  0  0
  2  3  1  0  0  0
  2 29  1  0  0  0
  3  6  2  0  0  0
  3 27  1  0  0  0
  4  5  2  0  0  0
  4 30  1  0  0  0
  5  6  1  0  0  0
  5 10  1  0  0  0
  6  7  1  0  0  0
  7  8  2  0  0  0
  8  9  1  0  0  0
  8 13  1  0  0  0
  9 10  1  0  0  0
  9 31  1  0  0  0
 10 11  2  0  0  0
 12 25  2  0  0  0
 12 22  1  0  0  0
 13 14  1  0  0  0
 13 15  1  0  0  0
 13 32  1  0  0  0
 14 33  1  0  0  0
 14 34  1  0  0  0
 15 16  1  0  0  0
 15 35  1  0  0  0
 15 36  1  0  0  0
 16 17  2  0  0  0
 16 21  1  0  0  0
 17 18  1  0  0  0
 17 37  1  0  0  0
 18 19  2  0  0  0
 18 38  1  0  0  0
 19 20  1  0  0  0
 19 39  1  0  0  0
 20 21  2  0  0  0
 20 26  1  0  0  0
 21 40  1  0  0  0
 22 41  1  0  0  0
 22 23  2  0  0  0
 23 24  1  0  0  0
 24 42  1  0  0  0
 24 25  1  0  0  0
 25 43  1  0  0  0
 27 28  1  0  0  0
 28 44  1  0  0  0
 28 45  1  0  0  0
 28 46  1  0  0  0
M  END
> <s_m_entry_id>
27841

> <s_m_entry_name>
dock_pv.2

> <s_m_Source_Path>
/home/csk/Desktop/cluster/DUD-E-result/rock1

> <s_m_Source_File>
dock_pv.maegz

> <i_m_Source_File_Index>
2

> <chembl_id>
CHEMBL2333908

> <chembl_pref_name>
None

> <i_lp_mmshare_version>
53161

> <r_lp_tautomer_probability>
0.469196969327016

> <s_lp_Force_Field>
OPLS_2005

> <r_lp_Energy>
24.880248

> <b_lp_Chiralities_Consistent>
1

> <s_lp_Variant>
CHEMBL3231_lig412-1

> <s_i_glide_gridfile>
glide-grid_2etr

> <i_i_glide_lignum>
589

> <i_i_glide_rotatable_bonds>
5

> <r_i_docking_score>
-9.76691281502777

> <r_i_glide_ligand_efficiency>
-0.34881831482242

> <r_i_glide_ligand_efficiency_sa>
-1.0592178468015

> <r_i_glide_ligand_efficiency_ln>
-2.25449024672955

> <r_i_glide_gscore>
-9.76691281502777

> <r_i_glide_lipo>
-3.14171540158637

> <r_i_glide_hbond>
-0.713259875766786

> <r_i_glide_metal>
0

> <r_i_glide_rewards>
-2.40130884472158

> <r_i_glide_evdw>
-47.2217979431152

> <r_i_glide_ecoul>
-9.83658981323242

> <r_i_glide_erotb>
0.377184762767483

> <r_i_glide_esite>
-0.0512350865798882

> <r_i_glide_emodel>
-88.6559828078069

> <r_i_glide_energy>
-57.0583877563477

> <r_i_glide_einternal>
4.88699102401733

> <i_i_glide_confnum>
17

> <i_i_glide_posenum>
237

> <r_i_glide_eff_state_penalty>
0

> <s_user_duplicate_titles>
CHEMBL3231_lig412,CHEMBL3231_lig412

> <i_f3d_flags>
0

> <s_m_subgroup_title>
dock_pv

> <s_m_subgroupid>
dock_pv

> <b_m_subgroup_collapsed>
1

$$$$
CHEMBL3231_lig509
                    3D
 Schrodinger Suite 2021-1.
 39 41  0  0  1  0            999 V2000
   51.6107  100.4034   29.5641 C   0  0  0  0  0  0
   51.6430   99.0097   29.5657 C   0  0  0  0  0  0
   51.2430   98.2838   28.4488 C   0  0  0  0  0  0
   51.2109  101.0950   28.4111 C   0  0  0  0  0  0
   50.8258  100.3813   27.2474 C   0  0  0  0  0  0
   50.8395   98.9543   27.2753 C   0  0  0  0  0  0
   50.4385   98.2772   26.1021 C   0  0  0  0  0  0
   50.0430   98.8923   24.9652 N   0  0  0  0  0  0
   50.0430  100.2464   24.9558 C   0  0  0  0  0  0
   50.4213  101.0289   26.0498 C   0  0  0  0  0  0
   52.0186  101.0322   30.7489 N   0  0  0  0  0  0
   51.6430  102.2345   31.2362 C   0  0  0  0  0  0
   52.3123  102.6502   32.5666 C   0  0  2  0  0  0
   50.8174  102.9869   30.7099 O   0  0  0  0  0  0
   51.3012  102.6000   33.7292 C   0  0  0  0  0  0
   50.8219  103.7633   34.3492 C   0  0  0  0  0  0
   49.8909  103.6782   35.3828 C   0  0  0  0  0  0
   49.4376  102.4314   35.8069 C   0  0  0  0  0  0
   49.9140  101.2673   35.2110 C   0  0  0  0  0  0
   50.8430  101.3526   34.1769 C   0  0  0  0  0  0
   53.0819  103.9886   32.4091 C   0  0  0  0  0  0
   54.0430  103.9030   31.3231 N   0  0  0  0  0  0
   51.9565   98.4710   30.4492 H   0  0  0  0  0  0
   51.2430   97.2034   28.4719 H   0  0  0  0  0  0
   51.2071  102.1745   28.3815 H   0  0  0  0  0  0
   50.4373   97.1968   26.0857 H   0  0  0  0  0  0
   49.7188  100.7030   24.0313 H   0  0  0  0  0  0
   50.3973  102.1079   26.0002 H   0  0  0  0  0  0
   52.6015  100.4666   31.3461 H   0  0  0  0  0  0
   53.0716  101.9074   32.8205 H   0  0  0  0  0  0
   51.1618  104.7405   34.0407 H   0  0  0  0  0  0
   49.5232  104.5767   35.8561 H   0  0  0  0  0  0
   48.7141  102.3646   36.6073 H   0  0  0  0  0  0
   49.5621  100.3031   35.5477 H   0  0  0  0  0  0
   51.2013  100.4430   33.7169 H   0  0  0  0  0  0
   52.3980  104.8082   32.1888 H   0  0  0  0  0  0
   53.6064  104.2446   33.3310 H   0  0  0  0  0  0
   54.5738  104.7713   31.2117 H   0  0  0  0  0  0
   54.7423  103.1966   31.5068 H   0  0  0  0  0  0
  1  2  2  0  0  0
  1  4  1  0  0  0
  1 11  1  0  0  0
  2  3  1  0  0  0
  2 23  1  0  0  0
  3  6  2  0  0  0
  3 24  1  0  0  0
  4  5  2  0  0  0
  4 25  1  0  0  0
  5  6  1  0  0  0
  5 10  1  0  0  0
  6  7  1  0  0  0
  7  8  2  0  0  0
  7 26  1  0  0  0
  8  9  1  0  0  0
  9 10  2  0  0  0
  9 27  1  0  0  0
 10 28  1  0  0  0
 11 12  1  0  0  0
 11 29  1  0  0  0
 12 13  1  0  0  0
 12 14  2  0  0  0
 13 15  1  0  0  0
 13 21  1  0  0  0
 13 30  1  0  0  0
 15 16  2  0  0  0
 15 20  1  0  0  0
 16 17  1  0  0  0
 16 31  1  0  0  0
 17 18  2  0  0  0
 17 32  1  0  0  0
 18 19  1  0  0  0
 18 33  1  0  0  0
 19 20  2  0  0  0
 19 34  1  0  0  0
 20 35  1  0  0  0
 21 22  1  0  0  0
 21 36  1  0  0  0
 21 37  1  0  0  0
 22 38  1  0  0  0
 22 39  1  0  0  0
M  END
> <s_m_entry_id>
27842

> <s_m_entry_name>
dock_pv.3

> <s_m_Source_Path>
/home/csk/Desktop/cluster/DUD-E-result/rock1

> <s_m_Source_File>
dock_pv.maegz

> <i_m_Source_File_Index>
3

> <chembl_id>
CHEMBL3770836

> <chembl_pref_name>
None

> <i_lp_mmshare_version>
53161

> <r_lp_tautomer_probability>
1

> <s_lp_Force_Field>
OPLS_2005

> <r_lp_Energy>
16.859436

> <b_lp_Chiralities_Consistent>
1

> <s_lp_Variant>
CHEMBL3231_lig509-1

> <s_i_glide_gridfile>
glide-grid_2etr

> <i_i_glide_lignum>
721

> <i_i_glide_rotatable_bonds>
5

> <r_i_docking_score>
-9.43579567743777

> <r_i_glide_ligand_efficiency>
-0.428899803519899

> <r_i_glide_ligand_efficiency_sa>
-1.20179411713486

> <r_i_glide_ligand_efficiency_ln>
-2.30645264257573

> <r_i_glide_gscore>
-9.43579567743777

> <r_i_glide_lipo>
-3.27694942867666

> <r_i_glide_hbond>
-0.504946374656556

> <r_i_glide_metal>
0

> <r_i_glide_rewards>
-2.77340523443758

> <r_i_glide_evdw>
-37.7997932434082

> <r_i_glide_ecoul>
-9.2527322769165

> <r_i_glide_erotb>
0.429757349523464

> <r_i_glide_esite>
-0.0323524854825601

> <r_i_glide_emodel>
-73.3680481006243

> <r_i_glide_energy>
-47.0525255203247

> <r_i_glide_einternal>
3.59808850288391

> <i_i_glide_confnum>
1

> <i_i_glide_posenum>
112

> <r_i_glide_eff_state_penalty>
0

> <s_user_duplicate_titles>
CHEMBL3231_lig509

> <i_f3d_flags>
0

> <s_m_subgroup_title>
dock_pv

> <s_m_subgroupid>
dock_pv

> <b_m_subgroup_collapsed>
1

$$$$
CHEMBL3231_lig775
                    3D
 Schrodinger Suite 2021-1.
 48 50  0  0  1  0            999 V2000
   50.2391  104.8327   28.4098 C   0  0  0  0  0  0
   50.8429  104.0928   29.4672 O   0  0  0  0  0  0
   51.0988  102.7409   29.3147 C   0  0  0  0  0  0
   50.7390  102.0372   28.1555 C   0  0  0  0  0  0
   51.0077  100.6757   28.0063 C   0  0  0  0  0  0
   51.6794  100.0087   29.0317 C   0  0  0  0  0  0
   52.0426  100.6858   30.1947 C   0  0  0  0  0  0
   51.7410  102.0480   30.3606 C   0  0  0  0  0  0
   52.0500  102.7298   31.6735 C   0  0  0  0  0  0
   51.2432  103.5023   32.1905 O   0  0  0  0  0  0
   53.2238  102.4144   32.2441 N   0  0  0  0  0  0
   53.6665  102.8208   33.5920 C   0  0  2  0  0  0
   55.2089  102.9657   33.6079 C   0  0  0  0  0  0
   55.6350  104.3027   33.4187 O   0  0  0  0  0  0
   53.1871  101.8176   34.6958 C   0  0  2  0  0  0
   53.5633  100.4827   34.3732 O   0  0  0  0  0  0
   51.7050  101.9691   35.0726 C   0  0  0  0  0  0
   51.2765  103.1514   35.6905 C   0  0  0  0  0  0
   49.9434  103.3118   36.0585 C   0  0  0  0  0  0
   49.0347  102.2856   35.8170 C   0  0  0  0  0  0
   49.4482  101.1031   35.2111 C   0  0  0  0  0  0
   50.7780  100.9461   34.8326 C   0  0  0  0  0  0
   50.5474   99.9668   26.7748 C   0  0  0  0  0  0
   49.9687  100.5227   25.6428 C   0  0  0  0  0  0
   49.6784   99.4840   24.8098 N   0  0  0  0  0  0
   50.0430   98.3021   25.3029 N   0  0  0  0  0  0
   50.5650   98.5910   26.4742 C   0  0  0  0  0  0
   50.1442  105.8770   28.7071 H   0  0  0  0  0  0
   50.8420  104.8020   27.5015 H   0  0  0  0  0  0
   49.2375  104.4637   28.1912 H   0  0  0  0  0  0
   50.2266  102.5471   27.3568 H   0  0  0  0  0  0
   51.9070   98.9573   28.9442 H   0  0  0  0  0  0
   52.5327  100.1276   30.9812 H   0  0  0  0  0  0
   53.8812  101.8789   31.6959 H   0  0  0  0  0  0
   53.2530  103.8014   33.8424 H   0  0  0  0  0  0
   55.6306  102.6441   34.5614 H   0  0  0  0  0  0
   55.6431  102.3067   32.8578 H   0  0  0  0  0  0
   55.5231  104.5631   32.4939 H   0  0  0  0  0  0
   53.7181  102.0403   35.6235 H   0  0  0  0  0  0
   54.4890  100.4696   34.1169 H   0  0  0  0  0  0
   51.9780  103.9498   35.8875 H   0  0  0  0  0  0
   49.6171  104.2252   36.5326 H   0  0  0  0  0  0
   48.0014  102.4044   36.1067 H   0  0  0  0  0  0
   48.7411  100.3071   35.0318 H   0  0  0  0  0  0
   51.0848  100.0246   34.3596 H   0  0  0  0  0  0
   49.7200  101.5361   25.3677 H   0  0  0  0  0  0
   49.2432   99.5798   23.8966 H   0  0  0  0  0  0
   50.9478   97.8100   27.1145 H   0  0  0  0  0  0
  1  2  1  0  0  0
  1 28  1  0  0  0
  1 29  1  0  0  0
  1 30  1  0  0  0
  2  3  1  0  0  0
  3  4  2  0  0  0
  3  8  1  0  0  0
  4  5  1  0  0  0
  4 31  1  0  0  0
  5  6  2  0  0  0
  5 23  1  0  0  0
  6  7  1  0  0  0
  6 32  1  0  0  0
  7  8  2  0  0  0
  7 33  1  0  0  0
  8  9  1  0  0  0
  9 10  2  0  0  0
  9 11  1  0  0  0
 11 12  1  0  0  0
 11 34  1  0  0  0
 12 13  1  0  0  0
 12 15  1  0  0  0
 12 35  1  0  0  0
 13 14  1  0  0  0
 13 36  1  0  0  0
 13 37  1  0  0  0
 14 38  1  0  0  0
 15 16  1  0  0  0
 15 17  1  0  0  0
 15 39  1  0  0  0
 16 40  1  0  0  0
 17 18  2  0  0  0
 17 22  1  0  0  0
 18 19  1  0  0  0
 18 41  1  0  0  0
 19 20  2  0  0  0
 19 42  1  0  0  0
 20 21  1  0  0  0
 20 43  1  0  0  0
 21 22  2  0  0  0
 21 44  1  0  0  0
 22 45  1  0  0  0
 23 24  2  0  0  0
 23 27  1  0  0  0
 24 25  1  0  0  0
 24 46  1  0  0  0
 25 26  1  0  0  0
 25 47  1  0  0  0
 26 27  2  0  0  0
 27 48  1  0  0  0
M  END
> <s_m_entry_id>
27843

> <s_m_entry_name>
dock_pv.4

> <s_m_Source_Path>
/home/csk/Desktop/cluster/DUD-E-result/rock1

> <s_m_Source_File>
dock_pv.maegz

> <i_m_Source_File_Index>
4

> <chembl_id>
CHEMBL4106810

> <chembl_pref_name>
None

> <i_lp_mmshare_version>
53161

> <r_lp_tautomer_probability>
0.5

> <s_lp_Force_Field>
OPLS_2005

> <r_lp_Energy>
31.409604

> <b_lp_Chiralities_Consistent>
1

> <s_lp_Variant>
CHEMBL3231_lig775-1

> <s_i_glide_gridfile>
glide-grid_2etr

> <i_i_glide_lignum>
1097

> <i_i_glide_rotatable_bonds>
10

> <r_i_docking_score>
-9.35806942875767

> <r_i_glide_ligand_efficiency>
-0.346595164028062

> <r_i_glide_ligand_efficiency_sa>
-1.03978549094186

> <r_i_glide_ligand_efficiency_ln>
-2.17840428318263

> <r_i_glide_gscore>
-9.35806942875767

> <r_i_glide_lipo>
-3.08002361571203

> <r_i_glide_hbond>
-0.940868254545433

> <r_i_glide_metal>
0

> <r_i_glide_rewards>
-1.76434042031302

> <r_i_glide_evdw>
-44.1265754699707

> <r_i_glide_ecoul>
-12.6884059906006

> <r_i_glide_erotb>
0.599226220005183

> <r_i_glide_esite>
-0.0624736861037519

> <r_i_glide_emodel>
-86.4221813877749

> <r_i_glide_energy>
-56.8149814605713

> <r_i_glide_einternal>
8.63166522979736

> <i_i_glide_confnum>
44

> <i_i_glide_posenum>
394

> <r_i_glide_eff_state_penalty>
0

> <s_user_duplicate_titles>
CHEMBL3231_lig775

> <i_f3d_flags>
0

> <s_m_subgroup_title>
dock_pv

> <s_m_subgroupid>
dock_pv

> <b_m_subgroup_collapsed>
1

$$$$
CHEMBL3231_lig777
                    3D
 Schrodinger Suite 2021-1.
 51 53  0  0  1  0            999 V2000
   50.2479  104.7280   28.4629 C   0  0  0  0  0  0
   50.8422  103.9663   29.5111 O   0  0  0  0  0  0
   51.0951  102.6146   29.3538 C   0  0  0  0  0  0
   50.7463  101.9428   28.1732 C   0  0  0  0  0  0
   50.9932  100.5820   27.9964 C   0  0  0  0  0  0
   51.6280   99.8782   29.0176 C   0  0  0  0  0  0
   51.9757  100.5223   30.2043 C   0  0  0  0  0  0
   51.7061  101.8913   30.4052 C   0  0  0  0  0  0
   52.0409  102.5553   31.7349 C   0  0  0  0  0  0
   51.6428  103.6870   32.0113 O   0  0  0  0  0  0
   52.7726  101.8397   32.6083 N   0  0  0  0  0  0
   53.2373  102.2943   33.9307 C   0  0  1  0  0  0
   52.5943  101.4144   35.0419 C   0  0  0  0  0  0
   51.2587  101.9701   35.5328 C   0  0  0  0  0  0
   50.0522  101.3908   35.1343 C   0  0  0  0  0  0
   48.8443  101.9346   35.5690 C   0  0  0  0  0  0
   48.8447  103.0480   36.4066 C   0  0  0  0  0  0
   50.0432  103.6279   36.8113 C   0  0  0  0  0  0
   51.2509  103.0879   36.3752 C   0  0  0  0  0  0
   54.7955  102.3599   33.9557 C   0  0  2  0  0  0
   55.2971  102.6412   35.2559 O   0  0  0  0  0  0
   55.3660  103.4138   32.9695 C   0  0  0  0  0  0
   54.8429  104.7062   33.2114 O   0  0  0  0  0  0
   50.5412   99.9172   26.7394 C   0  0  0  0  0  0
   50.5542   98.5521   26.3966 C   0  0  0  0  0  0
   50.0426   98.3028   25.2114 N   0  0  0  0  0  0
   49.6889   99.5011   24.7513 N   0  0  0  0  0  0
   49.9777  100.5116   25.6194 C   0  0  0  0  0  0
   50.1643  105.7673   28.7785 H   0  0  0  0  0  0
   50.8437  104.7082   27.5509 H   0  0  0  0  0  0
   49.2431  104.3717   28.2419 H   0  0  0  0  0  0
   50.2596  102.4783   27.3764 H   0  0  0  0  0  0
   51.8356   98.8230   28.9101 H   0  0  0  0  0  0
   52.4407   99.9191   30.9703 H   0  0  0  0  0  0
   53.0945  100.9295   32.3205 H   0  0  0  0  0  0
   52.9035  103.3180   34.1264 H   0  0  0  0  0  0
   53.2369  101.3602   35.9196 H   0  0  0  0  0  0
   52.4823  100.3771   34.7213 H   0  0  0  0  0  0
   50.0502  100.5322   34.4805 H   0  0  0  0  0  0
   47.9074  101.5031   35.2552 H   0  0  0  0  0  0
   47.9059  103.4627   36.7419 H   0  0  0  0  0  0
   50.0405  104.4927   37.4583 H   0  0  0  0  0  0
   52.1821  103.5420   36.6816 H   0  0  0  0  0  0
   55.1909  101.3791   33.6859 H   0  0  0  0  0  0
   56.2476  102.4964   35.2523 H   0  0  0  0  0  0
   56.4429  103.5067   33.0571 H   0  0  0  0  0  0
   55.1459  103.1410   31.9363 H   0  0  0  0  0  0
   55.0799  105.2736   32.4649 H   0  0  0  0  0  0
   50.9223   97.7480   27.0173 H   0  0  0  0  0  0
   49.2513   99.6256   23.8425 H   0  0  0  0  0  0
   49.7350  101.5339   25.3730 H   0  0  0  0  0  0
  1  2  1  0  0  0
  1 29  1  0  0  0
  1 30  1  0  0  0
  1 31  1  0  0  0
  2  3  1  0  0  0
  3  4  2  0  0  0
  3  8  1  0  0  0
  4  5  1  0  0  0
  4 32  1  0  0  0
  5  6  2  0  0  0
  5 24  1  0  0  0
  6  7  1  0  0  0
  6 33  1  0  0  0
  7  8  2  0  0  0
  7 34  1  0  0  0
  8  9  1  0  0  0
  9 10  2  0  0  0
  9 11  1  0  0  0
 11 12  1  0  0  0
 11 35  1  0  0  0
 12 13  1  0  0  0
 12 20  1  0  0  0
 12 36  1  0  0  0
 13 14  1  0  0  0
 13 37  1  0  0  0
 13 38  1  0  0  0
 14 15  2  0  0  0
 14 19  1  0  0  0
 15 16  1  0  0  0
 15 39  1  0  0  0
 16 17  2  0  0  0
 16 40  1  0  0  0
 17 18  1  0  0  0
 17 41  1  0  0  0
 18 19  2  0  0  0
 18 42  1  0  0  0
 19 43  1  0  0  0
 20 21  1  0  0  0
 20 22  1  0  0  0
 20 44  1  0  0  0
 21 45  1  0  0  0
 22 23  1  0  0  0
 22 46  1  0  0  0
 22 47  1  0  0  0
 23 48  1  0  0  0
 24 25  1  0  0  0
 24 28  2  0  0  0
 25 26  2  0  0  0
 25 49  1  0  0  0
 26 27  1  0  0  0
 27 28  1  0  0  0
 27 50  1  0  0  0
 28 51  1  0  0  0
M  END
> <s_m_entry_id>
27845

> <s_m_entry_name>
dock_pv.6

> <s_m_Source_Path>
/home/csk/Desktop/cluster/DUD-E-result/rock1

> <s_m_Source_File>
dock_pv.maegz

> <i_m_Source_File_Index>
6

> <chembl_id>
CHEMBL3896967

> <chembl_pref_name>
None

> <i_lp_mmshare_version>
53161

> <r_lp_tautomer_probability>
0.5

> <s_lp_Force_Field>
OPLS_2005

> <r_lp_Energy>
30.539777

> <b_lp_Chiralities_Consistent>
1

> <s_lp_Variant>
CHEMBL3231_lig777-1

> <s_i_glide_gridfile>
glide-grid_2etr

> <i_i_glide_lignum>
1099

> <i_i_glide_rotatable_bonds>
11

> <r_i_docking_score>
-9.29402166485967

> <r_i_glide_ligand_efficiency>
-0.33192934517356

> <r_i_glide_ligand_efficiency_sa>
-1.00793298787639

> <r_i_glide_ligand_efficiency_ln>
-2.14533308458326

> <r_i_glide_gscore>
-9.29402166485967

> <r_i_glide_lipo>
-3.24611801611735

> <r_i_glide_hbond>
-0.689787640240079

> <r_i_glide_metal>
0

> <r_i_glide_rewards>
-1.77381274468717

> <r_i_glide_evdw>
-45.6399116516113

> <r_i_glide_ecoul>
-12.717456817627

> <r_i_glide_erotb>
0.653769008978677

> <r_i_glide_esite>
-0.0484581675691391

> <r_i_glide_emodel>
-90.7920907298931

> <r_i_glide_energy>
-58.3573684692383

> <r_i_glide_einternal>
7.73666429519653

> <i_i_glide_confnum>
45

> <i_i_glide_posenum>
355

> <r_i_glide_eff_state_penalty>
0

> <s_user_duplicate_titles>
CHEMBL3231_lig777

> <i_f3d_flags>
0

> <s_m_subgroup_title>
dock_pv

> <s_m_subgroupid>
dock_pv

> <b_m_subgroup_collapsed>
1

$$$$
CHEMBL3231_lig765
                    3D
 Schrodinger Suite 2021-1.
 47 49  0  0  1  0            999 V2000
   50.2403  104.8065   28.4110 C   0  0  0  0  0  0
   50.8428  104.0648   29.4676 O   0  0  0  0  0  0
   51.1047  102.7142   29.3141 C   0  0  0  0  0  0
   50.7549  102.0112   28.1521 C   0  0  0  0  0  0
   51.0285  100.6500   28.0070 C   0  0  0  0  0  0
   51.6915   99.9838   29.0378 C   0  0  0  0  0  0
   52.0448  100.6610   30.2040 C   0  0  0  0  0  0
   51.7415  102.0228   30.3644 C   0  0  0  0  0  0
   52.0439  102.7123   31.6775 C   0  0  0  0  0  0
   51.2452  103.5029   32.1737 O   0  0  0  0  0  0
   53.2073  102.3862   32.2643 N   0  0  0  0  0  0
   53.6605  102.8498   33.5860 C   0  0  2  0  0  0
   55.2057  102.9634   33.6011 C   0  0  0  0  0  0
   55.6419  104.3028   33.4596 O   0  0  0  0  0  0
   53.1674  101.8910   34.7061 C   0  0  0  0  0  0
   51.6873  102.0155   35.0569 C   0  0  0  0  0  0
   50.8282  100.9315   34.8627 C   0  0  0  0  0  0
   49.4854  101.0402   35.2112 C   0  0  0  0  0  0
   48.9987  102.2322   35.7404 C   0  0  0  0  0  0
   49.8493  103.3173   35.9370 C   0  0  0  0  0  0
   51.1956  103.2076   35.5975 C   0  0  0  0  0  0
   50.5727   99.9387   26.7754 C   0  0  0  0  0  0
   50.5677   98.5594   26.4959 C   0  0  0  0  0  0
   50.0431   98.2620   25.3296 N   0  0  0  0  0  0
   49.7081   99.4414   24.8108 N   0  0  0  0  0  0
   50.0200  100.4889   25.6274 C   0  0  0  0  0  0
   50.1387  105.8500   28.7102 H   0  0  0  0  0  0
   50.8432  104.7804   27.5042 H   0  0  0  0  0  0
   49.2425  104.4321   28.1872 H   0  0  0  0  0  0
   50.2452  102.5191   27.3504 H   0  0  0  0  0  0
   51.9217   98.9327   28.9557 H   0  0  0  0  0  0
   52.5300  100.1049   30.9948 H   0  0  0  0  0  0
   53.8700  101.8454   31.7283 H   0  0  0  0  0  0
   53.2515  103.8425   33.7937 H   0  0  0  0  0  0
   55.6248  102.6042   34.5404 H   0  0  0  0  0  0
   55.6430  102.3325   32.8269 H   0  0  0  0  0  0
   55.5449  104.5880   32.5400 H   0  0  0  0  0  0
   53.7062  102.0966   35.6329 H   0  0  0  0  0  0
   53.4135  100.8577   34.4524 H   0  0  0  0  0  0
   51.2005  100.0030   34.4519 H   0  0  0  0  0  0
   48.8252  100.1992   35.0675 H   0  0  0  0  0  0
   47.9573  102.3100   36.0095 H   0  0  0  0  0  0
   49.4684  104.2366   36.3549 H   0  0  0  0  0  0
   51.8534  104.0480   35.7541 H   0  0  0  0  0  0
   50.9261   97.7796   27.1507 H   0  0  0  0  0  0
   49.2723   99.5307   23.8968 H   0  0  0  0  0  0
   49.7999  101.5029   25.3349 H   0  0  0  0  0  0
  1  2  1  0  0  0
  1 27  1  0  0  0
  1 28  1  0  0  0
  1 29  1  0  0  0
  2  3  1  0  0  0
  3  4  2  0  0  0
  3  8  1  0  0  0
  4  5  1  0  0  0
  4 30  1  0  0  0
  5  6  2  0  0  0
  5 22  1  0  0  0
  6  7  1  0  0  0
  6 31  1  0  0  0
  7  8  2  0  0  0
  7 32  1  0  0  0
  8  9  1  0  0  0
  9 10  2  0  0  0
  9 11  1  0  0  0
 11 12  1  0  0  0
 11 33  1  0  0  0
 12 13  1  0  0  0
 12 15  1  0  0  0
 12 34  1  0  0  0
 13 14  1  0  0  0
 13 35  1  0  0  0
 13 36  1  0  0  0
 14 37  1  0  0  0
 15 16  1  0  0  0
 15 38  1  0  0  0
 15 39  1  0  0  0
 16 17  2  0  0  0
 16 21  1  0  0  0
 17 18  1  0  0  0
 17 40  1  0  0  0
 18 19  2  0  0  0
 18 41  1  0  0  0
 19 20  1  0  0  0
 19 42  1  0  0  0
 20 21  2  0  0  0
 20 43  1  0  0  0
 21 44  1  0  0  0
 22 23  1  0  0  0
 22 26  2  0  0  0
 23 24  2  0  0  0
 23 45  1  0  0  0
 24 25  1  0  0  0
 25 26  1  0  0  0
 25 46  1  0  0  0
 26 47  1  0  0  0
M  END
> <s_m_entry_id>
27846

> <s_m_entry_name>
dock_pv.7

> <s_m_Source_Path>
/home/csk/Desktop/cluster/DUD-E-result/rock1

> <s_m_Source_File>
dock_pv.maegz

> <i_m_Source_File_Index>
7

> <chembl_id>
CHEMBL3959761

> <chembl_pref_name>
None

> <i_lp_mmshare_version>
53161

> <r_lp_tautomer_probability>
0.5

> <s_lp_Force_Field>
OPLS_2005

> <r_lp_Energy>
26.013532

> <b_lp_Chiralities_Consistent>
1

> <s_lp_Variant>
CHEMBL3231_lig765-1

> <s_i_glide_gridfile>
glide-grid_2etr

> <i_i_glide_lignum>
1084

> <i_i_glide_rotatable_bonds>
9

> <r_i_docking_score>
-9.29327777123258

> <r_i_glide_ligand_efficiency>
-0.357433760432022

> <r_i_glide_ligand_efficiency_sa>
-1.05889610884593

> <r_i_glide_ligand_efficiency_ln>
-2.18249579084242

> <r_i_glide_gscore>
-9.29327777123258

> <r_i_glide_lipo>
-3.0806015617804

> <r_i_glide_hbond>
-0.942375288001084

> <r_i_glide_metal>
0

> <r_i_glide_rewards>
-1.83901966049539

> <r_i_glide_evdw>
-43.805004119873

> <r_i_glide_ecoul>
-12.1895942687988

> <r_i_glide_erotb>
0.648715347840463

> <r_i_glide_esite>
-0.0613072624826867

> <r_i_glide_emodel>
-84.0837028923888

> <r_i_glide_energy>
-55.9945983886719

> <r_i_glide_einternal>
8.24615669250488

> <i_i_glide_confnum>
41

> <i_i_glide_posenum>
23

> <r_i_glide_eff_state_penalty>
0

> <s_user_duplicate_titles>
CHEMBL3231_lig765

> <i_f3d_flags>
0

> <s_m_subgroup_title>
dock_pv

> <s_m_subgroupid>
dock_pv

> <b_m_subgroup_collapsed>
1

$$$$
CHEMBL3231_lig1443
                    3D
 Schrodinger Suite 2021-1.
 40 43  0  0  1  0            999 V2000
   48.0428  104.5355   36.6750 F   0  0  0  0  0  0
   49.1625  105.2221   36.4423 C   0  0  0  0  0  0
   48.8293  106.3752   35.8594 F   0  0  0  0  0  0
   49.7428  105.4903   37.6104 F   0  0  0  0  0  0
   50.1382  104.4394   35.5634 C   0  0  0  0  0  0
   51.1122  105.1140   34.8242 C   0  0  0  0  0  0
   51.9877  104.4083   34.0058 C   0  0  0  0  0  0
   51.9147  103.0146   33.9037 C   0  0  0  0  0  0
   52.8853  102.3283   32.9372 C   0  0  0  0  0  0
   52.4221  102.3432   31.5548 N   0  0  0  0  0  0
   52.0732  101.2876   30.7513 C   0  0  0  0  0  0
   51.6351  101.8637   29.5621 C   0  0  0  0  0  0
   51.7228  103.1834   29.6727 N   0  0  0  0  0  0
   52.2134  103.5027   30.9232 N   0  0  0  0  0  0
   51.1200  101.1943   28.3252 C   0  0  0  0  0  0
   50.5208  101.9593   27.3190 C   0  0  0  0  0  0
   50.0431  101.4070   26.1349 C   0  0  0  0  0  0
   50.1594  100.0328   25.9946 C   0  0  0  0  0  0
   49.7906   99.1836   24.9761 N   0  0  0  0  0  0
   50.0430   97.9032   25.2899 N   0  0  0  0  0  0
   50.5794   97.8973   26.4817 C   0  0  0  0  0  0
   50.7215   99.2159   27.0027 C   0  0  0  0  0  0
   51.2262   99.8058   28.1720 C   0  0  0  0  0  0
   50.9547  102.3131   34.6651 C   0  0  0  0  0  0
   50.0743  103.0432   35.4819 C   0  0  0  0  0  0
   50.8394  100.7800   34.6314 C   0  0  0  0  0  0
   49.7159  100.3522   35.2105 F   0  0  0  0  0  0
   50.8430  100.3097   33.3854 F   0  0  0  0  0  0
   51.8702  100.2474   35.2853 F   0  0  0  0  0  0
   51.1947  106.1922   34.8716 H   0  0  0  0  0  0
   52.7185  104.9624   33.4299 H   0  0  0  0  0  0
   53.8504  102.8365   32.9577 H   0  0  0  0  0  0
   53.0980  101.3011   33.2277 H   0  0  0  0  0  0
   52.1592  100.2644   31.0869 H   0  0  0  0  0  0
   50.4263  103.0279   27.4434 H   0  0  0  0  0  0
   49.5724  102.0108   25.3786 H   0  0  0  0  0  0
   49.3622   99.4324   24.0932 H   0  0  0  0  0  0
   50.8445   96.9639   26.9537 H   0  0  0  0  0  0
   51.6769   99.1957   28.9404 H   0  0  0  0  0  0
   49.3314  102.5233   36.0698 H   0  0  0  0  0  0
  1  2  1  0  0  0
  2  3  1  0  0  0
  2  4  1  0  0  0
  2  5  1  0  0  0
  5  6  2  0  0  0
  5 25  1  0  0  0
  6  7  1  0  0  0
  6 30  1  0  0  0
  7  8  2  0  0  0
  7 31  1  0  0  0
  8  9  1  0  0  0
  8 24  1  0  0  0
  9 10  1  0  0  0
  9 32  1  0  0  0
  9 33  1  0  0  0
 10 11  1  0  0  0
 10 14  1  0  0  0
 11 12  2  0  0  0
 11 34  1  0  0  0
 12 13  1  0  0  0
 12 15  1  0  0  0
 13 14  2  0  0  0
 15 16  2  0  0  0
 15 23  1  0  0  0
 16 17  1  0  0  0
 16 35  1  0  0  0
 17 18  2  0  0  0
 17 36  1  0  0  0
 18 19  1  0  0  0
 18 22  1  0  0  0
 19 20  1  0  0  0
 19 37  1  0  0  0
 20 21  2  0  0  0
 21 22  1  0  0  0
 21 38  1  0  0  0
 22 23  2  0  0  0
 23 39  1  0  0  0
 24 25  2  0  0  0
 24 26  1  0  0  0
 25 40  1  0  0  0
 26 27  1  0  0  0
 26 28  1  0  0  0
 26 29  1  0  0  0
M  END
> <s_m_entry_id>
27847

> <s_m_entry_name>
dock_pv.8

> <s_m_Source_Path>
/home/csk/Desktop/cluster/DUD-E-result/rock1

> <s_m_Source_File>
dock_pv.maegz

> <i_m_Source_File_Index>
8

> <chembl_id>
CHEMBL1964413

> <chembl_pref_name>
None

> <i_lp_mmshare_version>
53161

> <r_lp_tautomer_probability>
0.980392156862745

> <s_lp_Force_Field>
OPLS_2005

> <r_lp_Energy>
15.945838

> <b_lp_Chiralities_Consistent>
1

> <s_lp_Variant>
CHEMBL3231_lig1443-1

> <s_i_glide_gridfile>
glide-grid_2etr

> <i_i_glide_lignum>
2027

> <i_i_glide_rotatable_bonds>
5

> <r_i_docking_score>
-9.28989060298169

> <r_i_glide_ligand_efficiency>
-0.320341055275231

> <r_i_glide_ligand_efficiency_sa>
-0.984189212975366

> <r_i_glide_ligand_efficiency_ln>
-2.12714937678276

> <r_i_glide_gscore>
-9.28989060298169

> <r_i_glide_lipo>
-2.66994997668082

> <r_i_glide_hbond>
-0.523101946978103

> <r_i_glide_metal>
0

> <r_i_glide_rewards>
-3.33891080661315

> <r_i_glide_evdw>
-40.5352592468262

> <r_i_glide_ecoul>
-5.84902477264404

> <r_i_glide_erotb>
0.244649045811182

> <r_i_glide_esite>
-0.0984602402828839

> <r_i_glide_emodel>
-72.578341518281

> <r_i_glide_energy>
-46.3842840194702

> <r_i_glide_einternal>
1.54230678081512

> <i_i_glide_confnum>
5

> <i_i_glide_posenum>
227

> <r_i_glide_eff_state_penalty>
0

> <s_user_duplicate_titles>
CHEMBL3231_lig1443

> <i_f3d_flags>
0

> <s_m_subgroup_title>
dock_pv

> <s_m_subgroupid>
dock_pv

> <b_m_subgroup_collapsed>
1

$$$$
CHEMBL3231_lig703
                    3D
 Schrodinger Suite 2021-1.
 47 49  0  0  1  0            999 V2000
   51.4970   97.7616   30.4098 C   0  0  0  0  0  0
   51.2624   98.4987   29.2137 O   0  0  0  0  0  0
   51.3264   99.8813   29.2215 C   0  0  0  0  0  0
   51.7691  100.6143   30.3404 C   0  0  0  0  0  0
   51.7534  102.0178   30.3531 C   0  0  0  0  0  0
   51.2881  102.6870   29.2181 C   0  0  0  0  0  0
   50.8690  101.9780   28.0984 C   0  0  0  0  0  0
   50.9002  100.5773   28.0725 C   0  0  0  0  0  0
   50.4527   99.9033   26.8045 C   0  0  0  0  0  0
   50.5264   98.5478   26.4136 C   0  0  0  0  0  0
   50.0434   98.3056   25.2153 N   0  0  0  0  0  0
   49.6442   99.4994   24.7923 N   0  0  0  0  0  0
   49.8696  100.4955   25.6926 C   0  0  0  0  0  0
   52.1741  102.8101   31.5677 C   0  0  0  0  0  0
   51.6434  103.8945   31.8151 O   0  0  0  0  0  0
   53.1373  102.2739   32.3364 N   0  0  0  0  0  0
   53.6663  102.8423   33.5856 C   0  0  2  0  0  0
   55.2162  102.9543   33.5290 C   0  0  0  0  0  0
   55.6432  104.3030   33.4789 O   0  0  0  0  0  0
   53.2039  101.9942   34.8009 C   0  0  0  0  0  0
   51.7175  102.0996   35.1231 C   0  0  0  0  0  0
   50.8695  101.0142   34.8896 C   0  0  0  0  0  0
   49.5175  101.1082   35.2116 C   0  0  0  0  0  0
   49.0138  102.2879   35.7564 C   0  0  0  0  0  0
   49.8538  103.3748   35.9883 C   0  0  0  0  0  0
   51.2075  103.2792   35.6734 C   0  0  0  0  0  0
   51.2872   96.7070   30.2290 H   0  0  0  0  0  0
   52.5343   97.8436   30.7320 H   0  0  0  0  0  0
   50.8418   98.0870   31.2181 H   0  0  0  0  0  0
   52.0994  100.0936   31.2264 H   0  0  0  0  0  0
   51.2618  103.7662   29.1901 H   0  0  0  0  0  0
   50.5314  102.5412   27.2420 H   0  0  0  0  0  0
   50.9331   97.7382   27.0018 H   0  0  0  0  0  0
   49.2319   99.6340   23.8714 H   0  0  0  0  0  0
   49.5936  101.5151   25.4622 H   0  0  0  0  0  0
   53.6030  101.4454   31.9939 H   0  0  0  0  0  0
   53.2653  103.8491   33.7441 H   0  0  0  0  0  0
   55.6670  102.5279   34.4263 H   0  0  0  0  0  0
   55.6429  102.3863   32.7021 H   0  0  0  0  0  0
   55.5516  104.6360   32.5742 H   0  0  0  0  0  0
   53.7353  102.3167   35.6971 H   0  0  0  0  0  0
   53.4874  100.9486   34.6633 H   0  0  0  0  0  0
   51.2555  100.0990   34.4664 H   0  0  0  0  0  0
   48.8581  100.2699   35.0380 H   0  0  0  0  0  0
   47.9645  102.3576   36.0053 H   0  0  0  0  0  0
   49.4574  104.2860   36.4123 H   0  0  0  0  0  0
   51.8577  104.1214   35.8607 H   0  0  0  0  0  0
  1  2  1  0  0  0
  1 27  1  0  0  0
  1 28  1  0  0  0
  1 29  1  0  0  0
  2  3  1  0  0  0
  3  4  2  0  0  0
  3  8  1  0  0  0
  4  5  1  0  0  0
  4 30  1  0  0  0
  5  6  2  0  0  0
  5 14  1  0  0  0
  6  7  1  0  0  0
  6 31  1  0  0  0
  7  8  2  0  0  0
  7 32  1  0  0  0
  8  9  1  0  0  0
  9 10  1  0  0  0
  9 13  2  0  0  0
 10 11  2  0  0  0
 10 33  1  0  0  0
 11 12  1  0  0  0
 12 13  1  0  0  0
 12 34  1  0  0  0
 13 35  1  0  0  0
 14 15  2  0  0  0
 14 16  1  0  0  0
 16 17  1  0  0  0
 16 36  1  0  0  0
 17 18  1  0  0  0
 17 20  1  0  0  0
 17 37  1  0  0  0
 18 19  1  0  0  0
 18 38  1  0  0  0
 18 39  1  0  0  0
 19 40  1  0  0  0
 20 21  1  0  0  0
 20 41  1  0  0  0
 20 42  1  0  0  0
 21 22  2  0  0  0
 21 26  1  0  0  0
 22 23  1  0  0  0
 22 43  1  0  0  0
 23 24  2  0  0  0
 23 44  1  0  0  0
 24 25  1  0  0  0
 24 45  1  0  0  0
 25 26  2  0  0  0
 25 46  1  0  0  0
 26 47  1  0  0  0
M  END
> <s_m_entry_id>
27848

> <s_m_entry_name>
dock_pv.9

> <s_m_Source_Path>
/home/csk/Desktop/cluster/DUD-E-result/rock1

> <s_m_Source_File>
dock_pv.maegz

> <i_m_Source_File_Index>
9

> <chembl_id>
CHEMBL3896691

> <chembl_pref_name>
None

> <i_lp_mmshare_version>
53161

> <r_lp_tautomer_probability>
0.5

> <s_lp_Force_Field>
OPLS_2005

> <r_lp_Energy>
21.65136

> <b_lp_Chiralities_Consistent>
1

> <s_lp_Variant>
CHEMBL3231_lig703-1

> <s_i_glide_gridfile>
glide-grid_2etr

> <i_i_glide_lignum>
1000

> <i_i_glide_rotatable_bonds>
9

> <r_i_docking_score>
-9.26395173942454

> <r_i_glide_ligand_efficiency>
-0.356305836131713

> <r_i_glide_ligand_efficiency_sa>
-1.05555463754443

> <r_i_glide_ligand_efficiency_ln>
-2.17560866849886

> <r_i_glide_gscore>
-9.26395173942454

> <r_i_glide_lipo>
-3.07122052570266

> <r_i_glide_hbond>
-0.925719191308315

> <r_i_glide_metal>
0

> <r_i_glide_rewards>
-1.99493905899943

> <r_i_glide_evdw>
-42.5781631469727

> <r_i_glide_ecoul>
-11.5401620864868

> <r_i_glide_erotb>
0.648715347840463

> <r_i_glide_esite>
-0.0608558409329379

> <r_i_glide_emodel>
-80.1874698747037

> <r_i_glide_energy>
-54.1183252334595

> <r_i_glide_einternal>
9.33069801330566

> <i_i_glide_confnum>
51

> <i_i_glide_posenum>
175

> <r_i_glide_eff_state_penalty>
0

> <s_user_duplicate_titles>
CHEMBL3231_lig703

> <i_f3d_flags>
0

> <s_m_subgroup_title>
dock_pv

> <s_m_subgroupid>
dock_pv

> <b_m_subgroup_collapsed>
1

$$$$
CHEMBL3231_lig687
                    3D
 Schrodinger Suite 2021-1.
 48 50  0  0  1  0            999 V2000
   51.4813   97.7706   30.4354 C   0  0  0  0  0  0
   51.2437   98.5021   29.2359 O   0  0  0  0  0  0
   51.3263   99.8836   29.2349 C   0  0  0  0  0  0
   51.7661  100.6201   30.3517 C   0  0  0  0  0  0
   51.7629  102.0237   30.3540 C   0  0  0  0  0  0
   51.3196  102.6925   29.2113 C   0  0  0  0  0  0
   50.9071  101.9782   28.0929 C   0  0  0  0  0  0
   50.9160  100.5776   28.0783 C   0  0  0  0  0  0
   50.4656   99.9032   26.8112 C   0  0  0  0  0  0
   49.8815  100.4990   25.7002 C   0  0  0  0  0  0
   49.6465   99.5035   24.8012 N   0  0  0  0  0  0
   50.0430   98.3080   25.2288 N   0  0  0  0  0  0
   50.5335   98.5471   26.4241 C   0  0  0  0  0  0
   52.1816  102.8175   31.5689 C   0  0  0  0  0  0
   51.6470  103.8977   31.8289 O   0  0  0  0  0  0
   53.1537  102.2694   32.3188 N   0  0  0  0  0  0
   53.6751  102.7833   33.5973 C   0  0  2  0  0  0
   55.2188  102.9467   33.5222 C   0  0  0  0  0  0
   55.6115  104.3030   33.4418 O   0  0  0  0  0  0
   53.2519  101.8564   34.7813 C   0  0  2  0  0  0
   53.6636  100.5120   34.5539 O   0  0  0  0  0  0
   51.7652  101.9869   35.1400 C   0  0  0  0  0  0
   51.3180  103.1525   35.7767 C   0  0  0  0  0  0
   49.9771  103.2917   36.1282 C   0  0  0  0  0  0
   49.0802  102.2651   35.8463 C   0  0  0  0  0  0
   49.5124  101.1031   35.2111 C   0  0  0  0  0  0
   50.8492  100.9653   34.8512 C   0  0  0  0  0  0
   51.2635   96.7148   30.2639 H   0  0  0  0  0  0
   52.5233   97.8490   30.7508 H   0  0  0  0  0  0
   50.8334   98.1055   31.2470 H   0  0  0  0  0  0
   52.0830  100.0992   31.2436 H   0  0  0  0  0  0
   51.3067  103.7724   29.1755 H   0  0  0  0  0  0
   50.5866  102.5395   27.2289 H   0  0  0  0  0  0
   49.6105  101.5176   25.4701 H   0  0  0  0  0  0
   49.2345   99.6392   23.8833 H   0  0  0  0  0  0
   50.9451   97.7386   27.0079 H   0  0  0  0  0  0
   53.5753  101.4163   31.9821 H   0  0  0  0  0  0
   53.2547  103.7716   33.8101 H   0  0  0  0  0  0
   55.6994  102.5505   34.4190 H   0  0  0  0  0  0
   55.6428  102.3733   32.6970 H   0  0  0  0  0  0
   55.5093  104.6203   32.5329 H   0  0  0  0  0  0
   53.7866  102.1684   35.6809 H   0  0  0  0  0  0
   54.6025  100.4997   34.3537 H   0  0  0  0  0  0
   52.0110  103.9503   36.0021 H   0  0  0  0  0  0
   49.6344  104.1915   36.6218 H   0  0  0  0  0  0
   48.0420  102.3654   36.1240 H   0  0  0  0  0  0
   48.8149  100.3056   35.0015 H   0  0  0  0  0  0
   51.1715  100.0616   34.3542 H   0  0  0  0  0  0
  1  2  1  0  0  0
  1 28  1  0  0  0
  1 29  1  0  0  0
  1 30  1  0  0  0
  2  3  1  0  0  0
  3  4  2  0  0  0
  3  8  1  0  0  0
  4  5  1  0  0  0
  4 31  1  0  0  0
  5  6  2  0  0  0
  5 14  1  0  0  0
  6  7  1  0  0  0
  6 32  1  0  0  0
  7  8  2  0  0  0
  7 33  1  0  0  0
  8  9  1  0  0  0
  9 10  2  0  0  0
  9 13  1  0  0  0
 10 11  1  0  0  0
 10 34  1  0  0  0
 11 12  1  0  0  0
 11 35  1  0  0  0
 12 13  2  0  0  0
 13 36  1  0  0  0
 14 15  2  0  0  0
 14 16  1  0  0  0
 16 17  1  0  0  0
 16 37  1  0  0  0
 17 18  1  0  0  0
 17 20  1  0  0  0
 17 38  1  0  0  0
 18 19  1  0  0  0
 18 39  1  0  0  0
 18 40  1  0  0  0
 19 41  1  0  0  0
 20 21  1  0  0  0
 20 22  1  0  0  0
 20 42  1  0  0  0
 21 43  1  0  0  0
 22 23  2  0  0  0
 22 27  1  0  0  0
 23 24  1  0  0  0
 23 44  1  0  0  0
 24 25  2  0  0  0
 24 45  1  0  0  0
 25 26  1  0  0  0
 25 46  1  0  0  0
 26 27  2  0  0  0
 26 47  1  0  0  0
 27 48  1  0  0  0
M  END
> <s_m_entry_id>
27849

> <s_m_entry_name>
dock_pv.10

> <s_m_Source_Path>
/home/csk/Desktop/cluster/DUD-E-result/rock1

> <s_m_Source_File>
dock_pv.maegz

> <i_m_Source_File_Index>
10

> <chembl_id>
CHEMBL4108938

> <chembl_pref_name>
None

> <i_lp_mmshare_version>
53161

> <r_lp_tautomer_probability>
0.5

> <s_lp_Force_Field>
OPLS_2005

> <r_lp_Energy>
26.830057

> <b_lp_Chiralities_Consistent>
1

> <s_lp_Variant>
CHEMBL3231_lig687-1

> <s_i_glide_gridfile>
glide-grid_2etr

> <i_i_glide_lignum>
981

> <i_i_glide_rotatable_bonds>
10

> <r_i_docking_score>
-9.21168858927055

> <r_i_glide_ligand_efficiency>
-0.341173651454465

> <r_i_glide_ligand_efficiency_sa>
-1.02352095323894

> <r_i_glide_ligand_efficiency_ln>
-2.14432923702677

> <r_i_glide_gscore>
-9.21168858927055

> <r_i_glide_lipo>
-3.07999808874736

> <r_i_glide_hbond>
-0.917125934901687

> <r_i_glide_metal>
0

> <r_i_glide_rewards>
-1.87828845278689

> <r_i_glide_evdw>
-43.059700012207

> <r_i_glide_ecoul>
-11.4754295349121

> <r_i_glide_erotb>
0.599226220005183

> <r_i_glide_esite>
-0.0612029019926237

> <r_i_glide_emodel>
-81.0137089857761

> <r_i_glide_energy>
-54.5351295471191

> <r_i_glide_einternal>
9.43888378143311

> <i_i_glide_confnum>
42

> <i_i_glide_posenum>
153

> <r_i_glide_eff_state_penalty>
0

> <s_user_duplicate_titles>
CHEMBL3231_lig687

> <i_f3d_flags>
0

> <s_m_subgroup_title>
dock_pv

> <s_m_subgroupid>
dock_pv

> <b_m_subgroup_collapsed>
1

$$$$
CHEMBL3231_lig788
                    3D
 Schrodinger Suite 2021-1.
 48 50  0  0  1  0            999 V2000
   52.1796   97.9000   31.3719 C   0  0  0  0  0  0
   52.0996   99.3156   31.5047 O   0  0  0  0  0  0
   51.7551  100.0973   30.4128 C   0  0  0  0  0  0
   51.4607   99.5621   29.1472 C   0  0  0  0  0  0
   51.0279  100.3786   28.0965 C   0  0  0  0  0  0
   50.9528  101.7575   28.2917 C   0  0  0  0  0  0
   51.2624  102.3086   29.5261 C   0  0  0  0  0  0
   51.6430  101.4902   30.5941 C   0  0  0  0  0  0
   51.8441  102.1379   31.9315 C   0  0  0  0  0  0
   50.9931  102.9176   32.3703 O   0  0  0  0  0  0
   53.0221  101.8698   32.5218 N   0  0  0  0  0  0
   53.6086  102.5475   33.6909 C   0  0  1  0  0  0
   53.4476  104.0971   33.7090 C   0  0  0  0  0  0
   53.6430  104.7030   32.4009 N   0  0  0  0  0  0
   53.2184  101.8849   35.0393 C   0  0  0  0  0  0
   51.7423  101.9925   35.4118 C   0  0  0  0  0  0
   51.2763  103.1071   36.1157 C   0  0  0  0  0  0
   49.9213  103.2276   36.4110 C   0  0  0  0  0  0
   49.0398  102.2271   36.0110 C   0  0  0  0  0  0
   49.5004  101.1030   35.3308 C   0  0  0  0  0  0
   50.8539  100.9824   35.0336 C   0  0  0  0  0  0
   50.5812   99.7965   26.8021 C   0  0  0  0  0  0
   50.0430  100.4623   25.7098 C   0  0  0  0  0  0
   49.7277   99.4976   24.8002 N   0  0  0  0  0  0
   50.0430   98.2695   25.2110 N   0  0  0  0  0  0
   50.5577   98.4486   26.4028 C   0  0  0  0  0  0
   52.4430   97.4634   32.3353 H   0  0  0  0  0  0
   51.2243   97.4682   31.0687 H   0  0  0  0  0  0
   52.9515   97.6093   30.6587 H   0  0  0  0  0  0
   51.5160   98.4980   28.9860 H   0  0  0  0  0  0
   50.6293  102.4133   27.4978 H   0  0  0  0  0  0
   51.1803  103.3790   29.6530 H   0  0  0  0  0  0
   53.5811  101.1419   32.1017 H   0  0  0  0  0  0
   54.6807  102.3779   33.5723 H   0  0  0  0  0  0
   52.4430  104.3658   34.0339 H   0  0  0  0  0  0
   54.1368  104.5479   34.4240 H   0  0  0  0  0  0
   53.3250  105.6788   32.4110 H   0  0  0  0  0  0
   54.6183  104.7425   32.1206 H   0  0  0  0  0  0
   53.8102  102.3176   35.8474 H   0  0  0  0  0  0
   53.4960  100.8295   35.0228 H   0  0  0  0  0  0
   51.9596  103.8882   36.4154 H   0  0  0  0  0  0
   49.5555  104.0928   36.9433 H   0  0  0  0  0  0
   47.9894  102.3196   36.2381 H   0  0  0  0  0  0
   48.8121  100.3274   35.0308 H   0  0  0  0  0  0
   51.2084  100.1199   34.4876 H   0  0  0  0  0  0
   49.8340  101.5030   25.5118 H   0  0  0  0  0  0
   49.3012   99.6725   23.8944 H   0  0  0  0  0  0
   50.8977   97.6060   26.9868 H   0  0  0  0  0  0
  1  2  1  0  0  0
  1 27  1  0  0  0
  1 28  1  0  0  0
  1 29  1  0  0  0
  2  3  1  0  0  0
  3  4  2  0  0  0
  3  8  1  0  0  0
  4  5  1  0  0  0
  4 30  1  0  0  0
  5  6  2  0  0  0
  5 22  1  0  0  0
  6  7  1  0  0  0
  6 31  1  0  0  0
  7  8  2  0  0  0
  7 32  1  0  0  0
  8  9  1  0  0  0
  9 10  2  0  0  0
  9 11  1  0  0  0
 11 12  1  0  0  0
 11 33  1  0  0  0
 12 13  1  0  0  0
 12 15  1  0  0  0
 12 34  1  0  0  0
 13 14  1  0  0  0
 13 35  1  0  0  0
 13 36  1  0  0  0
 14 37  1  0  0  0
 14 38  1  0  0  0
 15 16  1  0  0  0
 15 39  1  0  0  0
 15 40  1  0  0  0
 16 17  2  0  0  0
 16 21  1  0  0  0
 17 18  1  0  0  0
 17 41  1  0  0  0
 18 19  2  0  0  0
 18 42  1  0  0  0
 19 20  1  0  0  0
 19 43  1  0  0  0
 20 21  2  0  0  0
 20 44  1  0  0  0
 21 45  1  0  0  0
 22 23  2  0  0  0
 22 26  1  0  0  0
 23 24  1  0  0  0
 23 46  1  0  0  0
 24 25  1  0  0  0
 24 47  1  0  0  0
 25 26  2  0  0  0
 26 48  1  0  0  0
M  END
> <s_m_entry_id>
27850

> <s_m_entry_name>
dock_pv.11

> <s_m_Source_Path>
/home/csk/Desktop/cluster/DUD-E-result/rock1

> <s_m_Source_File>
dock_pv.maegz

> <i_m_Source_File_Index>
11

> <chembl_id>
CHEMBL3956875

> <chembl_pref_name>
None

> <i_lp_mmshare_version>
53161

> <r_lp_tautomer_probability>
0.5

> <s_lp_Force_Field>
OPLS_2005

> <r_lp_Energy>
28.365706

> <b_lp_Chiralities_Consistent>
1

> <s_lp_Variant>
CHEMBL3231_lig788-2

> <s_i_glide_gridfile>
glide-grid_2etr

> <i_i_glide_lignum>
1115

> <i_i_glide_rotatable_bonds>
8

> <r_i_docking_score>
-9.20270241597506

> <r_i_glide_ligand_efficiency>
-0.353950092922118

> <r_i_glide_ligand_efficiency_sa>
-1.04857575755541

> <r_i_glide_ligand_efficiency_ln>
-2.16122446586218

> <r_i_glide_gscore>
-9.20270241597506

> <r_i_glide_lipo>
-2.94005092574911

> <r_i_glide_hbond>
-1.05052980946562

> <r_i_glide_metal>
0

> <r_i_glide_rewards>
-2.01481338318442

> <r_i_glide_evdw>
-39.8777732849121

> <r_i_glide_ecoul>
-11.3771543502808

> <r_i_glide_erotb>
0.543300596175636

> <r_i_glide_esite>
-0.0401470769638264

> <r_i_glide_emodel>
-78.5857725672976

> <r_i_glide_energy>
-51.2549276351929

> <r_i_glide_einternal>
5.04336023330688

> <i_i_glide_confnum>
56

> <i_i_glide_posenum>
135

> <r_i_glide_eff_state_penalty>
0

> <s_user_duplicate_titles>
CHEMBL3231_lig788

> <i_f3d_flags>
0

> <s_m_subgroup_title>
dock_pv

> <s_m_subgroupid>
dock_pv

> <b_m_subgroup_collapsed>
1

$$$$
CHEMBL3231_lig641
                    3D
 Schrodinger Suite 2021-1.
 54 57  0  0  1  0            999 V2000
   51.8382   97.8315   30.4173 C   0  0  0  0  0  0
   51.5546   98.4963   29.1878 O   0  0  0  0  0  0
   51.6042   99.8786   29.1292 C   0  0  0  0  0  0
   52.1538  100.6596   30.1627 C   0  0  0  0  0  0
   52.1225  102.0614   30.1155 C   0  0  0  0  0  0
   51.5142  102.6846   29.0292 C   0  0  0  0  0  0
   50.9952  101.9251   27.9900 C   0  0  0  0  0  0
   51.0556  100.5274   28.0030 C   0  0  0  0  0  0
   50.5303   99.8229   26.7834 C   0  0  0  0  0  0
   50.5696   98.4574   26.4326 C   0  0  0  0  0  0
   50.0430   98.1955   25.2599 N   0  0  0  0  0  0
   49.6433   99.3822   24.8108 N   0  0  0  0  0  0
   49.9053  100.3967   25.6811 C   0  0  0  0  0  0
   52.6579  102.8987   31.2450 C   0  0  0  0  0  0
   52.0428  103.9024   31.6101 O   0  0  0  0  0  0
   53.7786  102.4514   31.8380 N   0  0  0  0  0  0
   54.2512  102.8743   33.1566 C   0  0  0  0  0  0
   53.5346  102.1185   34.2733 C   0  0  0  0  0  0
   54.2145  101.1817   35.0566 C   0  0  0  0  0  0
   53.5250  100.4471   36.0218 C   0  0  0  0  0  0
   52.1559  100.6412   36.2091 C   0  0  0  0  0  0
   51.4639  101.5999   35.4564 C   0  0  0  0  0  0
   52.1735  102.3399   34.5031 C   0  0  0  0  0  0
   49.9700  101.7675   35.6044 C   0  0  0  0  0  0
   49.2601  100.7588   35.6109 O   0  0  0  0  0  0
   49.4518  103.0204   35.6959 N   0  0  0  0  0  0
   50.2254  104.2613   35.8607 C   0  0  0  0  0  0
   49.1926  105.2241   36.4455 C   0  0  0  0  0  0
   47.8802  104.7574   35.8449 C   0  0  0  0  0  0
   48.0089  103.2388   35.8439 C   0  0  0  0  0  0
   51.6080   96.7708   30.3204 H   0  0  0  0  0  0
   52.8924   97.9155   30.6842 H   0  0  0  0  0  0
   51.2266   98.2161   31.2358 H   0  0  0  0  0  0
   52.5919  100.1816   31.0258 H   0  0  0  0  0  0
   51.4591  103.7640   28.9701 H   0  0  0  0  0  0
   50.5602  102.4553   27.1576 H   0  0  0  0  0  0
   50.9949   97.6607   27.0256 H   0  0  0  0  0  0
   49.2039   99.5033   23.9021 H   0  0  0  0  0  0
   49.6383  101.4126   25.4311 H   0  0  0  0  0  0
   54.2848  101.6951   31.3988 H   0  0  0  0  0  0
   55.3286  102.7137   33.2166 H   0  0  0  0  0  0
   54.0901  103.9467   33.2990 H   0  0  0  0  0  0
   55.2689  100.9995   34.9045 H   0  0  0  0  0  0
   54.0493   99.7093   36.6103 H   0  0  0  0  0  0
   51.6436  100.0399   36.9451 H   0  0  0  0  0  0
   51.6500  103.0572   33.8903 H   0  0  0  0  0  0
   51.0608  104.1586   36.5554 H   0  0  0  0  0  0
   50.5335  104.6524   34.8913 H   0  0  0  0  0  0
   49.1651  105.1205   37.5325 H   0  0  0  0  0  0
   49.4277  106.2667   36.2280 H   0  0  0  0  0  0
   47.7798  105.1161   34.8171 H   0  0  0  0  0  0
   47.0118  105.0986   36.4097 H   0  0  0  0  0  0
   47.4302  102.7803   35.0409 H   0  0  0  0  0  0
   47.6889  102.8478   36.8082 H   0  0  0  0  0  0
  1  2  1  0  0  0
  1 31  1  0  0  0
  1 32  1  0  0  0
  1 33  1  0  0  0
  2  3  1  0  0  0
  3  4  2  0  0  0
  3  8  1  0  0  0
  4  5  1  0  0  0
  4 34  1  0  0  0
  5  6  2  0  0  0
  5 14  1  0  0  0
  6  7  1  0  0  0
  6 35  1  0  0  0
  7  8  2  0  0  0
  7 36  1  0  0  0
  8  9  1  0  0  0
  9 10  1  0  0  0
  9 13  2  0  0  0
 10 11  2  0  0  0
 10 37  1  0  0  0
 11 12  1  0  0  0
 12 13  1  0  0  0
 12 38  1  0  0  0
 13 39  1  0  0  0
 14 15  2  0  0  0
 14 16  1  0  0  0
 16 17  1  0  0  0
 16 40  1  0  0  0
 17 18  1  0  0  0
 17 41  1  0  0  0
 17 42  1  0  0  0
 18 19  2  0  0  0
 18 23  1  0  0  0
 19 20  1  0  0  0
 19 43  1  0  0  0
 20 21  2  0  0  0
 20 44  1  0  0  0
 21 22  1  0  0  0
 21 45  1  0  0  0
 22 23  2  0  0  0
 22 24  1  0  0  0
 23 46  1  0  0  0
 24 25  2  0  0  0
 24 26  1  0  0  0
 26 27  1  0  0  0
 26 30  1  0  0  0
 27 28  1  0  0  0
 27 47  1  0  0  0
 27 48  1  0  0  0
 28 29  1  0  0  0
 28 49  1  0  0  0
 28 50  1  0  0  0
 29 30  1  0  0  0
 29 51  1  0  0  0
 29 52  1  0  0  0
 30 53  1  0  0  0
 30 54  1  0  0  0
M  END
> <s_m_entry_id>
27851

> <s_m_entry_name>
dock_pv.12

> <s_m_Source_Path>
/home/csk/Desktop/cluster/DUD-E-result/rock1

> <s_m_Source_File>
dock_pv.maegz

> <i_m_Source_File_Index>
12

> <chembl_id>
CHEMBL3935094

> <chembl_pref_name>
None

> <i_lp_mmshare_version>
53161

> <r_lp_tautomer_probability>
0.5

> <s_lp_Force_Field>
OPLS_2005

> <r_lp_Energy>
52.297964

> <b_lp_Chiralities_Consistent>
1

> <s_lp_Variant>
CHEMBL3231_lig641-1

> <s_i_glide_gridfile>
glide-grid_2etr

> <i_i_glide_lignum>
929

> <i_i_glide_rotatable_bonds>
8

> <r_i_docking_score>
-9.18282852546364

> <r_i_glide_ligand_efficiency>
-0.306094284182121

> <r_i_glide_ligand_efficiency_sa>
-0.951106108619065

> <r_i_glide_ligand_efficiency_ln>
-2.08643869591589

> <r_i_glide_gscore>
-9.18282852546364

> <r_i_glide_lipo>
-3.16426719259089

> <r_i_glide_hbond>
-0.616918305264532

> <r_i_glide_metal>
0

> <r_i_glide_rewards>
-2.29202158920314

> <r_i_glide_evdw>
-50.4266357421875

> <r_i_glide_ecoul>
-7.379807472229

> <r_i_glide_erotb>
0.5883782900359

> <r_i_glide_esite>
-0.0696968204972562

> <r_i_glide_emodel>
-86.3808953147305

> <r_i_glide_energy>
-57.8064432144165

> <r_i_glide_einternal>
7.05151462554932

> <i_i_glide_confnum>
33

> <i_i_glide_posenum>
386

> <r_i_glide_eff_state_penalty>
0

> <s_user_duplicate_titles>
CHEMBL3231_lig641

> <i_f3d_flags>
0

> <s_m_subgroup_title>
dock_pv

> <s_m_subgroupid>
dock_pv

> <b_m_subgroup_collapsed>
1

$$$$
CHEMBL3231_lig805
                    3D
 Schrodinger Suite 2021-1.
 44 46  0  0  1  0            999 V2000
   51.4077   97.5943   30.3849 C   0  0  0  0  0  0
   51.2431   98.3591   29.1918 O   0  0  0  0  0  0
   51.3628   99.7392   29.2230 C   0  0  0  0  0  0
   51.7635  100.4329   30.3765 C   0  0  0  0  0  0
   51.8076  101.8347   30.4130 C   0  0  0  0  0  0
   51.4848  102.5451   29.2553 C   0  0  0  0  0  0
   51.1019  101.8726   28.1023 C   0  0  0  0  0  0
   51.0262  100.4752   28.0694 C   0  0  0  0  0  0
   50.5405   99.8464   26.7966 C   0  0  0  0  0  0
   50.5862   98.5015   26.3848 C   0  0  0  0  0  0
   50.0433   98.2917   25.2110 N   0  0  0  0  0  0
   49.6431   99.4982   24.8110 N   0  0  0  0  0  0
   49.9234  100.4746   25.7201 C   0  0  0  0  0  0
   52.1069  102.5787   31.6911 C   0  0  0  0  0  0
   51.6462  103.7074   31.8775 O   0  0  0  0  0  0
   52.8452  101.9218   32.6032 N   0  0  0  0  0  0
   53.0783  102.3654   33.9780 C   0  0  0  0  0  0
   51.8015  102.5665   34.7935 C   0  0  0  0  0  0
   50.9182  101.5026   35.0049 C   0  0  0  0  0  0
   49.7470  101.6998   35.7321 C   0  0  0  0  0  0
   49.4553  102.9555   36.2624 C   0  0  0  0  0  0
   50.3272  104.0368   36.0613 C   0  0  0  0  0  0
   51.5028  103.8257   35.3211 C   0  0  0  0  0  0
   50.0006  105.3881   36.6518 C   0  0  0  0  0  0
   49.2430  105.5028   37.6110 O   0  0  0  0  0  0
   50.5646  106.4575   36.0874 N   0  0  0  0  0  0
   51.2172   96.5433   30.1644 H   0  0  0  0  0  0
   52.4251   97.6681   30.7698 H   0  0  0  0  0  0
   50.7028   97.8994   31.1590 H   0  0  0  0  0  0
   51.9954   99.8774   31.2723 H   0  0  0  0  0  0
   51.5136  103.6263   29.2433 H   0  0  0  0  0  0
   50.8425  102.4599   27.2350 H   0  0  0  0  0  0
   51.0120   97.6779   26.9377 H   0  0  0  0  0  0
   49.2012   99.6510   23.9089 H   0  0  0  0  0  0
   49.6483  101.5011   25.5261 H   0  0  0  0  0  0
   53.3382  101.0950   32.3026 H   0  0  0  0  0  0
   53.6972  103.2659   33.9700 H   0  0  0  0  0  0
   53.6755  101.5984   34.4717 H   0  0  0  0  0  0
   51.1388  100.5252   34.5980 H   0  0  0  0  0  0
   49.0677  100.8754   35.8945 H   0  0  0  0  0  0
   48.5431  103.0784   36.8312 H   0  0  0  0  0  0
   52.1999  104.6339   35.1501 H   0  0  0  0  0  0
   50.3782  107.3713   36.4656 H   0  0  0  0  0  0
   51.1843  106.3600   35.2977 H   0  0  0  0  0  0
  1  2  1  0  0  0
  1 27  1  0  0  0
  1 28  1  0  0  0
  1 29  1  0  0  0
  2  3  1  0  0  0
  3  4  2  0  0  0
  3  8  1  0  0  0
  4  5  1  0  0  0
  4 30  1  0  0  0
  5  6  2  0  0  0
  5 14  1  0  0  0
  6  7  1  0  0  0
  6 31  1  0  0  0
  7  8  2  0  0  0
  7 32  1  0  0  0
  8  9  1  0  0  0
  9 10  1  0  0  0
  9 13  2  0  0  0
 10 11  2  0  0  0
 10 33  1  0  0  0
 11 12  1  0  0  0
 12 13  1  0  0  0
 12 34  1  0  0  0
 13 35  1  0  0  0
 14 15  2  0  0  0
 14 16  1  0  0  0
 16 17  1  0  0  0
 16 36  1  0  0  0
 17 18  1  0  0  0
 17 37  1  0  0  0
 17 38  1  0  0  0
 18 19  2  0  0  0
 18 23  1  0  0  0
 19 20  1  0  0  0
 19 39  1  0  0  0
 20 21  2  0  0  0
 20 40  1  0  0  0
 21 22  1  0  0  0
 21 41  1  0  0  0
 22 23  2  0  0  0
 22 24  1  0  0  0
 23 42  1  0  0  0
 24 25  2  0  0  0
 24 26  1  0  0  0
 26 43  1  0  0  0
 26 44  1  0  0  0
M  END
> <s_m_entry_id>
27852

> <s_m_entry_name>
dock_pv.13

> <s_m_Source_Path>
/home/csk/Desktop/cluster/DUD-E-result/rock1

> <s_m_Source_File>
dock_pv.maegz

> <i_m_Source_File_Index>
13

> <chembl_id>
CHEMBL3985772

> <chembl_pref_name>
None

> <i_lp_mmshare_version>
53161

> <r_lp_tautomer_probability>
0.5

> <s_lp_Force_Field>
OPLS_2005

> <r_lp_Energy>
22.848637

> <b_lp_Chiralities_Consistent>
1

> <s_lp_Variant>
CHEMBL3231_lig805-1

> <s_i_glide_gridfile>
glide-grid_2etr

> <i_i_glide_lignum>
1133

> <i_i_glide_rotatable_bonds>
7

> <r_i_docking_score>
-9.13042440564231

> <r_i_glide_ligand_efficiency>
-0.351170169447781

> <r_i_glide_ligand_efficiency_sa>
-1.04034024520116

> <r_i_glide_ligand_efficiency_ln>
-2.14425021229903

> <r_i_glide_gscore>
-9.13042440564231

> <r_i_glide_lipo>
-2.7128395158254

> <r_i_glide_hbond>
-0.93871194195859

> <r_i_glide_metal>
0

> <r_i_glide_rewards>
-2.14914840171976

> <r_i_glide_evdw>
-44.3988342285156

> <r_i_glide_ecoul>
-10.6723432540894

> <r_i_glide_erotb>
0.543419318216133

> <r_i_glide_esite>
-0.0523506648155024

> <r_i_glide_emodel>
-84.4213279206268

> <r_i_glide_energy>
-55.071177482605

> <r_i_glide_einternal>
2.96361756324768

> <i_i_glide_confnum>
61

> <i_i_glide_posenum>
346

> <r_i_glide_eff_state_penalty>
0

> <s_user_duplicate_titles>
CHEMBL3231_lig805

> <i_f3d_flags>
0

> <s_m_subgroup_title>
dock_pv

> <s_m_subgroupid>
dock_pv

> <b_m_subgroup_collapsed>
1

$$$$
CHEMBL3231_lig44
                    3D
 Schrodinger Suite 2021-1.
 44 47  0  0  1  0            999 V2000
   50.2645  102.3633   34.6444 C   0  0  0  0  0  0
   49.4110  103.1596   35.4045 C   0  0  0  0  0  0
   49.6411  104.5303   35.4901 C   0  0  0  0  0  0
   50.7101  105.1114   34.8116 C   0  0  0  0  0  0
   51.5578  104.3165   34.0433 C   0  0  0  0  0  0
   51.3462  102.9343   33.9607 C   0  0  0  0  0  0
   48.8187  105.3037   36.2348 F   0  0  0  0  0  0
   52.3165  102.0296   33.1832 C   0  0  1  0  0  0
   52.5687  102.4273   31.7218 C   0  0  0  0  0  0
   53.6834  103.1285   31.4169 C   0  0  0  0  0  0
   54.6139  103.4967   32.3433 N   0  0  0  0  0  0
   54.6808  103.0481   33.6171 C   0  0  0  0  0  0
   53.6997  101.8735   33.9053 C   0  0  0  0  0  0
   55.4799  103.4993   34.4337 O   0  0  0  0  0  0
   54.0428  103.5653   30.0069 C   0  0  0  0  0  0
   51.6429  102.0142   30.6966 C   0  0  0  0  0  0
   50.6601  102.7034   30.4117 O   0  0  0  0  0  0
   52.0094  100.8674   30.0848 N   0  0  0  0  0  0
   51.4515  100.2737   28.9367 C   0  0  0  0  0  0
   51.6028   98.8919   28.8002 C   0  0  0  0  0  0
   51.1403   98.2105   27.6719 C   0  0  0  0  0  0
   50.8293  101.0177   27.9230 C   0  0  0  0  0  0
   50.3868  100.3537   26.7687 C   0  0  0  0  0  0
   50.5508   98.9431   26.6330 C   0  0  0  0  0  0
   50.0842   98.4726   25.4321 N   0  0  0  0  0  0
   49.6430   99.5864   24.8202 N   0  0  0  0  0  0
   49.7481  100.7320   25.5672 C   0  0  0  0  0  0
   50.0874  101.2982   34.6010 H   0  0  0  0  0  0
   48.5802  102.7172   35.9357 H   0  0  0  0  0  0
   50.8876  106.1749   34.8851 H   0  0  0  0  0  0
   52.3860  104.7832   33.5278 H   0  0  0  0  0  0
   51.8410  101.0458   33.1811 H   0  0  0  0  0  0
   55.3246  104.1699   32.0855 H   0  0  0  0  0  0
   53.6026  101.7052   34.9782 H   0  0  0  0  0  0
   54.2334  101.0229   33.4784 H   0  0  0  0  0  0
   54.4042  102.7104   29.4351 H   0  0  0  0  0  0
   53.1930  104.0006   29.4816 H   0  0  0  0  0  0
   54.8394  104.3028   30.0109 H   0  0  0  0  0  0
   52.7486  100.3447   30.5288 H   0  0  0  0  0  0
   52.0816   98.3223   29.5839 H   0  0  0  0  0  0
   51.2464   97.1387   27.5978 H   0  0  0  0  0  0
   50.7197  102.0888   27.9998 H   0  0  0  0  0  0
   49.2347   99.5585   23.8908 H   0  0  0  0  0  0
   49.3799  101.6774   25.2045 H   0  0  0  0  0  0
  1  2  2  0  0  0
  1  6  1  0  0  0
  1 28  1  0  0  0
  2  3  1  0  0  0
  2 29  1  0  0  0
  3  7  1  0  0  0
  3  4  2  0  0  0
  4  5  1  0  0  0
  4 30  1  0  0  0
  5  6  2  0  0  0
  5 31  1  0  0  0
  6  8  1  0  0  0
  8  9  1  0  0  0
  8 13  1  0  0  0
  8 32  1  0  0  0
  9 16  1  0  0  0
  9 10  2  0  0  0
 10 15  1  0  0  0
 10 11  1  0  0  0
 11 12  1  0  0  0
 11 33  1  0  0  0
 12 13  1  0  0  0
 12 14  2  0  0  0
 13 34  1  0  0  0
 13 35  1  0  0  0
 15 36  1  0  0  0
 15 37  1  0  0  0
 15 38  1  0  0  0
 16 17  2  0  0  0
 16 18  1  0  0  0
 18 39  1  0  0  0
 18 19  1  0  0  0
 19 20  1  0  0  0
 19 22  2  0  0  0
 20 21  2  0  0  0
 20 40  1  0  0  0
 21 24  1  0  0  0
 21 41  1  0  0  0
 22 42  1  0  0  0
 22 23  1  0  0  0
 23 24  1  0  0  0
 23 27  2  0  0  0
 24 25  2  0  0  0
 25 26  1  0  0  0
 26 43  1  0  0  0
 26 27  1  0  0  0
 27 44  1  0  0  0
M  END
> <s_m_entry_id>
27853

> <s_m_entry_name>
dock_pv.14

> <s_m_Source_Path>
/home/csk/Desktop/cluster/DUD-E-result/rock1

> <s_m_Source_File>
dock_pv.maegz

> <i_m_Source_File_Index>
14

> <chembl_id>
CHEMBL218654

> <chembl_pref_name>
None

> <i_lp_mmshare_version>
53161

> <r_lp_tautomer_probability>
0.019607843137214

> <s_lp_Force_Field>
OPLS_2005

> <r_lp_Energy>
45.875058

> <b_lp_Chiralities_Consistent>
1

> <s_lp_Variant>
CHEMBL3231_lig44-4

> <s_i_glide_gridfile>
glide-grid_2etr

> <i_i_glide_lignum>
50

> <i_i_glide_rotatable_bonds>
4

> <r_i_docking_score>
-9.10186652775698

> <r_i_glide_ligand_efficiency>
-0.337106167694703

> <r_i_glide_ligand_efficiency_sa>
-1.01131850197306

> <r_i_glide_ligand_efficiency_ln>
-2.1187644716646

> <r_i_glide_gscore>
-9.10186652775698

> <r_i_glide_lipo>
-2.37964836982332

> <r_i_glide_hbond>
-0.637110037122756

> <r_i_glide_metal>
0

> <r_i_glide_rewards>
-2.59174774465732

> <r_i_glide_evdw>
-43.1645317077637

> <r_i_glide_ecoul>
-11.2669086456299

> <r_i_glide_erotb>
0.405425445771949

> <r_i_glide_esite>
-0.0505229396928651

> <r_i_glide_emodel>
-81.5278300136072

> <r_i_glide_energy>
-54.4314403533936

> <r_i_glide_einternal>
4.99444818496704

> <i_i_glide_confnum>
42

> <i_i_glide_posenum>
346

> <r_i_glide_eff_state_penalty>
0

> <s_user_duplicate_titles>
CHEMBL3231_lig44,CHEMBL3231_lig44,365452

> <i_f3d_flags>
0

> <s_m_subgroup_title>
dock_pv

> <s_m_subgroupid>
dock_pv

> <b_m_subgroup_collapsed>
1

$$$$
CHEMBL3231_lig523
                    3D
 Schrodinger Suite 2021-1.
 65 70  0  0  1  0            999 V2000
   52.8516  101.8864   33.5993 C   0  0  1  0  0  0
   52.9215  102.0930   32.0636 C   0  0  0  0  0  0
   53.6713  103.1383   31.6031 C   0  0  0  0  0  0
   54.4429  103.8806   32.4449 N   0  0  0  0  0  0
   54.7128  103.5879   33.7403 C   0  0  0  0  0  0
   54.0772  102.4820   34.2078 N   0  0  0  0  0  0
   55.4278  104.2912   34.4479 O   0  0  0  0  0  0
   53.9357  103.5062   30.1417 C   0  0  0  0  0  0
   52.1270  101.1799   31.2319 C   0  0  0  0  0  0
   51.7808  101.6706   30.0250 N   0  0  0  0  0  0
   51.7817  100.0694   31.6345 O   0  0  0  0  0  0
   51.2680  101.0481   28.8781 C   0  0  0  0  0  0
   51.2589   99.6607   28.6717 C   0  0  0  0  0  0
   50.4382  101.4632   26.6123 C   0  0  0  0  0  0
   50.8510  101.9152   27.8661 C   0  0  0  0  0  0
   50.4161  100.0806   26.4228 C   0  0  0  0  0  0
   50.8185   99.1744   27.4308 C   0  0  0  0  0  0
   50.6394   97.8945   26.8296 C   0  0  0  0  0  0
   50.1770   97.9904   25.6108 N   0  0  0  0  0  0
   50.0430   99.3016   25.3470 N   0  0  0  0  0  0
   51.5304  102.3411   34.2483 C   0  0  0  0  0  0
   51.2907  103.6912   34.5511 C   0  0  0  0  0  0
   50.0938  104.1090   35.1671 C   0  0  0  0  0  0
   49.1356  103.1285   35.4855 C   0  0  0  0  0  0
   49.3782  101.7843   35.2119 C   0  0  0  0  0  0
   50.5647  101.3919   34.5964 C   0  0  0  0  0  0
   47.9497  103.4568   36.0518 F   0  0  0  0  0  0
   49.8437  105.5675   35.4968 C   0  0  0  0  0  0
   50.5708  106.4709   34.8109 N   0  0  0  0  0  0
   49.0049  105.9026   36.3367 O   0  0  0  0  0  0
   50.5254  107.9279   35.0053 C   0  0  0  0  0  0
   51.3360  108.4976   36.1802 C   0  0  0  0  0  0
   51.7389  107.6163   37.1329 N   0  0  0  0  0  0
   52.4683  108.0806   38.1700 C   0  0  0  0  0  0
   52.8434  109.4130   38.3109 C   0  0  0  0  0  0
   51.6603  109.8893   36.2122 C   0  0  0  0  0  0
   52.4427  110.3464   37.3194 C   0  0  0  0  0  0
   52.8042  111.7127   37.4039 C   0  0  0  0  0  0
   52.4050  112.6066   36.4167 C   0  0  0  0  0  0
   51.6430  112.1720   35.3397 C   0  0  0  0  0  0
   51.2590  110.8372   35.2284 C   0  0  0  0  0  0
   52.9147  100.8196   33.8293 H   0  0  0  0  0  0
   55.0028  104.6372   32.0638 H   0  0  0  0  0  0
   54.2259  102.3013   35.1878 H   0  0  0  0  0  0
   53.1214  104.1092   29.7383 H   0  0  0  0  0  0
   54.8427  104.0879   30.0115 H   0  0  0  0  0  0
   54.0739  102.6230   29.5189 H   0  0  0  0  0  0
   52.0048  102.6443   29.8982 H   0  0  0  0  0  0
   51.6013   98.9737   29.4321 H   0  0  0  0  0  0
   50.1306  102.1542   25.8423 H   0  0  0  0  0  0
   50.8684  102.9836   28.0285 H   0  0  0  0  0  0
   50.8430   96.9306   27.2715 H   0  0  0  0  0  0
   49.6876   99.6118   24.4543 H   0  0  0  0  0  0
   52.0568  104.4127   34.3061 H   0  0  0  0  0  0
   48.6346  101.0444   35.4675 H   0  0  0  0  0  0
   50.7253  100.3443   34.3807 H   0  0  0  0  0  0
   51.3564  106.1446   34.2639 H   0  0  0  0  0  0
   49.4938  108.2682   35.1083 H   0  0  0  0  0  0
   50.9101  108.3545   34.0775 H   0  0  0  0  0  0
   52.7654  107.3464   38.9056 H   0  0  0  0  0  0
   53.4347  109.7369   39.1565 H   0  0  0  0  0  0
   53.4005  112.0584   38.2372 H   0  0  0  0  0  0
   52.6882  113.6487   36.4869 H   0  0  0  0  0  0
   51.3384  112.8815   34.5834 H   0  0  0  0  0  0
   50.6627  110.5320   34.3836 H   0  0  0  0  0  0
  1  2  1  0  0  0
  1  6  1  0  0  0
  1 21  1  0  0  0
  1 42  1  0  0  0
  2  3  2  0  0  0
  2  9  1  0  0  0
  3  4  1  0  0  0
  3  8  1  0  0  0
  4  5  1  0  0  0
  4 43  1  0  0  0
  5  6  1  0  0  0
  5  7  2  0  0  0
  6 44  1  0  0  0
  8 45  1  0  0  0
  8 46  1  0  0  0
  8 47  1  0  0  0
  9 10  1  0  0  0
  9 11  2  0  0  0
 10 12  1  0  0  0
 10 48  1  0  0  0
 12 13  2  0  0  0
 12 15  1  0  0  0
 13 17  1  0  0  0
 13 49  1  0  0  0
 14 16  1  0  0  0
 14 15  2  0  0  0
 14 50  1  0  0  0
 15 51  1  0  0  0
 16 17  2  0  0  0
 16 20  1  0  0  0
 17 18  1  0  0  0
 18 19  2  0  0  0
 18 52  1  0  0  0
 19 20  1  0  0  0
 20 53  1  0  0  0
 21 22  2  0  0  0
 21 26  1  0  0  0
 22 23  1  0  0  0
 22 54  1  0  0  0
 23 24  2  0  0  0
 23 28  1  0  0  0
 24 25  1  0  0  0
 24 27  1  0  0  0
 25 26  2  0  0  0
 25 55  1  0  0  0
 26 56  1  0  0  0
 28 29  1  0  0  0
 28 30  2  0  0  0
 29 31  1  0  0  0
 29 57  1  0  0  0
 31 32  1  0  0  0
 31 58  1  0  0  0
 31 59  1  0  0  0
 32 33  2  0  0  0
 32 36  1  0  0  0
 33 34  1  0  0  0
 34 35  2  0  0  0
 34 60  1  0  0  0
 35 37  1  0  0  0
 35 61  1  0  0  0
 36 37  1  0  0  0
 36 41  2  0  0  0
 37 38  2  0  0  0
 38 39  1  0  0  0
 38 62  1  0  0  0
 39 40  2  0  0  0
 39 63  1  0  0  0
 40 41  1  0  0  0
 40 64  1  0  0  0
 41 65  1  0  0  0
M  END
> <s_m_entry_id>
27854

> <s_m_entry_name>
dock_pv.15

> <s_m_Source_Path>
/home/csk/Desktop/cluster/DUD-E-result/rock1

> <s_m_Source_File>
dock_pv.maegz

> <i_m_Source_File_Index>
15

> <chembl_id>
CHEMBL3809796

> <chembl_pref_name>
None

> <i_lp_mmshare_version>
53161

> <r_lp_tautomer_probability>
0.980392156860701

> <s_lp_Force_Field>
OPLS_2005

> <r_lp_Energy>
52.437315

> <b_lp_Chiralities_Consistent>
1

> <s_lp_Variant>
CHEMBL3231_lig523-2

> <s_i_glide_gridfile>
glide-grid_2etr

> <i_i_glide_lignum>
770

> <i_i_glide_rotatable_bonds>
8

> <r_i_docking_score>
-9.09653671067486

> <r_i_glide_ligand_efficiency>
-0.22186674904085

> <r_i_glide_ligand_efficiency_sa>
-0.765044748163312

> <r_i_glide_ligand_efficiency_ln>
-1.92986053505597

> <r_i_glide_gscore>
-9.09653671067486

> <r_i_glide_lipo>
-3.02654425461133

> <r_i_glide_hbond>
-0.405561284388554

> <r_i_glide_metal>
0

> <r_i_glide_rewards>
-1.44328527547214

> <r_i_glide_evdw>
-63.8877983093262

> <r_i_glide_ecoul>
-9.22789287567139

> <r_i_glide_erotb>
0.480437544660313

> <r_i_glide_esite>
-0.123009594046128

> <r_i_glide_emodel>
-109.43729075412

> <r_i_glide_energy>
-73.1156911849976

> <r_i_glide_einternal>
6.76599884033203

> <i_i_glide_confnum>
8

> <i_i_glide_posenum>
33

> <r_i_glide_eff_state_penalty>
0

> <s_user_duplicate_titles>
CHEMBL3231_lig523

> <i_f3d_flags>
0

> <s_m_subgroup_title>
dock_pv

> <s_m_subgroupid>
dock_pv

> <b_m_subgroup_collapsed>
1

$$$$
CHEMBL3231_lig708
                    3D
 Schrodinger Suite 2021-1.
 47 49  0  0  1  0            999 V2000
   51.4399   97.6697   30.4047 C   0  0  0  0  0  0
   51.2436   98.3957   29.1929 O   0  0  0  0  0  0
   51.2787   99.7794   29.1901 C   0  0  0  0  0  0
   51.6830  100.5214   30.3099 C   0  0  0  0  0  0
   51.6643  101.9227   30.3066 C   0  0  0  0  0  0
   51.2339  102.5866   29.1545 C   0  0  0  0  0  0
   50.8450  101.8691   28.0330 C   0  0  0  0  0  0
   50.8735  100.4697   28.0286 C   0  0  0  0  0  0
   50.4400   99.7892   26.7695 C   0  0  0  0  0  0
   49.8593  100.3776   25.6538 C   0  0  0  0  0  0
   49.6465   99.3716   24.7622 N   0  0  0  0  0  0
   50.0431   98.1824   25.2110 N   0  0  0  0  0  0
   50.5230   98.4329   26.4039 C   0  0  0  0  0  0
   52.0877  102.7301   31.5050 C   0  0  0  0  0  0
   51.7026  103.8929   31.6310 O   0  0  0  0  0  0
   52.9237  102.1234   32.3694 N   0  0  0  0  0  0
   53.6795  102.7572   33.4621 C   0  0  1  0  0  0
   54.9018  103.4977   32.8514 C   0  0  0  0  0  0
   55.3891  104.5872   33.6116 O   0  0  0  0  0  0
   52.7931  103.6276   34.4174 C   0  0  0  0  0  0
   51.4679  103.0119   34.8852 C   0  0  0  0  0  0
   50.3626  103.8460   35.0754 C   0  0  0  0  0  0
   49.1390  103.3127   35.4781 C   0  0  0  0  0  0
   49.0234  101.9419   35.6942 C   0  0  0  0  0  0
   50.1213  101.1025   35.5191 C   0  0  0  0  0  0
   51.3460  101.6369   35.1246 C   0  0  0  0  0  0
   51.2455   96.6127   30.2232 H   0  0  0  0  0  0
   52.4654   97.7657   30.7629 H   0  0  0  0  0  0
   50.7516   97.9921   31.1885 H   0  0  0  0  0  0
   51.9968  100.0044   31.2038 H   0  0  0  0  0  0
   51.2111  103.6675   29.1084 H   0  0  0  0  0  0
   50.5292  102.4255   27.1633 H   0  0  0  0  0  0
   49.5790  101.3925   25.4117 H   0  0  0  0  0  0
   49.2360   99.5029   23.8411 H   0  0  0  0  0  0
   50.9323   97.6323   26.9993 H   0  0  0  0  0  0
   53.1981  101.1792   32.1442 H   0  0  0  0  0  0
   54.0775  101.9519   34.0828 H   0  0  0  0  0  0
   55.7093  102.7969   32.6450 H   0  0  0  0  0  0
   54.6357  103.9087   31.8786 H   0  0  0  0  0  0
   55.6423  105.2689   32.9745 H   0  0  0  0  0  0
   52.5744  104.5710   33.9131 H   0  0  0  0  0  0
   53.3712  103.9022   35.2984 H   0  0  0  0  0  0
   50.4490  104.9088   34.9053 H   0  0  0  0  0  0
   48.2858  103.9575   35.6230 H   0  0  0  0  0  0
   48.0757  101.5280   36.0089 H   0  0  0  0  0  0
   50.0250  100.0428   35.6928 H   0  0  0  0  0  0
   52.1901  100.9769   34.9977 H   0  0  0  0  0  0
  1  2  1  0  0  0
  1 27  1  0  0  0
  1 28  1  0  0  0
  1 29  1  0  0  0
  2  3  1  0  0  0
  3  4  2  0  0  0
  3  8  1  0  0  0
  4  5  1  0  0  0
  4 30  1  0  0  0
  5  6  2  0  0  0
  5 14  1  0  0  0
  6  7  1  0  0  0
  6 31  1  0  0  0
  7  8  2  0  0  0
  7 32  1  0  0  0
  8  9  1  0  0  0
  9 10  2  0  0  0
  9 13  1  0  0  0
 10 11  1  0  0  0
 10 33  1  0  0  0
 11 12  1  0  0  0
 11 34  1  0  0  0
 12 13  2  0  0  0
 13 35  1  0  0  0
 14 15  2  0  0  0
 14 16  1  0  0  0
 16 17  1  0  0  0
 16 36  1  0  0  0
 17 18  1  0  0  0
 17 20  1  0  0  0
 17 37  1  0  0  0
 18 19  1  0  0  0
 18 38  1  0  0  0
 18 39  1  0  0  0
 19 40  1  0  0  0
 20 21  1  0  0  0
 20 41  1  0  0  0
 20 42  1  0  0  0
 21 22  2  0  0  0
 21 26  1  0  0  0
 22 23  1  0  0  0
 22 43  1  0  0  0
 23 24  2  0  0  0
 23 44  1  0  0  0
 24 25  1  0  0  0
 24 45  1  0  0  0
 25 26  2  0  0  0
 25 46  1  0  0  0
 26 47  1  0  0  0
M  END
> <s_m_entry_id>
27855

> <s_m_entry_name>
dock_pv.16

> <s_m_Source_Path>
/home/csk/Desktop/cluster/DUD-E-result/rock1

> <s_m_Source_File>
dock_pv.maegz

> <i_m_Source_File_Index>
16

> <chembl_id>
CHEMBL4112104

> <chembl_pref_name>
None

> <i_lp_mmshare_version>
53161

> <r_lp_tautomer_probability>
0.5

> <s_lp_Force_Field>
OPLS_2005

> <r_lp_Energy>
22.015581

> <b_lp_Chiralities_Consistent>
1

> <s_lp_Variant>
CHEMBL3231_lig708-1

> <s_i_glide_gridfile>
glide-grid_2etr

> <i_i_glide_lignum>
1007

> <i_i_glide_rotatable_bonds>
9

> <r_i_docking_score>
-9.05732792029568

> <r_i_glide_ligand_efficiency>
-0.348358766165219

> <r_i_glide_ligand_efficiency_sa>
-1.03201147403891

> <r_i_glide_ligand_efficiency_ln>
-2.1270837425645

> <r_i_glide_gscore>
-9.05732792029568

> <r_i_glide_lipo>
-2.90852794389008

> <r_i_glide_hbond>
-0.960549850341889

> <r_i_glide_metal>
0

> <r_i_glide_rewards>
-1.9777809514815

> <r_i_glide_evdw>
-42.6144981384277

> <r_i_glide_ecoul>
-11.1352338790894

> <r_i_glide_erotb>
0.648715347840463

> <r_i_glide_esite>
-0.0581745336378912

> <r_i_glide_emodel>
-79.4988559538888

> <r_i_glide_energy>
-53.7497320175171

> <r_i_glide_einternal>
8.78420734405518

> <i_i_glide_confnum>
61

> <i_i_glide_posenum>
231

> <r_i_glide_eff_state_penalty>
0

> <s_user_duplicate_titles>
CHEMBL3231_lig708

> <i_f3d_flags>
0

> <s_m_subgroup_title>
dock_pv

> <s_m_subgroupid>
dock_pv

> <b_m_subgroup_collapsed>
1

$$$$
CHEMBL3231_lig695
                    3D
 Schrodinger Suite 2021-1.
 46 48  0  0  1  0            999 V2000
   51.4775   97.7480   30.4152 C   0  0  0  0  0  0
   51.2574   98.4671   29.2065 O   0  0  0  0  0  0
   51.3194   99.8503   29.1998 C   0  0  0  0  0  0
   51.7742  100.5910   30.3050 C   0  0  0  0  0  0
   51.7573  101.9940   30.2993 C   0  0  0  0  0  0
   51.2736  102.6563   29.1706 C   0  0  0  0  0  0
   50.8461  101.9380   28.0626 C   0  0  0  0  0  0
   50.8808  100.5375   28.0489 C   0  0  0  0  0  0
   50.4374   99.8554   26.7878 C   0  0  0  0  0  0
   49.8548  100.4420   25.6672 C   0  0  0  0  0  0
   49.6444   99.4382   24.7707 N   0  0  0  0  0  0
   50.0435   98.2506   25.2142 N   0  0  0  0  0  0
   50.5216   98.4998   26.4092 C   0  0  0  0  0  0
   52.2214  102.8007   31.4865 C   0  0  0  0  0  0
   51.7145  103.9028   31.7097 O   0  0  0  0  0  0
   53.1904  102.2494   32.2415 N   0  0  0  0  0  0
   53.8897  102.8482   33.3870 C   0  0  0  0  0  0
   53.0275  103.6398   34.4057 C   0  0  0  0  0  0
   51.7043  103.0091   34.8460 C   0  0  0  0  0  0
   51.5381  101.6225   34.9398 C   0  0  0  0  0  0
   50.3095  101.0871   35.3251 C   0  0  0  0  0  0
   49.2421  101.9320   35.6287 C   0  0  0  0  0  0
   49.3954  103.3212   35.5539 C   0  0  0  0  0  0
   50.6334  103.8484   35.1644 C   0  0  0  0  0  0
   48.2259  104.2398   35.8941 C   0  0  0  0  0  0
   48.0431  104.2382   37.2122 F   0  0  0  0  0  0
   48.4426  105.5005   35.5122 F   0  0  0  0  0  0
   47.1127  103.8149   35.2977 F   0  0  0  0  0  0
   51.2565   96.6935   30.2510 H   0  0  0  0  0  0
   52.5146   97.8265   30.7421 H   0  0  0  0  0  0
   50.8213   98.0904   31.2163 H   0  0  0  0  0  0
   52.1168  100.0787   31.1873 H   0  0  0  0  0  0
   51.2481  103.7350   29.1337 H   0  0  0  0  0  0
   50.5002  102.4929   27.2039 H   0  0  0  0  0  0
   49.5778  101.4589   25.4300 H   0  0  0  0  0  0
   49.2407   99.5640   23.8472 H   0  0  0  0  0  0
   50.9385   97.6987   27.0001 H   0  0  0  0  0  0
   53.5809  101.3784   31.9057 H   0  0  0  0  0  0
   54.6784  103.4919   32.9882 H   0  0  0  0  0  0
   54.3572  102.0034   33.8975 H   0  0  0  0  0  0
   52.8114  104.6125   33.9612 H   0  0  0  0  0  0
   53.6202  103.8535   35.2947 H   0  0  0  0  0  0
   52.3546  100.9539   34.7065 H   0  0  0  0  0  0
   50.1848  100.0185   35.3941 H   0  0  0  0  0  0
   48.2990  101.5038   35.9314 H   0  0  0  0  0  0
   50.7705  104.9192   35.1045 H   0  0  0  0  0  0
  1  2  1  0  0  0
  1 29  1  0  0  0
  1 30  1  0  0  0
  1 31  1  0  0  0
  2  3  1  0  0  0
  3  4  2  0  0  0
  3  8  1  0  0  0
  4  5  1  0  0  0
  4 32  1  0  0  0
  5  6  2  0  0  0
  5 14  1  0  0  0
  6  7  1  0  0  0
  6 33  1  0  0  0
  7  8  2  0  0  0
  7 34  1  0  0  0
  8  9  1  0  0  0
  9 10  2  0  0  0
  9 13  1  0  0  0
 10 11  1  0  0  0
 10 35  1  0  0  0
 11 12  1  0  0  0
 11 36  1  0  0  0
 12 13  2  0  0  0
 13 37  1  0  0  0
 14 15  2  0  0  0
 14 16  1  0  0  0
 16 17  1  0  0  0
 16 38  1  0  0  0
 17 18  1  0  0  0
 17 39  1  0  0  0
 17 40  1  0  0  0
 18 19  1  0  0  0
 18 41  1  0  0  0
 18 42  1  0  0  0
 19 20  2  0  0  0
 19 24  1  0  0  0
 20 21  1  0  0  0
 20 43  1  0  0  0
 21 22  2  0  0  0
 21 44  1  0  0  0
 22 23  1  0  0  0
 22 45  1  0  0  0
 23 24  2  0  0  0
 23 25  1  0  0  0
 24 46  1  0  0  0
 25 26  1  0  0  0
 25 27  1  0  0  0
 25 28  1  0  0  0
M  END
> <s_m_entry_id>
27856

> <s_m_entry_name>
dock_pv.17

> <s_m_Source_Path>
/home/csk/Desktop/cluster/DUD-E-result/rock1

> <s_m_Source_File>
dock_pv.maegz

> <i_m_Source_File_Index>
17

> <chembl_id>
CHEMBL3928122

> <chembl_pref_name>
None

> <i_lp_mmshare_version>
53161

> <r_lp_tautomer_probability>
0.5

> <s_lp_Force_Field>
OPLS_2005

> <r_lp_Energy>
23.869404

> <b_lp_Chiralities_Consistent>
1

> <s_lp_Variant>
CHEMBL3231_lig695-1

> <s_i_glide_gridfile>
glide-grid_2etr

> <i_i_glide_lignum>
990

> <i_i_glide_rotatable_bonds>
8

> <r_i_docking_score>
-9.05409689374571

> <r_i_glide_ligand_efficiency>
-0.323360603348061

> <r_i_glide_ligand_efficiency_sa>
-0.981913240975137

> <r_i_glide_ligand_efficiency_ln>
-2.08995140291277

> <r_i_glide_gscore>
-9.05409689374571

> <r_i_glide_lipo>
-3.14893504766386

> <r_i_glide_hbond>
-0.693238933073718

> <r_i_glide_metal>
0

> <r_i_glide_rewards>
-2.12962071176031

> <r_i_glide_evdw>
-45.0690650939941

> <r_i_glide_ecoul>
-8.71515560150146

> <r_i_glide_erotb>
0.540024526207103

> <r_i_glide_esite>
-0.0616001325300015

> <r_i_glide_emodel>
-82.1093081379617

> <r_i_glide_energy>
-53.7842206954956

> <r_i_glide_einternal>
4.07172060012817

> <i_i_glide_confnum>
26

> <i_i_glide_posenum>
84

> <r_i_glide_eff_state_penalty>
0

> <s_user_duplicate_titles>
CHEMBL3231_lig695

> <i_f3d_flags>
0

> <s_m_subgroup_title>
dock_pv

> <s_m_subgroupid>
dock_pv

> <b_m_subgroup_collapsed>
1

$$$$
CHEMBL3231_lig718
                    3D
 Schrodinger Suite 2021-1.
 50 52  0  0  1  0            999 V2000
   47.6435  104.4876   36.2514 C   0  0  0  0  0  0
   48.9576  104.5425   35.7105 O   0  0  0  0  0  0
   49.6007  103.3589   35.4098 C   0  0  0  0  0  0
   49.0351  102.0861   35.5839 C   0  0  0  0  0  0
   49.7426  100.9465   35.2134 C   0  0  0  0  0  0
   51.0202  101.0560   34.6726 C   0  0  0  0  0  0
   51.6785   99.9296   34.3119 F   0  0  0  0  0  0
   51.6100  102.3155   34.4953 C   0  0  0  0  0  0
   50.8918  103.4569   34.8839 C   0  0  0  0  0  0
   53.0126  102.4086   33.8690 C   0  0  2  0  0  0
   53.8240  103.6802   34.2159 C   0  0  0  0  0  0
   52.9659  102.1135   32.4320 N   0  0  0  0  0  0
   52.3719  102.8776   31.4920 C   0  0  0  0  0  0
   52.0429  104.0379   31.7281 O   0  0  0  0  0  0
   52.0036  102.1991   30.1813 C   0  0  0  0  0  0
   52.4264  100.8824   29.9277 C   0  0  0  0  0  0
   52.0024  100.1936   28.7990 C   0  0  0  0  0  0
   51.1352  100.7888   27.8845 C   0  0  0  0  0  0
   50.7531  102.1118   28.1004 C   0  0  0  0  0  0
   51.1886  102.8403   29.2167 C   0  0  0  0  0  0
   50.8250  104.1647   29.3946 O   0  0  0  0  0  0
   50.0440  104.8488   28.4176 C   0  0  0  0  0  0
   50.6120  100.0729   26.6808 C   0  0  0  0  0  0
   50.0429  100.6599   25.5606 C   0  0  0  0  0  0
   49.7189   99.6415   24.7206 N   0  0  0  0  0  0
   50.0368   98.4476   25.2113 N   0  0  0  0  0  0
   50.5339   98.6881   26.4040 C   0  0  0  0  0  0
   50.9238   97.5131   27.2599 C   0  0  0  0  0  0
   47.2813  105.5006   36.4107 H   0  0  0  0  0  0
   46.9436  103.9911   35.5767 H   0  0  0  0  0  0
   47.6435  103.9750   37.2136 H   0  0  0  0  0  0
   48.0450  101.9608   35.9948 H   0  0  0  0  0  0
   49.2983   99.9718   35.3427 H   0  0  0  0  0  0
   51.3135  104.4410   34.7455 H   0  0  0  0  0  0
   53.5883  101.5903   34.3073 H   0  0  0  0  0  0
   53.9340  103.7958   35.2938 H   0  0  0  0  0  0
   54.8275  103.6230   33.7916 H   0  0  0  0  0  0
   53.3718  104.5935   33.8282 H   0  0  0  0  0  0
   53.2352  101.1772   32.1727 H   0  0  0  0  0  0
   53.0790  100.3528   30.6066 H   0  0  0  0  0  0
   52.3604   99.1887   28.6611 H   0  0  0  0  0  0
   50.0963  102.5737   27.3822 H   0  0  0  0  0  0
   49.9719  105.9008   28.6923 H   0  0  0  0  0  0
   50.4880  104.8048   27.4222 H   0  0  0  0  0  0
   49.0307  104.4486   28.3865 H   0  0  0  0  0  0
   49.8409  101.6843   25.2919 H   0  0  0  0  0  0
   49.2866   99.7580   23.8076 H   0  0  0  0  0  0
   50.4574   97.5505   28.2449 H   0  0  0  0  0  0
   50.6472   96.5636   26.8047 H   0  0  0  0  0  0
   52.0015   97.5026   27.4048 H   0  0  0  0  0  0
  1  2  1  0  0  0
  1 29  1  0  0  0
  1 30  1  0  0  0
  1 31  1  0  0  0
  2  3  1  0  0  0
  3  4  2  0  0  0
  3  9  1  0  0  0
  4  5  1  0  0  0
  4 32  1  0  0  0
  5  6  2  0  0  0
  5 33  1  0  0  0
  6  7  1  0  0  0
  6  8  1  0  0  0
  8  9  2  0  0  0
  8 10  1  0  0  0
  9 34  1  0  0  0
 10 11  1  0  0  0
 10 12  1  0  0  0
 10 35  1  0  0  0
 11 36  1  0  0  0
 11 37  1  0  0  0
 11 38  1  0  0  0
 12 13  1  0  0  0
 12 39  1  0  0  0
 13 14  2  0  0  0
 13 15  1  0  0  0
 15 16  2  0  0  0
 15 20  1  0  0  0
 16 17  1  0  0  0
 16 40  1  0  0  0
 17 18  2  0  0  0
 17 41  1  0  0  0
 18 19  1  0  0  0
 18 23  1  0  0  0
 19 20  2  0  0  0
 19 42  1  0  0  0
 20 21  1  0  0  0
 21 22  1  0  0  0
 22 43  1  0  0  0
 22 44  1  0  0  0
 22 45  1  0  0  0
 23 24  2  0  0  0
 23 27  1  0  0  0
 24 25  1  0  0  0
 24 46  1  0  0  0
 25 26  1  0  0  0
 25 47  1  0  0  0
 26 27  2  0  0  0
 27 28  1  0  0  0
 28 48  1  0  0  0
 28 49  1  0  0  0
 28 50  1  0  0  0
M  END
> <s_m_entry_id>
27857

> <s_m_entry_name>
dock_pv.18

> <s_m_Source_Path>
/home/csk/Desktop/cluster/DUD-E-result/rock1

> <s_m_Source_File>
dock_pv.maegz

> <i_m_Source_File_Index>
18

> <chembl_id>
CHEMBL3950642

> <chembl_pref_name>
None

> <i_lp_mmshare_version>
53161

> <r_lp_tautomer_probability>
0.5

> <s_lp_Force_Field>
OPLS_2005

> <r_lp_Energy>
25.758788

> <b_lp_Chiralities_Consistent>
1

> <s_lp_Variant>
CHEMBL3231_lig718-1

> <s_i_glide_gridfile>
glide-grid_2etr

> <i_i_glide_lignum>
1021

> <i_i_glide_rotatable_bonds>
7

> <r_i_docking_score>
-9.04584017867916

> <r_i_glide_ligand_efficiency>
-0.323065720667113

> <r_i_glide_ligand_efficiency_sa>
-0.981017803479168

> <r_i_glide_ligand_efficiency_ln>
-2.08804551064772

> <r_i_glide_gscore>
-9.04584017867916

> <r_i_glide_lipo>
-3.50186532359074

> <r_i_glide_hbond>
-0.605137276785238

> <r_i_glide_metal>
0

> <r_i_glide_rewards>
-1.83254216239703

> <r_i_glide_evdw>
-47.5957946777344

> <r_i_glide_ecoul>
-7.54091644287109

> <r_i_glide_erotb>
0.462639497467991

> <r_i_glide_esite>
-0.0580077130567665

> <r_i_glide_emodel>
-79.3317249369035

> <r_i_glide_energy>
-55.1367111206055

> <r_i_glide_einternal>
9.14334583282471

> <i_i_glide_confnum>
69

> <i_i_glide_posenum>
300

> <r_i_glide_eff_state_penalty>
0

> <s_user_duplicate_titles>
CHEMBL3231_lig718

> <i_f3d_flags>
0

> <s_m_subgroup_title>
dock_pv

> <s_m_subgroupid>
dock_pv

> <b_m_subgroup_collapsed>
1

$$$$
CHEMBL3231_lig509
                    3D
 Schrodinger Suite 2021-1.
 39 41  0  0  1  0            999 V2000
   51.6156  100.5748   29.5086 C   0  0  0  0  0  0
   51.6431   99.1989   29.7351 C   0  0  0  0  0  0
   51.2434   98.3028   28.7482 C   0  0  0  0  0  0
   51.2235  101.0721   28.2579 C   0  0  0  0  0  0
   50.8331  100.1844   27.2273 C   0  0  0  0  0  0
   50.8429   98.7798   27.4813 C   0  0  0  0  0  0
   50.4417   97.9293   26.4272 C   0  0  0  0  0  0
   50.0430   98.3629   25.2110 N   0  0  0  0  0  0
   50.0432   99.6999   24.9905 C   0  0  0  0  0  0
   50.4252  100.6405   25.9469 C   0  0  0  0  0  0
   52.0017  101.3899   30.5816 N   0  0  0  0  0  0
   51.6287  102.6598   30.8475 C   0  0  0  0  0  0
   52.1987  103.2803   32.1336 C   0  0  1  0  0  0
   50.8432  103.3229   30.1657 O   0  0  0  0  0  0
   51.9596  102.3826   33.3656 C   0  0  0  0  0  0
   50.7043  102.3983   33.9878 C   0  0  0  0  0  0
   50.4459  101.5752   35.0811 C   0  0  0  0  0  0
   51.4431  100.7271   35.5548 C   0  0  0  0  0  0
   52.6926  100.6924   34.9406 C   0  0  0  0  0  0
   52.9505  101.5161   33.8474 C   0  0  0  0  0  0
   53.6472  103.7597   31.8919 C   0  0  0  0  0  0
   54.0463  104.7031   32.9146 N   0  0  0  0  0  0
   51.9500   98.8098   30.6959 H   0  0  0  0  0  0
   51.2429   97.2399   28.9439 H   0  0  0  0  0  0
   51.2208  102.1316   28.0503 H   0  0  0  0  0  0
   50.4420   96.8589   26.5747 H   0  0  0  0  0  0
   49.7192  100.0213   24.0111 H   0  0  0  0  0  0
   50.4048  101.6981   25.7266 H   0  0  0  0  0  0
   52.5276  100.9249   31.3063 H   0  0  0  0  0  0
   51.6268  104.1893   32.3137 H   0  0  0  0  0  0
   49.9218  103.0461   33.6222 H   0  0  0  0  0  0
   49.4774  101.5934   35.5593 H   0  0  0  0  0  0
   51.2474  100.0914   36.4062 H   0  0  0  0  0  0
   53.4617  100.0311   35.3116 H   0  0  0  0  0  0
   53.9257  101.4718   33.3864 H   0  0  0  0  0  0
   54.3545  102.9307   31.8530 H   0  0  0  0  0  0
   53.7302  104.2733   30.9312 H   0  0  0  0  0  0
   54.9870  104.9984   32.6739 H   0  0  0  0  0  0
   53.5015  105.5618   32.8148 H   0  0  0  0  0  0
  1  2  2  0  0  0
  1  4  1  0  0  0
  1 11  1  0  0  0
  2  3  1  0  0  0
  2 23  1  0  0  0
  3  6  2  0  0  0
  3 24  1  0  0  0
  4  5  2  0  0  0
  4 25  1  0  0  0
  5  6  1  0  0  0
  5 10  1  0  0  0
  6  7  1  0  0  0
  7  8  2  0  0  0
  7 26  1  0  0  0
  8  9  1  0  0  0
  9 10  2  0  0  0
  9 27  1  0  0  0
 10 28  1  0  0  0
 11 12  1  0  0  0
 11 29  1  0  0  0
 12 13  1  0  0  0
 12 14  2  0  0  0
 13 15  1  0  0  0
 13 21  1  0  0  0
 13 30  1  0  0  0
 15 16  2  0  0  0
 15 20  1  0  0  0
 16 17  1  0  0  0
 16 31  1  0  0  0
 17 18  2  0  0  0
 17 32  1  0  0  0
 18 19  1  0  0  0
 18 33  1  0  0  0
 19 20  2  0  0  0
 19 34  1  0  0  0
 20 35  1  0  0  0
 21 22  1  0  0  0
 21 36  1  0  0  0
 21 37  1  0  0  0
 22 38  1  0  0  0
 22 39  1  0  0  0
M  END
> <s_m_entry_id>
27858

> <s_m_entry_name>
dock_pv.19

> <s_m_Source_Path>
/home/csk/Desktop/cluster/DUD-E-result/rock1

> <s_m_Source_File>
dock_pv.maegz

> <i_m_Source_File_Index>
19

> <chembl_id>
CHEMBL3770836

> <chembl_pref_name>
None

> <i_lp_mmshare_version>
53161

> <r_lp_tautomer_probability>
1

> <s_lp_Force_Field>
OPLS_2005

> <r_lp_Energy>
17.905532

> <b_lp_Chiralities_Consistent>
1

> <s_lp_Variant>
CHEMBL3231_lig509-2

> <s_i_glide_gridfile>
glide-grid_2etr

> <i_i_glide_lignum>
722

> <i_i_glide_rotatable_bonds>
5

> <r_i_docking_score>
-9.04281912190563

> <r_i_glide_ligand_efficiency>
-0.411037232813892

> <r_i_glide_ligand_efficiency_sa>
-1.15174249152159

> <r_i_glide_ligand_efficiency_ln>
-2.21039483823553

> <r_i_glide_gscore>
-9.04281912190563

> <r_i_glide_lipo>
-2.79109365695327

> <r_i_glide_hbond>
-0.700649715279761

> <r_i_glide_metal>
0

> <r_i_glide_rewards>
-2.78699987523159

> <r_i_glide_evdw>
-37.2719459533691

> <r_i_glide_ecoul>
-8.51657009124756

> <r_i_glide_erotb>
0.429757349523464

> <r_i_glide_esite>
-0.0527504126088853

> <r_i_glide_emodel>
-69.9525450350557

> <r_i_glide_energy>
-45.7885160446167

> <r_i_glide_einternal>
6.14410209655762

> <i_i_glide_confnum>
3

> <i_i_glide_posenum>
371

> <r_i_glide_eff_state_penalty>
0

> <s_user_duplicate_titles>
CHEMBL3231_lig509

> <i_f3d_flags>
0

> <s_m_subgroup_title>
dock_pv

> <s_m_subgroupid>
dock_pv

> <b_m_subgroup_collapsed>
1

$$$$
CHEMBL3231_lig650
                    3D
 Schrodinger Suite 2021-1.
 40 42  0  0  1  0            999 V2000
   51.4220   97.6840   30.4337 C   0  0  0  0  0  0
   51.2438   98.4265   29.2319 O   0  0  0  0  0  0
   51.3481   99.8078   29.2407 C   0  0  0  0  0  0
   51.7315  100.5377   30.3824 C   0  0  0  0  0  0
   51.7724  101.9421   30.3784 C   0  0  0  0  0  0
   51.4591  102.6115   29.1953 C   0  0  0  0  0  0
   51.0871  101.9033   28.0613 C   0  0  0  0  0  0
   51.0155  100.5089   28.0651 C   0  0  0  0  0  0
   50.5362   99.8603   26.7993 C   0  0  0  0  0  0
   50.5754   98.5116   26.3929 C   0  0  0  0  0  0
   50.0432   98.2957   25.2111 N   0  0  0  0  0  0
   49.6496   99.4999   24.8109 N   0  0  0  0  0  0
   49.9221  100.4794   25.7150 C   0  0  0  0  0  0
   52.0704  102.7475   31.6217 C   0  0  0  0  0  0
   51.6442  103.9010   31.7296 O   0  0  0  0  0  0
   52.7861  102.1414   32.5855 N   0  0  0  0  0  0
   53.0610  102.7186   33.9051 C   0  0  0  0  0  0
   51.8116  103.0389   34.7278 C   0  0  0  0  0  0
   51.5697  104.3427   35.1771 C   0  0  0  0  0  0
   50.4209  104.6329   35.9156 C   0  0  0  0  0  0
   50.1987  105.8964   36.3424 F   0  0  0  0  0  0
   49.5027  103.6228   36.2096 C   0  0  0  0  0  0
   48.3923  103.9046   36.9304 F   0  0  0  0  0  0
   49.7336  102.3231   35.7540 C   0  0  0  0  0  0
   48.8431  101.3386   36.0105 F   0  0  0  0  0  0
   50.8857  102.0326   35.0239 C   0  0  0  0  0  0
   51.2431   96.6285   30.2322 H   0  0  0  0  0  0
   52.4392   97.7763   30.8155 H   0  0  0  0  0  0
   50.7150   97.9894   31.2068 H   0  0  0  0  0  0
   51.9633  100.0122   31.2960 H   0  0  0  0  0  0
   51.4864  103.6919   29.1444 H   0  0  0  0  0  0
   50.8416  102.4675   27.1743 H   0  0  0  0  0  0
   50.9904   97.6907   26.9605 H   0  0  0  0  0  0
   49.2076   99.6518   23.9074 H   0  0  0  0  0  0
   49.6459  101.5029   25.5132 H   0  0  0  0  0  0
   53.2610  101.2826   32.3525 H   0  0  0  0  0  0
   53.6861  103.6052   33.7818 H   0  0  0  0  0  0
   53.6651  102.0082   34.4706 H   0  0  0  0  0  0
   52.2654  105.1394   34.9468 H   0  0  0  0  0  0
   51.0522  101.0221   34.6772 H   0  0  0  0  0  0
  1  2  1  0  0  0
  1 27  1  0  0  0
  1 28  1  0  0  0
  1 29  1  0  0  0
  2  3  1  0  0  0
  3  4  2  0  0  0
  3  8  1  0  0  0
  4  5  1  0  0  0
  4 30  1  0  0  0
  5  6  2  0  0  0
  5 14  1  0  0  0
  6  7  1  0  0  0
  6 31  1  0  0  0
  7  8  2  0  0  0
  7 32  1  0  0  0
  8  9  1  0  0  0
  9 10  1  0  0  0
  9 13  2  0  0  0
 10 11  2  0  0  0
 10 33  1  0  0  0
 11 12  1  0  0  0
 12 13  1  0  0  0
 12 34  1  0  0  0
 13 35  1  0  0  0
 14 15  2  0  0  0
 14 16  1  0  0  0
 16 17  1  0  0  0
 16 36  1  0  0  0
 17 18  1  0  0  0
 17 37  1  0  0  0
 17 38  1  0  0  0
 18 19  2  0  0  0
 18 26  1  0  0  0
 19 20  1  0  0  0
 19 39  1  0  0  0
 20 21  1  0  0  0
 20 22  2  0  0  0
 22 23  1  0  0  0
 22 24  1  0  0  0
 24 25  1  0  0  0
 24 26  2  0  0  0
 26 40  1  0  0  0
M  END
> <s_m_entry_id>
27859

> <s_m_entry_name>
dock_pv.20

> <s_m_Source_Path>
/home/csk/Desktop/cluster/DUD-E-result/rock1

> <s_m_Source_File>
dock_pv.maegz

> <i_m_Source_File_Index>
20

> <chembl_id>
CHEMBL3953239

> <chembl_pref_name>
None

> <i_lp_mmshare_version>
53161

> <r_lp_tautomer_probability>
0.5

> <s_lp_Force_Field>
OPLS_2005

> <r_lp_Energy>
20.702974

> <b_lp_Chiralities_Consistent>
1

> <s_lp_Variant>
CHEMBL3231_lig650-1

> <s_i_glide_gridfile>
glide-grid_2etr

> <i_i_glide_lignum>
939

> <i_i_glide_rotatable_bonds>
6

> <r_i_docking_score>
-9.03544013537661

> <r_i_glide_ligand_efficiency>
-0.347516928283716

> <r_i_glide_ligand_efficiency_sa>
-1.02951753262743

> <r_i_glide_ligand_efficiency_ln>
-2.12194346809594

> <r_i_glide_gscore>
-9.03544013537661

> <r_i_glide_lipo>
-2.56225030512695

> <r_i_glide_hbond>
-0.678873808247647

> <r_i_glide_metal>
0

> <r_i_glide_rewards>
-2.86949168678066

> <r_i_glide_evdw>
-40.408203125

> <r_i_glide_ecoul>
-8.39837551116943

> <r_i_glide_erotb>
0.411561174902362

> <r_i_glide_esite>
-0.0562190271983022

> <r_i_glide_emodel>
-74.7610194439571

> <r_i_glide_energy>
-48.8065786361694

> <r_i_glide_einternal>
2.47502374649048

> <i_i_glide_confnum>
9

> <i_i_glide_posenum>
337

> <r_i_glide_eff_state_penalty>
0

> <s_user_duplicate_titles>
CHEMBL3231_lig650

> <i_f3d_flags>
0

> <s_m_subgroup_title>
dock_pv

> <s_m_subgroupid>
dock_pv

> <b_m_subgroup_collapsed>
1

$$$$
CHEMBL3231_lig415
                    3D
 Schrodinger Suite 2021-1.
 46 50  0  0  1  0            999 V2000
   51.2426   99.9247   28.2165 C   0  0  0  0  0  0
   51.6430   98.8203   28.9841 C   0  0  0  0  0  0
   52.0423   98.9786   30.3121 C   0  0  0  0  0  0
   51.2726  101.2037   28.7879 C   0  0  0  0  0  0
   51.6663  101.3543   30.1195 C   0  0  0  0  0  0
   52.0430  100.2454   30.8847 C   0  0  0  0  0  0
   52.3752  100.3635   32.2416 N   0  0  0  0  0  0
   52.3730  101.5190   32.8006 C   0  0  0  0  0  0
   52.0425  102.6410   32.0895 N   0  0  0  0  0  0
   51.6382  102.7009   30.7994 C   0  0  0  0  0  0
   51.2431  103.7536   30.3071 O   0  0  0  0  0  0
   50.7336   99.7366   26.8262 C   0  0  0  0  0  0
   52.6973  101.6914   34.2858 C   0  0  2  0  0  0
   53.9292  100.9063   34.7938 C   0  0  0  0  0  0
   53.4478   99.8621   35.6869 N   0  0  2  0  0  0
   52.2906  100.4530   36.3325 C   0  0  0  0  0  0
   51.5621  101.2111   35.2225 C   0  0  1  0  0  0
   50.5564  102.2703   35.6826 C   0  0  0  0  0  0
   50.9859  103.3834   36.4135 C   0  0  0  0  0  0
   50.0700  104.3529   36.8168 C   0  0  0  0  0  0
   48.7240  104.2111   36.4861 C   0  0  0  0  0  0
   48.2874  103.1075   35.7574 C   0  0  0  0  0  0
   49.2010  102.1345   35.3633 C   0  0  0  0  0  0
   50.5444   98.5342   26.1199 C   0  0  0  0  0  0
   50.0430   98.7030   24.9206 N   0  0  0  0  0  0
   49.8924  100.0211   24.8109 N   0  0  0  0  0  0
   50.3008  100.7011   25.9239 C   0  0  0  0  0  0
   51.6278   97.8262   28.5649 H   0  0  0  0  0  0
   52.3311   98.1226   30.9039 H   0  0  0  0  0  0
   50.9633  102.0657   28.2132 H   0  0  0  0  0  0
   52.0786  103.5316   32.5563 H   0  0  0  0  0  0
   52.9146  102.7426   34.4809 H   0  0  0  0  0  0
   54.5402  100.4882   33.9904 H   0  0  0  0  0  0
   54.5749  101.5636   35.3800 H   0  0  0  0  0  0
   54.1585   99.6024   36.3585 H   0  0  0  0  0  0
   51.6436   99.7178   36.8107 H   0  0  0  0  0  0
   52.5862  101.1295   37.1366 H   0  0  0  0  0  0
   50.9603  100.4417   34.7304 H   0  0  0  0  0  0
   52.0296  103.5000   36.6667 H   0  0  0  0  0  0
   50.4044  105.2125   37.3791 H   0  0  0  0  0  0
   48.0108  104.9604   36.7970 H   0  0  0  0  0  0
   47.2409  102.9993   35.5109 H   0  0  0  0  0  0
   48.8497  101.2760   34.8110 H   0  0  0  0  0  0
   50.7636   97.5423   26.4862 H   0  0  0  0  0  0
   49.5095  100.4401   23.9707 H   0  0  0  0  0  0
   50.2313  101.7780   25.9758 H   0  0  0  0  0  0
  1  2  2  0  0  0
  1  4  1  0  0  0
  1 12  1  0  0  0
  2  3  1  0  0  0
  2 28  1  0  0  0
  3  6  2  0  0  0
  3 29  1  0  0  0
  4  5  2  0  0  0
  4 30  1  0  0  0
  5  6  1  0  0  0
  5 10  1  0  0  0
  6  7  1  0  0  0
  7  8  2  0  0  0
  8  9  1  0  0  0
  8 13  1  0  0  0
  9 10  1  0  0  0
  9 31  1  0  0  0
 10 11  2  0  0  0
 12 27  2  0  0  0
 12 24  1  0  0  0
 13 14  1  0  0  0
 13 17  1  0  0  0
 13 32  1  0  0  0
 14 15  1  0  0  0
 14 33  1  0  0  0
 14 34  1  0  0  0
 15 16  1  0  0  0
 15 35  1  0  0  0
 16 17  1  0  0  0
 16 36  1  0  0  0
 16 37  1  0  0  0
 17 18  1  0  0  0
 17 38  1  0  0  0
 18 19  2  0  0  0
 18 23  1  0  0  0
 19 20  1  0  0  0
 19 39  1  0  0  0
 20 21  2  0  0  0
 20 40  1  0  0  0
 21 22  1  0  0  0
 21 41  1  0  0  0
 22 23  2  0  0  0
 22 42  1  0  0  0
 23 43  1  0  0  0
 24 44  1  0  0  0
 24 25  2  0  0  0
 25 26  1  0  0  0
 26 45  1  0  0  0
 26 27  1  0  0  0
 27 46  1  0  0  0
M  END
> <s_m_entry_id>
27860

> <s_m_entry_name>
dock_pv.21

> <s_m_Source_Path>
/home/csk/Desktop/cluster/DUD-E-result/rock1

> <s_m_Source_File>
dock_pv.maegz

> <i_m_Source_File_Index>
21

> <chembl_id>
CHEMBL2334292

> <chembl_pref_name>
None

> <i_lp_mmshare_version>
53161

> <r_lp_tautomer_probability>
0.469196969327016

> <s_lp_Force_Field>
OPLS_2005

> <r_lp_Energy>
42.22593

> <b_lp_Chiralities_Consistent>
1

> <s_lp_Variant>
CHEMBL3231_lig415-1

> <s_i_glide_gridfile>
glide-grid_2etr

> <i_i_glide_lignum>
595

> <i_i_glide_rotatable_bonds>
3

> <r_i_docking_score>
-9.01824717028162

> <r_i_glide_ligand_efficiency>
-0.334009154454875

> <r_i_glide_ligand_efficiency_sa>
-1.00202746226378

> <r_i_glide_ligand_efficiency_ln>
-2.09929926381719

> <r_i_glide_gscore>
-9.01824717028162

> <r_i_glide_lipo>
-3.40686980807551

> <r_i_glide_hbond>
-0.536276335226565

> <r_i_glide_metal>
0

> <r_i_glide_rewards>
-2.19221504545454

> <r_i_glide_evdw>
-45.1140670776367

> <r_i_glide_ecoul>
-5.96975946426392

> <r_i_glide_erotb>
0.314714213906406

> <r_i_glide_esite>
-0.0464329219099829

> <r_i_glide_emodel>
-79.9896411371484

> <r_i_glide_energy>
-51.0838265419006

> <r_i_glide_einternal>
0.0845144838094711

> <i_i_glide_confnum>
2

> <i_i_glide_posenum>
239

> <r_i_glide_eff_state_penalty>
0

> <s_user_duplicate_titles>
CHEMBL3231_lig415,CHEMBL3231_lig415

> <i_f3d_flags>
0

> <s_m_subgroup_title>
dock_pv

> <s_m_subgroupid>
dock_pv

> <b_m_subgroup_collapsed>
1

$$$$
CHEMBL3231_lig797
                    3D
 Schrodinger Suite 2021-1.
 43 45  0  0  1  0            999 V2000
   51.4551   97.6845   30.4459 C   0  0  0  0  0  0
   51.2441   98.3950   29.2298 O   0  0  0  0  0  0
   51.3694   99.7753   29.1999 C   0  0  0  0  0  0
   51.7900  100.5301   30.3132 C   0  0  0  0  0  0
   51.8327  101.9342   30.2664 C   0  0  0  0  0  0
   51.4885  102.5754   29.0745 C   0  0  0  0  0  0
   51.0915  101.8421   27.9707 C   0  0  0  0  0  0
   51.0182  100.4477   28.0111 C   0  0  0  0  0  0
   50.5326   99.7696   26.7619 C   0  0  0  0  0  0
   50.5730   98.4101   26.3893 C   0  0  0  0  0  0
   50.0433   98.1702   25.2111 N   0  0  0  0  0  0
   49.6503   99.3664   24.7821 N   0  0  0  0  0  0
   49.9134  100.3661   25.6682 C   0  0  0  0  0  0
   52.1609  102.7791   31.4696 C   0  0  0  0  0  0
   51.6599  103.9003   31.5739 O   0  0  0  0  0  0
   52.9964  102.2581   32.3865 N   0  0  0  0  0  0
   53.4688  102.9652   33.5889 C   0  0  0  0  0  0
   52.3797  103.6306   34.4355 C   0  0  0  0  0  0
   52.4095  105.0070   34.6689 C   0  0  0  0  0  0
   51.3707  105.6209   35.3659 C   0  0  0  0  0  0
   50.3007  104.8702   35.8501 C   0  0  0  0  0  0
   49.2967  105.5254   36.4852 F   0  0  0  0  0  0
   50.2730  103.4765   35.6588 C   0  0  0  0  0  0
   51.3166  102.8729   34.9393 C   0  0  0  0  0  0
   49.1259  102.6229   36.1341 C   0  0  0  0  0  0
   48.8452  101.5465   35.6107 O   0  0  0  0  0  0
   48.4432  103.1054   37.2088 O   0  0  0  0  0  0
   51.2375   96.6311   30.2870 H   0  0  0  0  0  0
   52.4917   97.7586   30.7767 H   0  0  0  0  0  0
   50.7954   98.0398   31.2406 H   0  0  0  0  0  0
   52.0404  100.0347   31.2384 H   0  0  0  0  0  0
   51.5198  103.6555   28.9934 H   0  0  0  0  0  0
   50.8310  102.3832   27.0728 H   0  0  0  0  0  0
   50.9898   97.6023   26.9740 H   0  0  0  0  0  0
   49.2122   99.5028   23.8752 H   0  0  0  0  0  0
   49.6432  101.3860   25.4425 H   0  0  0  0  0  0
   53.4934  101.4163   32.1397 H   0  0  0  0  0  0
   54.2207  103.6984   33.2834 H   0  0  0  0  0  0
   53.9995  102.2493   34.2168 H   0  0  0  0  0  0
   53.2083  105.6142   34.2663 H   0  0  0  0  0  0
   51.3901  106.6906   35.5130 H   0  0  0  0  0  0
   51.3025  101.8075   34.7448 H   0  0  0  0  0  0
   47.7637  102.4631   37.4538 H   0  0  0  0  0  0
  1  2  1  0  0  0
  1 28  1  0  0  0
  1 29  1  0  0  0
  1 30  1  0  0  0
  2  3  1  0  0  0
  3  4  2  0  0  0
  3  8  1  0  0  0
  4  5  1  0  0  0
  4 31  1  0  0  0
  5  6  2  0  0  0
  5 14  1  0  0  0
  6  7  1  0  0  0
  6 32  1  0  0  0
  7  8  2  0  0  0
  7 33  1  0  0  0
  8  9  1  0  0  0
  9 10  1  0  0  0
  9 13  2  0  0  0
 10 11  2  0  0  0
 10 34  1  0  0  0
 11 12  1  0  0  0
 12 13  1  0  0  0
 12 35  1  0  0  0
 13 36  1  0  0  0
 14 15  2  0  0  0
 14 16  1  0  0  0
 16 17  1  0  0  0
 16 37  1  0  0  0
 17 18  1  0  0  0
 17 38  1  0  0  0
 17 39  1  0  0  0
 18 19  2  0  0  0
 18 24  1  0  0  0
 19 20  1  0  0  0
 19 40  1  0  0  0
 20 21  2  0  0  0
 20 41  1  0  0  0
 21 22  1  0  0  0
 21 23  1  0  0  0
 23 24  2  0  0  0
 23 25  1  0  0  0
 24 42  1  0  0  0
 25 26  2  0  0  0
 25 27  1  0  0  0
 27 43  1  0  0  0
M  END
> <s_m_entry_id>
27861

> <s_m_entry_name>
dock_pv.22

> <s_m_Source_Path>
/home/csk/Desktop/cluster/DUD-E-result/rock1

> <s_m_Source_File>
dock_pv.maegz

> <i_m_Source_File_Index>
22

> <chembl_id>
CHEMBL3964232

> <chembl_pref_name>
None

> <i_lp_mmshare_version>
53161

> <r_lp_tautomer_probability>
0.5

> <s_lp_Force_Field>
OPLS_2005

> <r_lp_Energy>
25.106483

> <b_lp_Chiralities_Consistent>
1

> <s_lp_Variant>
CHEMBL3231_lig797-1

> <s_i_glide_gridfile>
glide-grid_2etr

> <i_i_glide_lignum>
1125

> <i_i_glide_rotatable_bonds>
8

> <r_i_docking_score>
-9.00923949928123

> <r_i_glide_ligand_efficiency>
-0.333675537010416

> <r_i_glide_ligand_efficiency_sa>
-1.00102660993151

> <r_i_glide_ligand_efficiency_ln>
-2.09720242651136

> <r_i_glide_gscore>
-9.00923949928123

> <r_i_glide_lipo>
-2.10871095857758

> <r_i_glide_hbond>
-0.694161120357932

> <r_i_glide_metal>
0

> <r_i_glide_rewards>
-2.54787381097678

> <r_i_glide_evdw>
-42.3850402832031

> <r_i_glide_ecoul>
-13.8216047286987

> <r_i_glide_erotb>
0.5935918411822

> <r_i_glide_esite>
-0.0595927270861758

> <r_i_glide_emodel>
-86.3903479026842

> <r_i_glide_energy>
-56.2066450119019

> <r_i_glide_einternal>
2.3317174911499

> <i_i_glide_confnum>
27

> <i_i_glide_posenum>
386

> <r_i_glide_eff_state_penalty>
0

> <s_user_duplicate_titles>
CHEMBL3231_lig797

> <i_f3d_flags>
0

> <s_m_subgroup_title>
dock_pv

> <s_m_subgroupid>
dock_pv

> <b_m_subgroup_collapsed>
1

$$$$
CHEMBL3231_lig2020
                    3D
 Schrodinger Suite 2021-1.
 45 47  0  0  1  0            999 V2000
   50.8428  104.0062   29.7003 F   0  0  0  0  0  0
   51.3166  103.5031   32.4554 O   0  0  0  0  0  0
   55.6235  104.7605   33.6112 O   0  0  0  0  0  0
   53.4641  102.7773   32.5703 N   0  0  0  0  0  0
   50.0429   98.5322   24.8951 N   0  0  0  0  0  0
   52.0932  102.1794   30.6466 C   0  0  0  0  0  0
   51.5018  100.7272   28.2913 C   0  0  0  0  0  0
   51.3302  102.7518   29.6179 C   0  0  0  0  0  0
   52.2682  102.8968   31.9620 C   0  0  0  0  0  0
   51.0307  102.0286   28.4725 C   0  0  0  0  0  0
   51.0714   99.9530   27.0946 C   0  0  0  0  0  0
   52.6238  100.8956   30.4457 C   0  0  0  0  0  0
   52.3290  100.1805   29.2822 C   0  0  0  0  0  0
   53.7604  103.1955   33.9537 C   0  0  1  0  0  0
   50.8096  100.5956   25.8717 C   0  0  0  0  0  0
   50.8421   98.5719   27.1720 C   0  0  0  0  0  0
   53.3024  102.1146   34.9748 C   0  0  0  0  0  0
   51.8119  102.1355   35.3006 C   0  0  0  0  0  0
   50.2853   99.8607   24.8121 C   0  0  0  0  0  0
   50.3395   97.9023   26.0570 C   0  0  0  0  0  0
   55.2660  103.5020   34.1449 C   0  0  0  0  0  0
   50.9912  101.0775   34.9039 C   0  0  0  0  0  0
   51.2705  103.2129   36.0093 C   0  0  0  0  0  0
   49.6332  101.1016   35.2112 C   0  0  0  0  0  0
   49.9116  103.2393   36.3103 C   0  0  0  0  0  0
   49.0977  102.1830   35.9070 C   0  0  0  0  0  0
   55.5341  104.7628   32.6475 H   0  0  0  0  0  0
   54.2313  102.3913   32.0374 H   0  0  0  0  0  0
   50.3952  102.4929   27.7342 H   0  0  0  0  0  0
   53.2312  100.4204   31.2041 H   0  0  0  0  0  0
   52.7295   99.1833   29.1713 H   0  0  0  0  0  0
   53.2237  104.1209   34.1831 H   0  0  0  0  0  0
   50.9801  101.6549   25.7466 H   0  0  0  0  0  0
   51.0204   98.0237   28.0863 H   0  0  0  0  0  0
   53.8067  102.2622   35.9309 H   0  0  0  0  0  0
   53.6123  101.1211   34.6437 H   0  0  0  0  0  0
   50.0425  100.3364   23.8712 H   0  0  0  0  0  0
   50.1497   96.8392   26.0928 H   0  0  0  0  0  0
   55.5220  103.5432   35.2051 H   0  0  0  0  0  0
   55.8847  102.7224   33.7008 H   0  0  0  0  0  0
   51.4028  100.2419   34.3572 H   0  0  0  0  0  0
   51.9019  104.0324   36.3221 H   0  0  0  0  0  0
   48.9938  100.2858   34.9070 H   0  0  0  0  0  0
   49.4904  104.0739   36.8508 H   0  0  0  0  0  0
   48.0427  102.2016   36.1371 H   0  0  0  0  0  0
  1  8  1  0  0  0
  2  9  2  0  0  0
  3 21  1  0  0  0
  3 27  1  0  0  0
  4  9  1  0  0  0
  4 14  1  0  0  0
  4 28  1  0  0  0
  5 19  2  0  0  0
  5 20  1  0  0  0
  6  8  1  0  0  0
  6  9  1  0  0  0
  6 12  2  0  0  0
  7 10  1  0  0  0
  7 11  1  0  0  0
  7 13  2  0  0  0
  8 10  2  0  0  0
 10 29  1  0  0  0
 11 15  2  0  0  0
 11 16  1  0  0  0
 12 13  1  0  0  0
 12 30  1  0  0  0
 13 31  1  0  0  0
 14 17  1  0  0  0
 14 21  1  0  0  0
 14 32  1  0  0  0
 15 19  1  0  0  0
 15 33  1  0  0  0
 16 20  2  0  0  0
 16 34  1  0  0  0
 17 18  1  0  0  0
 17 35  1  0  0  0
 17 36  1  0  0  0
 18 22  2  0  0  0
 18 23  1  0  0  0
 19 37  1  0  0  0
 20 38  1  0  0  0
 21 39  1  0  0  0
 21 40  1  0  0  0
 22 24  1  0  0  0
 22 41  1  0  0  0
 23 25  2  0  0  0
 23 42  1  0  0  0
 24 26  2  0  0  0
 24 43  1  0  0  0
 25 26  1  0  0  0
 25 44  1  0  0  0
 26 45  1  0  0  0
M  END
> <s_m_entry_id>
27862

> <s_m_entry_name>
dock_pv.23

> <s_m_Source_Path>
/home/csk/Desktop/cluster/DUD-E-result/rock1

> <s_m_Source_File>
dock_pv.maegz

> <i_m_Source_File_Index>
23

> <chembl_id>
CHEMBL1969755

> <chembl_pref_name>
None

> <i_lp_mmshare_version>
53161

> <r_lp_tautomer_probability>
1

> <s_lp_Force_Field>
OPLS_2005

> <r_lp_Energy>
19.220758

> <b_lp_Chiralities_Consistent>
1

> <s_lp_Variant>
CHEMBL3231_lig2020-2

> <s_i_glide_gridfile>
glide-grid_2etr

> <i_i_glide_lignum>
2937

> <i_i_glide_rotatable_bonds>
8

> <r_i_docking_score>
-8.97039601108458

> <r_i_glide_ligand_efficiency>
-0.345015231195561

> <r_i_glide_ligand_efficiency_sa>
-1.02210626484747

> <r_i_glide_ligand_efficiency_ln>
-2.10666806893313

> <r_i_glide_gscore>
-8.97039601108458

> <r_i_glide_lipo>
-3.29412711038529

> <r_i_glide_hbond>
-0.616600383495585

> <r_i_glide_metal>
0

> <r_i_glide_rewards>
-2.37666861671167

> <r_i_glide_evdw>
-40.2812004089355

> <r_i_glide_ecoul>
-9.90866088867188

> <r_i_glide_erotb>
0.931505338256756

> <r_i_glide_esite>
-0.114146085001226

> <r_i_glide_emodel>
-73.8495158614016

> <r_i_glide_energy>
-50.1898612976074

> <r_i_glide_einternal>
8.10943984985352

> <i_i_glide_confnum>
23

> <i_i_glide_posenum>
284

> <r_i_glide_eff_state_penalty>
0

> <s_user_duplicate_titles>
CHEMBL3231_lig2020

> <i_f3d_flags>
0

> <s_m_subgroup_title>
dock_pv

> <s_m_subgroupid>
dock_pv

> <b_m_subgroup_collapsed>
1

$$$$
CHEMBL3231_lig414
                    3D
 Schrodinger Suite 2021-1.
 42 45  0  0  1  0            999 V2000
   51.3353   99.9725   28.1682 C   0  0  0  0  0  0
   52.0420   99.0882   28.9941 C   0  0  0  0  0  0
   52.6881   99.5419   30.1482 C   0  0  0  0  0  0
   51.2017  101.3054   28.5588 C   0  0  0  0  0  0
   51.8130  101.7532   29.7345 C   0  0  0  0  0  0
   52.5875  100.8821   30.5049 C   0  0  0  0  0  0
   53.2440  101.4070   31.6244 N   0  0  0  0  0  0
   53.1193  102.7516   31.9490 C   0  0  0  0  0  0
   52.3632  103.5690   31.3110 N   0  0  0  0  0  0
   51.6341  103.1845   30.1849 C   0  0  0  0  0  0
   50.8429  103.9048   29.5830 O   0  0  0  0  0  0
   50.7537   99.5244   26.8717 C   0  0  0  0  0  0
   53.9390  103.2565   33.1652 C   0  0  1  0  0  0
   54.2019  104.7001   33.2109 N   0  0  0  0  0  0
   53.3444  102.7853   34.5237 C   0  0  0  0  0  0
   51.9080  103.2114   34.8410 C   0  0  0  0  0  0
   51.6452  104.5102   35.2829 C   0  0  0  0  0  0
   50.3472  104.8814   35.6278 C   0  0  0  0  0  0
   49.3138  103.9528   35.5332 C   0  0  0  0  0  0
   49.5662  102.6583   35.0869 C   0  0  0  0  0  0
   50.8630  102.2875   34.7371 C   0  0  0  0  0  0
   50.3175  100.3030   25.8035 C   0  0  0  0  0  0
   49.9088   99.4280   24.8365 N   0  0  0  0  0  0
   50.0429   98.1537   25.2108 N   0  0  0  0  0  0
   50.5415   98.2122   26.4203 C   0  0  0  0  0  0
   48.0550  104.3128   35.8724 F   0  0  0  0  0  0
   52.1084   98.0477   28.7202 H   0  0  0  0  0  0
   53.2682   98.8584   30.7495 H   0  0  0  0  0  0
   50.6290  101.9865   27.9438 H   0  0  0  0  0  0
   53.8633  100.8125   32.1509 H   0  0  0  0  0  0
   54.9305  102.8071   33.0873 H   0  0  0  0  0  0
   54.7261  104.9849   32.3851 H   0  0  0  0  0  0
   53.3362  105.2266   33.1444 H   0  0  0  0  0  0
   53.9852  103.1298   35.3375 H   0  0  0  0  0  0
   53.4084  101.6972   34.5872 H   0  0  0  0  0  0
   52.4483  105.2281   35.3688 H   0  0  0  0  0  0
   50.1439  105.8836   35.9740 H   0  0  0  0  0  0
   48.7585  101.9452   35.0203 H   0  0  0  0  0  0
   51.0565  101.2800   34.3997 H   0  0  0  0  0  0
   50.2747  101.3707   25.6419 H   0  0  0  0  0  0
   49.5325   99.6908   23.9312 H   0  0  0  0  0  0
   50.7577   97.3087   26.9715 H   0  0  0  0  0  0
  1  4  2  0  0  0
  1 12  1  0  0  0
  1  2  1  0  0  0
  2 27  1  0  0  0
  2  3  2  0  0  0
  3 28  1  0  0  0
  3  6  1  0  0  0
  4  5  1  0  0  0
  4 29  1  0  0  0
  5 10  1  0  0  0
  5  6  2  0  0  0
  6  7  1  0  0  0
  7 30  1  0  0  0
  7  8  1  0  0  0
  8 13  1  0  0  0
  8  9  2  0  0  0
  9 10  1  0  0  0
 10 11  2  0  0  0
 12 22  2  0  0  0
 12 25  1  0  0  0
 13 14  1  0  0  0
 13 15  1  0  0  0
 13 31  1  0  0  0
 14 32  1  0  0  0
 14 33  1  0  0  0
 15 16  1  0  0  0
 15 34  1  0  0  0
 15 35  1  0  0  0
 16 17  2  0  0  0
 16 21  1  0  0  0
 17 18  1  0  0  0
 17 36  1  0  0  0
 18 19  2  0  0  0
 18 37  1  0  0  0
 19 20  1  0  0  0
 19 26  1  0  0  0
 20 21  2  0  0  0
 20 38  1  0  0  0
 21 39  1  0  0  0
 22 23  1  0  0  0
 22 40  1  0  0  0
 23 24  1  0  0  0
 23 41  1  0  0  0
 24 25  2  0  0  0
 25 42  1  0  0  0
M  END
> <s_m_entry_id>
27863

> <s_m_entry_name>
dock_pv.24

> <s_m_Source_Path>
/home/csk/Desktop/cluster/DUD-E-result/rock1

> <s_m_Source_File>
dock_pv.maegz

> <i_m_Source_File_Index>
24

> <chembl_id>
CHEMBL2333905

> <chembl_pref_name>
None

> <i_lp_mmshare_version>
53161

> <r_lp_tautomer_probability>
0.0616002225126304

> <s_lp_Force_Field>
OPLS_2005

> <r_lp_Energy>
17.725707

> <b_lp_Chiralities_Consistent>
1

> <s_lp_Variant>
CHEMBL3231_lig414-2

> <s_i_glide_gridfile>
glide-grid_2etr

> <i_i_glide_lignum>
594

> <i_i_glide_rotatable_bonds>
4

> <r_i_docking_score>
-8.93528151621533

> <r_i_glide_ligand_efficiency>
-0.343664673700589

> <r_i_glide_ligand_efficiency_sa>
-1.0181052435828

> <r_i_glide_ligand_efficiency_ln>
-2.09842154503315

> <r_i_glide_gscore>
-8.93528151621533

> <r_i_glide_lipo>
-2.16292673796009

> <r_i_glide_hbond>
-0.936421243618333

> <r_i_glide_metal>
0

> <r_i_glide_rewards>
-2.4554757228153

> <r_i_glide_evdw>
-41.8236083984375

> <r_i_glide_ecoul>
-11.1499309539795

> <r_i_glide_erotb>
0.436971281749552

> <r_i_glide_esite>
-0.0537590305523491

> <r_i_glide_emodel>
-81.5623068732565

> <r_i_glide_energy>
-52.973539352417

> <r_i_glide_einternal>
1.10275411605835

> <i_i_glide_confnum>
38

> <i_i_glide_posenum>
115

> <r_i_glide_eff_state_penalty>
0

> <s_user_duplicate_titles>
CHEMBL3231_lig414,CHEMBL3231_lig414

> <i_f3d_flags>
0

> <s_m_subgroup_title>
dock_pv

> <s_m_subgroupid>
dock_pv

> <b_m_subgroup_collapsed>
1

$$$$
CHEMBL3231_lig413
                    3D
 Schrodinger Suite 2021-1.
 42 45  0  0  1  0            999 V2000
   50.8343  100.9783   27.9064 C   0  0  0  0  0  0
   50.4438  102.3249   27.9333 C   0  0  0  0  0  0
   50.7879  103.1566   28.9971 C   0  0  0  0  0  0
   51.5946  100.4685   28.9687 C   0  0  0  0  0  0
   51.9447  101.3094   30.0315 C   0  0  0  0  0  0
   51.5407  102.6485   30.0476 C   0  0  0  0  0  0
   51.8311  103.5056   31.1189 N   0  0  0  0  0  0
   52.5941  103.0928   32.0682 C   0  0  0  0  0  0
   53.0210  101.7905   32.1026 N   0  0  0  0  0  0
   52.7651  100.8143   31.1987 C   0  0  0  0  0  0
   53.1688   99.6688   31.3615 O   0  0  0  0  0  0
   50.4300  100.1242   26.7501 C   0  0  0  0  0  0
   53.0325  104.0546   33.1891 C   0  0  2  0  0  0
   54.4707  104.3013   33.1761 N   0  0  0  0  0  0
   52.6366  103.5605   34.6053 C   0  0  0  0  0  0
   51.1582  103.7271   34.9372 C   0  0  0  0  0  0
   50.6620  104.9954   35.2518 C   0  0  0  0  0  0
   49.3266  105.1504   35.6115 C   0  0  0  0  0  0
   48.4906  104.0363   35.6515 C   0  0  0  0  0  0
   48.9734  102.7716   35.3246 C   0  0  0  0  0  0
   50.3105  102.6152   34.9654 C   0  0  0  0  0  0
   50.5224   98.7285   26.5753 C   0  0  0  0  0  0
   50.0431   98.3063   25.4253 N   0  0  0  0  0  0
   49.6434   99.4225   24.8109 N   0  0  0  0  0  0
   49.8470  100.5400   25.5641 C   0  0  0  0  0  0
   47.2001  104.1904   36.0108 F   0  0  0  0  0  0
   49.8713  102.7462   27.1202 H   0  0  0  0  0  0
   50.4858  104.1908   28.9957 H   0  0  0  0  0  0
   51.9139   99.4339   28.9639 H   0  0  0  0  0  0
   53.6365  101.5082   32.8459 H   0  0  0  0  0  0
   52.5653  105.0278   33.0227 H   0  0  0  0  0  0
   54.7574  104.6683   32.2701 H   0  0  0  0  0  0
   54.6910  105.0371   33.8302 H   0  0  0  0  0  0
   53.1815  104.1251   35.3642 H   0  0  0  0  0  0
   52.9509  102.5279   34.7708 H   0  0  0  0  0  0
   51.3136  105.8578   35.2293 H   0  0  0  0  0  0
   48.9395  106.1254   35.8671 H   0  0  0  0  0  0
   48.3121  101.9174   35.3598 H   0  0  0  0  0  0
   50.6884  101.6314   34.7256 H   0  0  0  0  0  0
   50.9287   98.0299   27.2918 H   0  0  0  0  0  0
   49.2288   99.4248   23.8833 H   0  0  0  0  0  0
   49.5522  101.5109   25.2015 H   0  0  0  0  0  0
  1  2  2  0  0  0
  1  4  1  0  0  0
  1 12  1  0  0  0
  2  3  1  0  0  0
  2 27  1  0  0  0
  3  6  2  0  0  0
  3 28  1  0  0  0
  4  5  2  0  0  0
  4 29  1  0  0  0
  5  6  1  0  0  0
  5 10  1  0  0  0
  6  7  1  0  0  0
  7  8  2  0  0  0
  8  9  1  0  0  0
  8 13  1  0  0  0
  9 10  1  0  0  0
  9 30  1  0  0  0
 10 11  2  0  0  0
 12 25  2  0  0  0
 12 22  1  0  0  0
 13 14  1  0  0  0
 13 15  1  0  0  0
 13 31  1  0  0  0
 14 32  1  0  0  0
 14 33  1  0  0  0
 15 16  1  0  0  0
 15 34  1  0  0  0
 15 35  1  0  0  0
 16 17  2  0  0  0
 16 21  1  0  0  0
 17 18  1  0  0  0
 17 36  1  0  0  0
 18 19  2  0  0  0
 18 37  1  0  0  0
 19 20  1  0  0  0
 19 26  1  0  0  0
 20 21  2  0  0  0
 20 38  1  0  0  0
 21 39  1  0  0  0
 22 40  1  0  0  0
 22 23  2  0  0  0
 23 24  1  0  0  0
 24 41  1  0  0  0
 24 25  1  0  0  0
 25 42  1  0  0  0
M  END
> <s_m_entry_id>
27864

> <s_m_entry_name>
dock_pv.25

> <s_m_Source_Path>
/home/csk/Desktop/cluster/DUD-E-result/rock1

> <s_m_Source_File>
dock_pv.maegz

> <i_m_Source_File_Index>
25

> <chembl_id>
CHEMBL2333906

> <chembl_pref_name>
None

> <i_lp_mmshare_version>
53161

> <r_lp_tautomer_probability>
0.469196969327016

> <s_lp_Force_Field>
OPLS_2005

> <r_lp_Energy>
23.069694

> <b_lp_Chiralities_Consistent>
1

> <s_lp_Variant>
CHEMBL3231_lig413-1

> <s_i_glide_gridfile>
glide-grid_2etr

> <i_i_glide_lignum>
591

> <i_i_glide_rotatable_bonds>
4

> <r_i_docking_score>
-8.92828352069692

> <r_i_glide_ligand_efficiency>
-0.343395520026805

> <r_i_glide_ligand_efficiency_sa>
-1.01730787688328

> <r_i_glide_ligand_efficiency_ln>
-2.09677808874794

> <r_i_glide_gscore>
-8.92828352069692

> <r_i_glide_lipo>
-2.53043604364436

> <r_i_glide_hbond>
-0.752904995845982

> <r_i_glide_metal>
0

> <r_i_glide_rewards>
-2.63751539055744

> <r_i_glide_evdw>
-43.4525337219238

> <r_i_glide_ecoul>
-8.10036659240723

> <r_i_glide_erotb>
0.436971281749552

> <r_i_glide_esite>
-0.0567166974414181

> <r_i_glide_emodel>
-76.8540968166141

> <r_i_glide_energy>
-51.5529003143311

> <r_i_glide_einternal>
4.44835472106934

> <i_i_glide_confnum>
11

> <i_i_glide_posenum>
308

> <r_i_glide_eff_state_penalty>
0

> <s_user_duplicate_titles>
CHEMBL3231_lig413,CHEMBL3231_lig413

> <i_f3d_flags>
0

> <s_m_subgroup_title>
dock_pv

> <s_m_subgroupid>
dock_pv

> <b_m_subgroup_collapsed>
1

$$$$
CHEMBL3231_lig1982
                    3D
 Schrodinger Suite 2021-1.
 45 48  0  0  1  0            999 V2000
   52.9950  101.8000   31.6135 S   0  0  0  0  0  0
   55.2426  106.4624   35.6010 O   0  0  0  0  0  0
   51.6438  103.9030   30.9128 N   0  0  0  0  0  0
   52.7319  104.2086   32.9232 N   0  0  0  0  0  0
   50.0441   97.9059   25.2111 N   0  0  0  0  0  0
   52.0848  101.7550   30.1006 C   0  0  0  0  0  0
   51.4389  103.0004   29.9346 C   0  0  0  0  0  0
   52.4059  103.4357   31.8449 C   0  0  0  0  0  0
   51.0703  100.9677   28.0551 C   0  0  0  0  0  0
   51.9236  100.7371   29.1500 C   0  0  0  0  0  0
   50.6212  103.2429   28.8341 C   0  0  0  0  0  0
   50.7842   99.9004   27.0565 C   0  0  0  0  0  0
   50.4432  102.2139   27.9216 C   0  0  0  0  0  0
   52.8406  103.7984   34.3182 C   0  0  2  0  0  0
   51.4844  103.2710   34.8118 C   0  0  0  0  0  0
   50.4329  100.2248   25.7348 C   0  0  0  0  0  0
   50.7990   98.5433   27.4122 C   0  0  0  0  0  0
   53.4101  104.9405   35.1921 C   0  0  0  0  0  0
   50.4423  104.1511   35.1382 C   0  0  0  0  0  0
   51.2742  101.8912   34.9183 C   0  0  0  0  0  0
   50.0566   99.2128   24.8589 C   0  0  0  0  0  0
   50.4396   97.5875   26.4640 C   0  0  0  0  0  0
   49.2121  103.6572   35.5690 C   0  0  0  0  0  0
   50.0419  101.3971   35.3433 C   0  0  0  0  0  0
   54.8380  105.3650   34.8068 C   0  0  0  0  0  0
   49.0146  102.2815   35.6663 C   0  0  0  0  0  0
   54.8043  107.2531   35.2667 H   0  0  0  0  0  0
   52.6431  105.2168   32.8292 H   0  0  0  0  0  0
   52.4284   99.7902   29.2788 H   0  0  0  0  0  0
   50.1261  104.1914   28.7001 H   0  0  0  0  0  0
   49.7808  102.4040   27.0902 H   0  0  0  0  0  0
   53.5661  102.9827   34.3637 H   0  0  0  0  0  0
   50.4340  101.2447   25.3829 H   0  0  0  0  0  0
   51.0579   98.2226   28.4111 H   0  0  0  0  0  0
   52.7590  105.8131   35.1272 H   0  0  0  0  0  0
   53.4030  104.6307   36.2390 H   0  0  0  0  0  0
   50.5796  105.2183   35.0522 H   0  0  0  0  0  0
   52.0649  101.1981   34.6668 H   0  0  0  0  0  0
   49.7712   99.4446   23.8473 H   0  0  0  0  0  0
   50.4427   96.5380   26.7080 H   0  0  0  0  0  0
   48.4121  104.3365   35.8256 H   0  0  0  0  0  0
   49.8836  100.3326   35.4238 H   0  0  0  0  0  0
   55.5265  104.5258   34.9203 H   0  0  0  0  0  0
   54.8942  105.6419   33.7516 H   0  0  0  0  0  0
   48.0577  101.9008   35.9977 H   0  0  0  0  0  0
  1  6  1  0  0  0
  1  8  1  0  0  0
  2 25  1  0  0  0
  2 27  1  0  0  0
  3  7  1  0  0  0
  3  8  2  0  0  0
  4  8  1  0  0  0
  4 14  1  0  0  0
  4 28  1  0  0  0
  5 21  2  0  0  0
  5 22  1  0  0  0
  6  7  1  0  0  0
  6 10  2  0  0  0
  7 11  2  0  0  0
  9 10  1  0  0  0
  9 12  1  0  0  0
  9 13  2  0  0  0
 10 29  1  0  0  0
 11 13  1  0  0  0
 11 30  1  0  0  0
 12 16  2  0  0  0
 12 17  1  0  0  0
 13 31  1  0  0  0
 14 15  1  0  0  0
 14 18  1  0  0  0
 14 32  1  0  0  0
 15 19  2  0  0  0
 15 20  1  0  0  0
 16 21  1  0  0  0
 16 33  1  0  0  0
 17 22  2  0  0  0
 17 34  1  0  0  0
 18 25  1  0  0  0
 18 35  1  0  0  0
 18 36  1  0  0  0
 19 23  1  0  0  0
 19 37  1  0  0  0
 20 24  2  0  0  0
 20 38  1  0  0  0
 21 39  1  0  0  0
 22 40  1  0  0  0
 23 26  2  0  0  0
 23 41  1  0  0  0
 24 26  1  0  0  0
 24 42  1  0  0  0
 25 43  1  0  0  0
 25 44  1  0  0  0
 26 45  1  0  0  0
M  END
> <s_m_entry_id>
27865

> <s_m_entry_name>
dock_pv.26

> <s_m_Source_Path>
/home/csk/Desktop/cluster/DUD-E-result/rock1

> <s_m_Source_File>
dock_pv.maegz

> <i_m_Source_File_Index>
26

> <chembl_id>
CHEMBL1982122

> <chembl_pref_name>
None

> <i_lp_mmshare_version>
53161

> <r_lp_tautomer_probability>
1

> <s_lp_Force_Field>
OPLS_2005

> <r_lp_Energy>
15.711548

> <b_lp_Chiralities_Consistent>
1

> <s_lp_Variant>
CHEMBL3231_lig1982-1

> <s_i_glide_gridfile>
glide-grid_2etr

> <i_i_glide_lignum>
2885

> <i_i_glide_rotatable_bonds>
7

> <r_i_docking_score>
-8.92412829661591

> <r_i_glide_ligand_efficiency>
-0.343235703715997

> <r_i_glide_ligand_efficiency_sa>
-1.01683442169136

> <r_i_glide_ligand_efficiency_ln>
-2.09580224800692

> <r_i_glide_gscore>
-8.92412829661591

> <r_i_glide_lipo>
-3.22035803328191

> <r_i_glide_hbond>
-0.730685092744949

> <r_i_glide_metal>
0

> <r_i_glide_rewards>
-2.36958368181818

> <r_i_glide_evdw>
-38.7210731506348

> <r_i_glide_ecoul>
-9.90827083587646

> <r_i_glide_erotb>
0.88129388673511

> <r_i_glide_esite>
-0.0625010925927727

> <r_i_glide_emodel>
-72.81718175013

> <r_i_glide_energy>
-48.6293439865112

> <r_i_glide_einternal>
7.65954780578613

> <i_i_glide_confnum>
103

> <i_i_glide_posenum>
227

> <r_i_glide_eff_state_penalty>
0

> <s_user_duplicate_titles>
CHEMBL3231_lig1982

> <i_f3d_flags>
0

> <s_m_subgroup_title>
dock_pv

> <s_m_subgroupid>
dock_pv

> <b_m_subgroup_collapsed>
1

$$$$
CHEMBL3231_lig731
                    3D
 Schrodinger Suite 2021-1.
 44 46  0  0  1  0            999 V2000
   47.8170  104.4289   36.2831 C   0  0  0  0  0  0
   49.1204  104.4783   35.7082 O   0  0  0  0  0  0
   49.7795  103.2939   35.4377 C   0  0  0  0  0  0
   49.2547  102.0198   35.7035 C   0  0  0  0  0  0
   49.9849  100.8773   35.3806 C   0  0  0  0  0  0
   51.2334  100.9874   34.7768 C   0  0  0  0  0  0
   51.7597  102.2470   34.4826 C   0  0  0  0  0  0
   53.0946  102.3675   33.7462 C   0  0  0  0  0  0
   52.9800  102.0729   32.3113 N   0  0  0  0  0  0
   52.1636  102.7344   31.4680 C   0  0  0  0  0  0
   51.6431  103.7909   31.8131 O   0  0  0  0  0  0
   51.8073  102.0518   30.1506 C   0  0  0  0  0  0
   52.0395  100.6655   30.0285 C   0  0  0  0  0  0
   51.6453   99.9490   28.9032 C   0  0  0  0  0  0
   51.0003  100.5945   27.8549 C   0  0  0  0  0  0
   50.7823  101.9653   27.9454 C   0  0  0  0  0  0
   51.1665  102.7131   29.0619 C   0  0  0  0  0  0
   50.8985  104.2242   28.9694 C   0  0  0  0  0  0
   49.6496  104.5923   28.4112 O   0  0  0  0  0  0
   50.5279   99.8647   26.6486 C   0  0  0  0  0  0
   50.5708   98.4884   26.3706 C   0  0  0  0  0  0
   50.0430   98.1756   25.2116 N   0  0  0  0  0  0
   49.6458   99.3436   24.7091 N   0  0  0  0  0  0
   49.9192  100.3970   25.5223 C   0  0  0  0  0  0
   51.0408  103.3935   34.8441 C   0  0  0  0  0  0
   47.4441  105.4437   36.4109 H   0  0  0  0  0  0
   47.1117  103.8949   35.6441 H   0  0  0  0  0  0
   47.8340  103.9583   37.2675 H   0  0  0  0  0  0
   48.2831  101.8961   36.1600 H   0  0  0  0  0  0
   49.5704   99.9038   35.5885 H   0  0  0  0  0  0
   51.7793  100.0926   34.5128 H   0  0  0  0  0  0
   53.5358  103.3547   33.8919 H   0  0  0  0  0  0
   53.8025  101.6625   34.1821 H   0  0  0  0  0  0
   53.5471  101.3196   31.9509 H   0  0  0  0  0  0
   52.5062  100.0995   30.8218 H   0  0  0  0  0  0
   51.8342   98.8871   28.8665 H   0  0  0  0  0  0
   50.3050  102.4700   27.1181 H   0  0  0  0  0  0
   50.8435  104.7032   29.9269 H   0  0  0  0  0  0
   51.7030  104.7026   28.4134 H   0  0  0  0  0  0
   49.5954  104.2791   27.5026 H   0  0  0  0  0  0
   50.9787   97.7232   27.0132 H   0  0  0  0  0  0
   49.2041   99.4263   23.7990 H   0  0  0  0  0  0
   49.6502  101.4010   25.2318 H   0  0  0  0  0  0
   51.4434  104.3711   34.6190 H   0  0  0  0  0  0
  1  2  1  0  0  0
  1 26  1  0  0  0
  1 27  1  0  0  0
  1 28  1  0  0  0
  2  3  1  0  0  0
  3  4  2  0  0  0
  3 25  1  0  0  0
  4  5  1  0  0  0
  4 29  1  0  0  0
  5  6  2  0  0  0
  5 30  1  0  0  0
  6  7  1  0  0  0
  6 31  1  0  0  0
  7  8  1  0  0  0
  7 25  2  0  0  0
  8  9  1  0  0  0
  8 32  1  0  0  0
  8 33  1  0  0  0
  9 10  1  0  0  0
  9 34  1  0  0  0
 10 11  2  0  0  0
 10 12  1  0  0  0
 12 13  2  0  0  0
 12 17  1  0  0  0
 13 14  1  0  0  0
 13 35  1  0  0  0
 14 15  2  0  0  0
 14 36  1  0  0  0
 15 16  1  0  0  0
 15 20  1  0  0  0
 16 17  2  0  0  0
 16 37  1  0  0  0
 17 18  1  0  0  0
 18 19  1  0  0  0
 18 38  1  0  0  0
 18 39  1  0  0  0
 19 40  1  0  0  0
 20 21  1  0  0  0
 20 24  2  0  0  0
 21 22  2  0  0  0
 21 41  1  0  0  0
 22 23  1  0  0  0
 23 24  1  0  0  0
 23 42  1  0  0  0
 24 43  1  0  0  0
 25 44  1  0  0  0
M  END
> <s_m_entry_id>
27866

> <s_m_entry_name>
dock_pv.27

> <s_m_Source_Path>
/home/csk/Desktop/cluster/DUD-E-result/rock1

> <s_m_Source_File>
dock_pv.maegz

> <i_m_Source_File_Index>
27

> <chembl_id>
CHEMBL3976502

> <chembl_pref_name>
None

> <i_lp_mmshare_version>
53161

> <r_lp_tautomer_probability>
0.5

> <s_lp_Force_Field>
OPLS_2005

> <r_lp_Energy>
23.692188

> <b_lp_Chiralities_Consistent>
1

> <s_lp_Variant>
CHEMBL3231_lig731-1

> <s_i_glide_gridfile>
glide-grid_2etr

> <i_i_glide_lignum>
1039

> <i_i_glide_rotatable_bonds>
8

> <r_i_docking_score>
-8.87775348078095

> <r_i_glide_ligand_efficiency>
-0.355110139231238

> <r_i_glide_ligand_efficiency_sa>
-1.03834834501728

> <r_i_glide_ligand_efficiency_ln>
-2.10429361974841

> <r_i_glide_gscore>
-8.87775348078095

> <r_i_glide_lipo>
-3.39072441810796

> <r_i_glide_hbond>
-0.723310372926498

> <r_i_glide_metal>
0

> <r_i_glide_rewards>
-2.00503485863592

> <r_i_glide_evdw>
-42.3616371154785

> <r_i_glide_ecoul>
-8.53197479248047

> <r_i_glide_erotb>
0.697355633290412

> <r_i_glide_esite>
-0.0581613897549931

> <r_i_glide_emodel>
-77.6381126421512

> <r_i_glide_energy>
-50.893611907959

> <r_i_glide_einternal>
5.72641468048096

> <i_i_glide_confnum>
84

> <i_i_glide_posenum>
284

> <r_i_glide_eff_state_penalty>
0

> <s_user_duplicate_titles>
CHEMBL3231_lig731

> <i_f3d_flags>
0

> <s_m_subgroup_title>
dock_pv

> <s_m_subgroupid>
dock_pv

> <b_m_subgroup_collapsed>
1

$$$$
CHEMBL3231_lig409
                    3D
 Schrodinger Suite 2021-1.
 43 46  0  0  1  0            999 V2000
   50.8090  101.0771   27.9088 C   0  0  0  0  0  0
   50.4513  102.4328   27.9322 C   0  0  0  0  0  0
   50.7638  103.2636   29.0213 C   0  0  0  0  0  0
   51.5103  100.5376   28.9882 C   0  0  0  0  0  0
   51.8092  101.3446   30.0870 C   0  0  0  0  0  0
   51.4349  102.6955   30.1163 C   0  0  0  0  0  0
   51.6448  103.4851   31.2686 N   0  0  0  0  0  0
   52.2618  102.9933   32.2809 C   0  0  0  0  0  0
   52.7033  101.6968   32.2638 N   0  0  0  0  0  0
   52.5298  100.7782   31.2876 C   0  0  0  0  0  0
   52.9152   99.6218   31.4211 O   0  0  0  0  0  0
   50.4247  100.2235   26.7459 C   0  0  0  0  0  0
   52.3811  103.7971   33.5880 C   0  0  2  0  0  0
   53.6931  103.6657   34.2161 N   0  0  0  0  0  0
   50.5486   98.8307   26.5679 C   0  0  0  0  0  0
   50.0760   98.4003   25.4182 N   0  0  0  0  0  0
   49.6483   99.5081   24.8115 N   0  0  0  0  0  0
   49.8256  100.6298   25.5658 C   0  0  0  0  0  0
   51.2738  103.5220   34.6233 C   0  0  0  0  0  0
   50.7180  102.2436   34.8174 C   0  0  0  0  0  0
   49.7008  102.0394   35.7492 C   0  0  0  0  0  0
   49.2360  103.1039   36.5180 C   0  0  0  0  0  0
   49.7946  104.3719   36.3593 C   0  0  0  0  0  0
   50.8025  104.5804   35.4138 C   0  0  0  0  0  0
   49.2426  105.6773   37.3413 Cl  0  0  0  0  0  0
   50.4436  104.6111   29.0745 O   0  0  0  0  0  0
   49.7341  105.2277   28.0111 C   0  0  0  0  0  0
   49.9300  102.8389   27.0828 H   0  0  0  0  0  0
   51.8034   99.4962   28.9850 H   0  0  0  0  0  0
   53.2103  101.3633   33.0688 H   0  0  0  0  0  0
   52.3007  104.8536   33.3224 H   0  0  0  0  0  0
   54.4074  103.9756   33.5675 H   0  0  0  0  0  0
   53.7519  104.2904   35.0090 H   0  0  0  0  0  0
   50.9727   98.1379   27.2802 H   0  0  0  0  0  0
   49.2369   99.5028   23.8824 H   0  0  0  0  0  0
   49.5028  101.5948   25.2109 H   0  0  0  0  0  0
   51.0636  101.3918   34.2511 H   0  0  0  0  0  0
   49.2774  101.0544   35.8863 H   0  0  0  0  0  0
   48.4507  102.9387   37.2415 H   0  0  0  0  0  0
   51.2243  105.5689   35.3031 H   0  0  0  0  0  0
   49.7186  106.3041   28.1705 H   0  0  0  0  0  0
   50.1903  105.0538   27.0351 H   0  0  0  0  0  0
   48.7015  104.8923   28.0126 H   0  0  0  0  0  0
  1  2  2  0  0  0
  1  4  1  0  0  0
  1 12  1  0  0  0
  2  3  1  0  0  0
  2 28  1  0  0  0
  3  6  2  0  0  0
  3 26  1  0  0  0
  4  5  2  0  0  0
  4 29  1  0  0  0
  5  6  1  0  0  0
  5 10  1  0  0  0
  6  7  1  0  0  0
  7  8  2  0  0  0
  8  9  1  0  0  0
  8 13  1  0  0  0
  9 10  1  0  0  0
  9 30  1  0  0  0
 10 11  2  0  0  0
 12 18  2  0  0  0
 12 15  1  0  0  0
 13 14  1  0  0  0
 13 19  1  0  0  0
 13 31  1  0  0  0
 14 32  1  0  0  0
 14 33  1  0  0  0
 15 34  1  0  0  0
 15 16  2  0  0  0
 16 17  1  0  0  0
 17 35  1  0  0  0
 17 18  1  0  0  0
 18 36  1  0  0  0
 19 20  2  0  0  0
 19 24  1  0  0  0
 20 21  1  0  0  0
 20 37  1  0  0  0
 21 22  2  0  0  0
 21 38  1  0  0  0
 22 23  1  0  0  0
 22 39  1  0  0  0
 23 24  2  0  0  0
 23 25  1  0  0  0
 24 40  1  0  0  0
 26 27  1  0  0  0
 27 41  1  0  0  0
 27 42  1  0  0  0
 27 43  1  0  0  0
M  END
> <s_m_entry_id>
27867

> <s_m_entry_name>
dock_pv.28

> <s_m_Source_Path>
/home/csk/Desktop/cluster/DUD-E-result/rock1

> <s_m_Source_File>
dock_pv.maegz

> <i_m_Source_File_Index>
28

> <chembl_id>
CHEMBL2333896

> <chembl_pref_name>
None

> <i_lp_mmshare_version>
53161

> <r_lp_tautomer_probability>
0.469196969327016

> <s_lp_Force_Field>
OPLS_2005

> <r_lp_Energy>
26.5146

> <b_lp_Chiralities_Consistent>
1

> <s_lp_Variant>
CHEMBL3231_lig409-1

> <s_i_glide_gridfile>
glide-grid_2etr

> <i_i_glide_lignum>
579

> <i_i_glide_rotatable_bonds>
4

> <r_i_docking_score>
-8.87637918200326

> <r_i_glide_ligand_efficiency>
-0.328754784518639

> <r_i_glide_ligand_efficiency_sa>
-0.986264352472395

> <r_i_glide_ligand_efficiency_ln>
-2.06627473502256

> <r_i_glide_gscore>
-8.87637918200326

> <r_i_glide_lipo>
-3.01344342365978

> <r_i_glide_hbond>
-0.527549863282094

> <r_i_glide_metal>
0

> <r_i_glide_rewards>
-1.95913783333333

> <r_i_glide_evdw>
-45.4657669067383

> <r_i_glide_ecoul>
-8.85775184631348

> <r_i_glide_erotb>
0.279673542424914

> <r_i_glide_esite>
-0.0539704818690306

> <r_i_glide_emodel>
-78.9307274994941

> <r_i_glide_energy>
-54.3235187530518

> <r_i_glide_einternal>
6.99660539627075

> <i_i_glide_confnum>
5

> <i_i_glide_posenum>
43

> <r_i_glide_eff_state_penalty>
0

> <s_user_duplicate_titles>
CHEMBL3231_lig409,CHEMBL3231_lig409

> <i_f3d_flags>
0

> <s_m_subgroup_title>
dock_pv

> <s_m_subgroupid>
dock_pv

> <b_m_subgroup_collapsed>
1

$$$$
CHEMBL3231_lig408
                    3D
 Schrodinger Suite 2021-1.
 46 50  0  0  1  0            999 V2000
   51.2299   99.8552   28.2438 C   0  0  0  0  0  0
   51.6436   98.6953   28.9159 C   0  0  0  0  0  0
   52.0736   98.7488   30.2424 C   0  0  0  0  0  0
   51.2528  101.0839   28.9207 C   0  0  0  0  0  0
   51.6865  101.1315   30.2503 C   0  0  0  0  0  0
   52.0976   99.9671   30.9093 C   0  0  0  0  0  0
   52.5118   99.9795   32.2491 N   0  0  0  0  0  0
   52.5624  101.0905   32.8889 C   0  0  0  0  0  0
   52.1617  102.2584   32.2968 N   0  0  0  0  0  0
   51.6772  102.4173   31.0424 C   0  0  0  0  0  0
   51.2429  103.5030   30.6642 O   0  0  0  0  0  0
   50.7371   99.7661   26.8369 C   0  0  0  0  0  0
   50.4896   98.6122   26.0690 C   0  0  0  0  0  0
   50.0430   98.8674   24.8624 N   0  0  0  0  0  0
   49.9848  100.1975   24.8111 N   0  0  0  0  0  0
   50.3970  100.7971   25.9691 C   0  0  0  0  0  0
   53.0489  101.1516   34.3380 C   0  0  2  0  0  0
   54.2444  100.2513   34.6849 C   0  0  0  0  0  0
   54.2354  100.0630   36.1305 N   0  0  1  0  0  0
   52.8788  100.3167   36.5979 C   0  0  0  0  0  0
   52.0196  100.7165   35.3894 C   0  0  1  0  0  0
   50.8938  101.7127   35.6745 C   0  0  0  0  0  0
   49.5678  101.3803   35.3802 C   0  0  0  0  0  0
   48.5518  102.3041   35.6101 C   0  0  0  0  0  0
   48.8598  103.5545   36.1412 C   0  0  0  0  0  0
   50.1758  103.8898   36.4459 C   0  0  0  0  0  0
   51.1924  102.9694   36.2121 C   0  0  0  0  0  0
   47.6039  104.7032   36.4108 Cl  0  0  0  0  0  0
   51.6388   97.7388   28.4158 H   0  0  0  0  0  0
   52.3863   97.8505   30.7546 H   0  0  0  0  0  0
   50.9255  101.9860   28.4230 H   0  0  0  0  0  0
   52.2043  103.1074   32.8343 H   0  0  0  0  0  0
   50.6318   97.5923   26.3950 H   0  0  0  0  0  0
   49.6571  100.6811   23.9826 H   0  0  0  0  0  0
   50.4016  101.8736   26.0683 H   0  0  0  0  0  0
   53.3743  102.1701   34.5556 H   0  0  0  0  0  0
   54.1546   99.2745   34.2035 H   0  0  0  0  0  0
   55.1897  100.6732   34.3363 H   0  0  0  0  0  0
   54.5443   99.1302   36.3732 H   0  0  0  0  0  0
   52.4432   99.4893   37.1592 H   0  0  0  0  0  0
   52.9258  101.1320   37.3197 H   0  0  0  0  0  0
   51.5275   99.7935   35.0714 H   0  0  0  0  0  0
   49.3195  100.4140   34.9649 H   0  0  0  0  0  0
   47.5284  102.0497   35.3775 H   0  0  0  0  0  0
   50.4108  104.8617   36.8540 H   0  0  0  0  0  0
   52.2144  103.2368   36.4388 H   0  0  0  0  0  0
  1  2  2  0  0  0
  1  4  1  0  0  0
  1 12  1  0  0  0
  2  3  1  0  0  0
  2 29  1  0  0  0
  3  6  2  0  0  0
  3 30  1  0  0  0
  4  5  2  0  0  0
  4 31  1  0  0  0
  5  6  1  0  0  0
  5 10  1  0  0  0
  6  7  1  0  0  0
  7  8  2  0  0  0
  8  9  1  0  0  0
  8 17  1  0  0  0
  9 10  1  0  0  0
  9 32  1  0  0  0
 10 11  2  0  0  0
 12 16  2  0  0  0
 12 13  1  0  0  0
 13 33  1  0  0  0
 13 14  2  0  0  0
 14 15  1  0  0  0
 15 34  1  0  0  0
 15 16  1  0  0  0
 16 35  1  0  0  0
 17 18  1  0  0  0
 17 21  1  0  0  0
 17 36  1  0  0  0
 18 19  1  0  0  0
 18 37  1  0  0  0
 18 38  1  0  0  0
 19 20  1  0  0  0
 19 39  1  0  0  0
 20 21  1  0  0  0
 20 40  1  0  0  0
 20 41  1  0  0  0
 21 22  1  0  0  0
 21 42  1  0  0  0
 22 23  2  0  0  0
 22 27  1  0  0  0
 23 24  1  0  0  0
 23 43  1  0  0  0
 24 25  2  0  0  0
 24 44  1  0  0  0
 25 26  1  0  0  0
 25 28  1  0  0  0
 26 27  2  0  0  0
 26 45  1  0  0  0
 27 46  1  0  0  0
M  END
> <s_m_entry_id>
27868

> <s_m_entry_name>
dock_pv.29

> <s_m_Source_Path>
/home/csk/Desktop/cluster/DUD-E-result/rock1

> <s_m_Source_File>
dock_pv.maegz

> <i_m_Source_File_Index>
29

> <chembl_id>
CHEMBL2333898

> <chembl_pref_name>
None

> <i_lp_mmshare_version>
53161

> <r_lp_tautomer_probability>
0.469196969327016

> <s_lp_Force_Field>
OPLS_2005

> <r_lp_Energy>
41.882203

> <b_lp_Chiralities_Consistent>
1

> <s_lp_Variant>
CHEMBL3231_lig408-1

> <s_i_glide_gridfile>
glide-grid_2etr

> <i_i_glide_lignum>
577

> <i_i_glide_rotatable_bonds>
3

> <r_i_docking_score>
-8.85267075149325

> <r_i_glide_ligand_efficiency>
-0.31616681255333

> <r_i_glide_ligand_efficiency_sa>
-0.960068655206141

> <r_i_glide_ligand_efficiency_ln>
-2.04345633515238

> <r_i_glide_gscore>
-8.85267075149325

> <r_i_glide_lipo>
-3.66752400691725

> <r_i_glide_hbond>
-0.342386904625328

> <r_i_glide_metal>
0

> <r_i_glide_rewards>
-1.76822181763463

> <r_i_glide_evdw>
-47.6553382873535

> <r_i_glide_ecoul>
-6.19498062133789

> <r_i_glide_erotb>
0.266947857936166

> <r_i_glide_esite>
-0.0294718726838514

> <r_i_glide_emodel>
-83.3252888282044

> <r_i_glide_energy>
-53.8503189086914

> <r_i_glide_einternal>
0.232804968953133

> <i_i_glide_confnum>
23

> <i_i_glide_posenum>
93

> <r_i_glide_eff_state_penalty>
0

> <s_user_duplicate_titles>
CHEMBL3231_lig408,CHEMBL3231_lig408

> <i_f3d_flags>
0

> <s_m_subgroup_title>
dock_pv

> <s_m_subgroupid>
dock_pv

> <b_m_subgroup_collapsed>
1

$$$$
CHEMBL3231_lig654
                    3D
 Schrodinger Suite 2021-1.
 40 42  0  0  1  0            999 V2000
   51.4233   97.6533   30.4137 C   0  0  0  0  0  0
   51.2428   98.4100   29.2199 O   0  0  0  0  0  0
   51.3246   99.7934   29.2470 C   0  0  0  0  0  0
   51.6778  100.5121   30.4062 C   0  0  0  0  0  0
   51.6905  101.9175   30.4275 C   0  0  0  0  0  0
   51.3957  102.5983   29.2446 C   0  0  0  0  0  0
   51.0521  101.9030   28.0938 C   0  0  0  0  0  0
   50.9959  100.5063   28.0767 C   0  0  0  0  0  0
   50.5306   99.8628   26.8001 C   0  0  0  0  0  0
   50.5769   98.5161   26.3905 C   0  0  0  0  0  0
   50.0430   98.3001   25.2111 N   0  0  0  0  0  0
   49.6431   99.5035   24.8109 N   0  0  0  0  0  0
   49.9190  100.4836   25.7151 C   0  0  0  0  0  0
   51.9462  102.7074   31.6939 C   0  0  0  0  0  0
   51.6460  103.9027   31.7502 O   0  0  0  0  0  0
   52.4675  102.0420   32.7401 N   0  0  0  0  0  0
   52.6657  102.5971   34.0810 C   0  0  0  0  0  0
   51.3788  103.0245   34.7870 C   0  0  0  0  0  0
   50.5217  102.0632   35.3360 C   0  0  0  0  0  0
   49.3639  102.4562   36.0098 C   0  0  0  0  0  0
   49.0624  103.8119   36.1466 C   0  0  0  0  0  0
   47.9478  104.1922   36.8098 F   0  0  0  0  0  0
   49.9132  104.7750   35.6029 C   0  0  0  0  0  0
   49.6159  106.0892   35.7225 F   0  0  0  0  0  0
   51.0710  104.3823   34.9303 C   0  0  0  0  0  0
   51.2420   96.6010   30.2000 H   0  0  0  0  0  0
   52.4407   97.7418   30.7971 H   0  0  0  0  0  0
   50.7189   97.9522   31.1919 H   0  0  0  0  0  0
   51.9026   99.9683   31.3114 H   0  0  0  0  0  0
   51.4100  103.6792   29.2108 H   0  0  0  0  0  0
   50.8143  102.4767   27.2118 H   0  0  0  0  0  0
   50.9947   97.6950   26.9565 H   0  0  0  0  0  0
   49.1965   99.6539   23.9103 H   0  0  0  0  0  0
   49.6443  101.5070   25.5139 H   0  0  0  0  0  0
   52.8432  101.1220   32.5745 H   0  0  0  0  0  0
   53.3735  103.4282   34.0289 H   0  0  0  0  0  0
   53.1599  101.8392   34.6932 H   0  0  0  0  0  0
   50.7537  101.0111   35.2430 H   0  0  0  0  0  0
   48.7013  101.7146   36.4300 H   0  0  0  0  0  0
   51.7242  105.1363   34.5113 H   0  0  0  0  0  0
  1  2  1  0  0  0
  1 26  1  0  0  0
  1 27  1  0  0  0
  1 28  1  0  0  0
  2  3  1  0  0  0
  3  4  2  0  0  0
  3  8  1  0  0  0
  4  5  1  0  0  0
  4 29  1  0  0  0
  5  6  2  0  0  0
  5 14  1  0  0  0
  6  7  1  0  0  0
  6 30  1  0  0  0
  7  8  2  0  0  0
  7 31  1  0  0  0
  8  9  1  0  0  0
  9 10  1  0  0  0
  9 13  2  0  0  0
 10 11  2  0  0  0
 10 32  1  0  0  0
 11 12  1  0  0  0
 12 13  1  0  0  0
 12 33  1  0  0  0
 13 34  1  0  0  0
 14 15  2  0  0  0
 14 16  1  0  0  0
 16 17  1  0  0  0
 16 35  1  0  0  0
 17 18  1  0  0  0
 17 36  1  0  0  0
 17 37  1  0  0  0
 18 19  2  0  0  0
 18 25  1  0  0  0
 19 20  1  0  0  0
 19 38  1  0  0  0
 20 21  2  0  0  0
 20 39  1  0  0  0
 21 22  1  0  0  0
 21 23  1  0  0  0
 23 24  1  0  0  0
 23 25  2  0  0  0
 25 40  1  0  0  0
M  END
> <s_m_entry_id>
27870

> <s_m_entry_name>
dock_pv.31

> <s_m_Source_Path>
/home/csk/Desktop/cluster/DUD-E-result/rock1

> <s_m_Source_File>
dock_pv.maegz

> <i_m_Source_File_Index>
31

> <chembl_id>
CHEMBL3969590

> <chembl_pref_name>
None

> <i_lp_mmshare_version>
53161

> <r_lp_tautomer_probability>
0.5

> <s_lp_Force_Field>
OPLS_2005

> <r_lp_Energy>
20.786864

> <b_lp_Chiralities_Consistent>
1

> <s_lp_Variant>
CHEMBL3231_lig654-1

> <s_i_glide_gridfile>
glide-grid_2etr

> <i_i_glide_lignum>
943

> <i_i_glide_rotatable_bonds>
6

> <r_i_docking_score>
-8.85067156514006

> <r_i_glide_ligand_efficiency>
-0.354026862605602

> <r_i_glide_ligand_efficiency_sa>
-1.03518082495192

> <r_i_glide_ligand_efficiency_ln>
-2.09787439416199

> <r_i_glide_gscore>
-8.85067156514006

> <r_i_glide_lipo>
-2.681810852936

> <r_i_glide_hbond>
-0.675795845191639

> <r_i_glide_metal>
0

> <r_i_glide_rewards>
-2.62439124967025

> <r_i_glide_evdw>
-40.4272422790527

> <r_i_glide_ecoul>
-8.28304004669189

> <r_i_glide_erotb>
0.45070363812689

> <r_i_glide_esite>
-0.055559134512637

> <r_i_glide_emodel>
-73.6983504684625

> <r_i_glide_energy>
-48.7102823257446

> <r_i_glide_einternal>
2.53638434410095

> <i_i_glide_confnum>
1

> <i_i_glide_posenum>
37

> <r_i_glide_eff_state_penalty>
0

> <s_user_duplicate_titles>
CHEMBL3231_lig654

> <i_f3d_flags>
0

> <s_m_subgroup_title>
dock_pv

> <s_m_subgroupid>
dock_pv

> <b_m_subgroup_collapsed>
1

$$$$
CHEMBL3231_lig651
                    3D
 Schrodinger Suite 2021-1.
 40 42  0  0  1  0            999 V2000
   51.4202   97.6572   30.4170 C   0  0  0  0  0  0
   51.2435   98.4118   29.2213 O   0  0  0  0  0  0
   51.3400   99.7934   29.2427 C   0  0  0  0  0  0
   51.6988  100.5122   30.3990 C   0  0  0  0  0  0
   51.7201  101.9185   30.4163 C   0  0  0  0  0  0
   51.4294  102.5975   29.2313 C   0  0  0  0  0  0
   51.0775  101.9017   28.0831 C   0  0  0  0  0  0
   51.0125  100.5053   28.0708 C   0  0  0  0  0  0
   50.5394   99.8653   26.7980 C   0  0  0  0  0  0
   50.5860   98.5183   26.3874 C   0  0  0  0  0  0
   50.0432   98.3023   25.2112 N   0  0  0  0  0  0
   49.6434   99.5065   24.8107 N   0  0  0  0  0  0
   49.9213  100.4855   25.7176 C   0  0  0  0  0  0
   51.9599  102.7116   31.6826 C   0  0  0  0  0  0
   51.6432  103.9020   31.7410 O   0  0  0  0  0  0
   52.4691  102.0505   32.7373 N   0  0  0  0  0  0
   52.5381  102.5870   34.0980 C   0  0  0  0  0  0
   51.1652  102.7944   34.7468 C   0  0  0  0  0  0
   50.7230  104.0958   35.0206 C   0  0  0  0  0  0
   49.4754  104.3125   35.6097 C   0  0  0  0  0  0
   48.9210  105.9181   35.9125 Cl  0  0  0  0  0  0
   48.6684  103.2281   35.9450 C   0  0  0  0  0  0
   49.1052  101.9307   35.6912 C   0  0  0  0  0  0
   50.3486  101.7060   35.0990 C   0  0  0  0  0  0
   50.8402  100.0727   34.8118 Cl  0  0  0  0  0  0
   51.2437   96.6029   30.2006 H   0  0  0  0  0  0
   52.4355   97.7499   30.8049 H   0  0  0  0  0  0
   50.7118   97.9547   31.1927 H   0  0  0  0  0  0
   51.9137   99.9731   31.3081 H   0  0  0  0  0  0
   51.4504  103.6785   29.1935 H   0  0  0  0  0  0
   50.8336  102.4738   27.2019 H   0  0  0  0  0  0
   51.0106   97.6978   26.9462 H   0  0  0  0  0  0
   49.1940   99.6576   23.9112 H   0  0  0  0  0  0
   49.6442  101.5101   25.5221 H   0  0  0  0  0  0
   52.7932  101.1039   32.6023 H   0  0  0  0  0  0
   53.1121  103.5167   34.0928 H   0  0  0  0  0  0
   53.1140  101.8968   34.7151 H   0  0  0  0  0  0
   51.3420  104.9427   34.7598 H   0  0  0  0  0  0
   47.7015  103.3884   36.4011 H   0  0  0  0  0  0
   48.4744  101.0985   35.9615 H   0  0  0  0  0  0
  1  2  1  0  0  0
  1 26  1  0  0  0
  1 27  1  0  0  0
  1 28  1  0  0  0
  2  3  1  0  0  0
  3  4  2  0  0  0
  3  8  1  0  0  0
  4  5  1  0  0  0
  4 29  1  0  0  0
  5  6  2  0  0  0
  5 14  1  0  0  0
  6  7  1  0  0  0
  6 30  1  0  0  0
  7  8  2  0  0  0
  7 31  1  0  0  0
  8  9  1  0  0  0
  9 10  1  0  0  0
  9 13  2  0  0  0
 10 11  2  0  0  0
 10 32  1  0  0  0
 11 12  1  0  0  0
 12 13  1  0  0  0
 12 33  1  0  0  0
 13 34  1  0  0  0
 14 15  2  0  0  0
 14 16  1  0  0  0
 16 17  1  0  0  0
 16 35  1  0  0  0
 17 18  1  0  0  0
 17 36  1  0  0  0
 17 37  1  0  0  0
 18 19  2  0  0  0
 18 24  1  0  0  0
 19 20  1  0  0  0
 19 38  1  0  0  0
 20 21  1  0  0  0
 20 22  2  0  0  0
 22 23  1  0  0  0
 22 39  1  0  0  0
 23 24  2  0  0  0
 23 40  1  0  0  0
 24 25  1  0  0  0
M  END
> <s_m_entry_id>
27871

> <s_m_entry_name>
dock_pv.32

> <s_m_Source_Path>
/home/csk/Desktop/cluster/DUD-E-result/rock1

> <s_m_Source_File>
dock_pv.maegz

> <i_m_Source_File_Index>
32

> <chembl_id>
CHEMBL3922088

> <chembl_pref_name>
None

> <i_lp_mmshare_version>
53161

> <r_lp_tautomer_probability>
0.5

> <s_lp_Force_Field>
OPLS_2005

> <r_lp_Energy>
20.457249

> <b_lp_Chiralities_Consistent>
1

> <s_lp_Variant>
CHEMBL3231_lig651-1

> <s_i_glide_gridfile>
glide-grid_2etr

> <i_i_glide_lignum>
940

> <i_i_glide_rotatable_bonds>
6

> <r_i_docking_score>
-8.8301171313805

> <r_i_glide_ligand_efficiency>
-0.35320468525522

> <r_i_glide_ligand_efficiency_sa>
-1.03277676379803

> <r_i_glide_ligand_efficiency_ln>
-2.0930023773943

> <r_i_glide_gscore>
-8.8301171313805

> <r_i_glide_lipo>
-3.32251878901228

> <r_i_glide_hbond>
-0.675598764850552

> <r_i_glide_metal>
0

> <r_i_glide_rewards>
-1.81178156502207

> <r_i_glide_evdw>
-43.3778495788574

> <r_i_glide_ecoul>
-7.8569073677063

> <r_i_glide_erotb>
0.382861366749833

> <r_i_glide_esite>
-0.0556507951466157

> <r_i_glide_emodel>
-76.9503287423298

> <r_i_glide_energy>
-51.2347569465637

> <r_i_glide_einternal>
3.39271402359009

> <i_i_glide_confnum>
5

> <i_i_glide_posenum>
58

> <r_i_glide_eff_state_penalty>
0

> <s_user_duplicate_titles>
CHEMBL3231_lig651

> <i_f3d_flags>
0

> <s_m_subgroup_title>
dock_pv

> <s_m_subgroupid>
dock_pv

> <b_m_subgroup_collapsed>
1

$$$$
CHEMBL3231_lig609
                    3D
 Schrodinger Suite 2021-1.
 40 42  0  0  1  0            999 V2000
   51.4266   97.6611   30.4143 C   0  0  0  0  0  0
   51.2457   98.4134   29.2164 O   0  0  0  0  0  0
   51.3569   99.7945   29.2348 C   0  0  0  0  0  0
   51.7370  100.5126   30.3841 C   0  0  0  0  0  0
   51.7731  101.9177   30.3982 C   0  0  0  0  0  0
   51.4644  102.5993   29.2191 C   0  0  0  0  0  0
   51.0934  101.9031   28.0766 C   0  0  0  0  0  0
   51.0230  100.5074   28.0651 C   0  0  0  0  0  0
   50.5412   99.8619   26.7949 C   0  0  0  0  0  0
   50.5789   98.5139   26.3901 C   0  0  0  0  0  0
   50.0430   98.2977   25.2124 N   0  0  0  0  0  0
   49.6534   99.5026   24.8092 N   0  0  0  0  0  0
   49.9314  100.4818   25.7115 C   0  0  0  0  0  0
   52.0353  102.7032   31.6635 C   0  0  0  0  0  0
   51.6435  103.8679   31.7620 O   0  0  0  0  0  0
   52.6447  102.0550   32.6713 N   0  0  0  0  0  0
   52.7156  102.5466   34.0462 C   0  0  0  0  0  0
   51.3518  102.6145   34.7334 C   0  0  0  0  0  0
   50.6477  101.4362   35.0072 C   0  0  0  0  0  0
   49.3921  101.4921   35.6126 C   0  0  0  0  0  0
   48.8410  102.7211   35.9688 C   0  0  0  0  0  0
   49.5381  103.8992   35.7034 C   0  0  0  0  0  0
   48.8411  105.4216   36.1293 Cl  0  0  0  0  0  0
   50.7927  103.8466   35.0920 C   0  0  0  0  0  0
   51.2431   96.6057   30.2026 H   0  0  0  0  0  0
   52.4485   97.7480   30.7895 H   0  0  0  0  0  0
   50.7228   97.9663   31.1900 H   0  0  0  0  0  0
   51.9607   99.9722   31.2911 H   0  0  0  0  0  0
   51.4901  103.6809   29.1819 H   0  0  0  0  0  0
   50.8394  102.4750   27.1979 H   0  0  0  0  0  0
   50.9949   97.6939   26.9561 H   0  0  0  0  0  0
   49.2102   99.6523   23.9066 H   0  0  0  0  0  0
   49.6571  101.5078   25.5142 H   0  0  0  0  0  0
   53.0836  101.1687   32.4766 H   0  0  0  0  0  0
   53.2204  103.5142   34.0810 H   0  0  0  0  0  0
   53.3486  101.8632   34.6161 H   0  0  0  0  0  0
   51.0656  100.4762   34.7340 H   0  0  0  0  0  0
   48.8444  100.5827   35.8105 H   0  0  0  0  0  0
   47.8625  102.7602   36.4271 H   0  0  0  0  0  0
   51.3262  104.7646   34.8868 H   0  0  0  0  0  0
  1  2  1  0  0  0
  1 25  1  0  0  0
  1 26  1  0  0  0
  1 27  1  0  0  0
  2  3  1  0  0  0
  3  4  2  0  0  0
  3  8  1  0  0  0
  4  5  1  0  0  0
  4 28  1  0  0  0
  5  6  2  0  0  0
  5 14  1  0  0  0
  6  7  1  0  0  0
  6 29  1  0  0  0
  7  8  2  0  0  0
  7 30  1  0  0  0
  8  9  1  0  0  0
  9 10  1  0  0  0
  9 13  2  0  0  0
 10 11  2  0  0  0
 10 31  1  0  0  0
 11 12  1  0  0  0
 12 13  1  0  0  0
 12 32  1  0  0  0
 13 33  1  0  0  0
 14 15  2  0  0  0
 14 16  1  0  0  0
 16 17  1  0  0  0
 16 34  1  0  0  0
 17 18  1  0  0  0
 17 35  1  0  0  0
 17 36  1  0  0  0
 18 19  2  0  0  0
 18 24  1  0  0  0
 19 20  1  0  0  0
 19 37  1  0  0  0
 20 21  2  0  0  0
 20 38  1  0  0  0
 21 22  1  0  0  0
 21 39  1  0  0  0
 22 23  1  0  0  0
 22 24  2  0  0  0
 24 40  1  0  0  0
M  END
> <s_m_entry_id>
27872

> <s_m_entry_name>
dock_pv.33

> <s_m_Source_Path>
/home/csk/Desktop/cluster/DUD-E-result/rock1

> <s_m_Source_File>
dock_pv.maegz

> <i_m_Source_File_Index>
33

> <chembl_id>
CHEMBL3987001

> <chembl_pref_name>
None

> <i_lp_mmshare_version>
53161

> <r_lp_tautomer_probability>
0.5

> <s_lp_Force_Field>
OPLS_2005

> <r_lp_Energy>
20.530791

> <b_lp_Chiralities_Consistent>
1

> <s_lp_Variant>
CHEMBL3231_lig609-1

> <s_i_glide_gridfile>
glide-grid_2etr

> <i_i_glide_lignum>
895

> <i_i_glide_rotatable_bonds>
6

> <r_i_docking_score>
-8.82104770251976

> <r_i_glide_ligand_efficiency>
-0.367543654271657

> <r_i_glide_ligand_efficiency_sa>
-1.06017935376192

> <r_i_glide_ligand_efficiency_ln>
-2.11128148671678

> <r_i_glide_gscore>
-8.82104770251976

> <r_i_glide_lipo>
-3.18166684695834

> <r_i_glide_hbond>
-0.677455704407567

> <r_i_glide_metal>
0

> <r_i_glide_rewards>
-2.03219330997675

> <r_i_glide_evdw>
-43.0928077697754

> <r_i_glide_ecoul>
-7.83299255371094

> <r_i_glide_erotb>
0.4543035052958

> <r_i_glide_esite>
-0.0544460749274839

> <r_i_glide_emodel>
-76.4296637873404

> <r_i_glide_energy>
-50.9258003234863

> <r_i_glide_einternal>
3.29407572746277

> <i_i_glide_confnum>
5

> <i_i_glide_posenum>
286

> <r_i_glide_eff_state_penalty>
0

> <s_user_duplicate_titles>
CHEMBL3231_lig609

> <i_f3d_flags>
0

> <s_m_subgroup_title>
dock_pv

> <s_m_subgroupid>
dock_pv

> <b_m_subgroup_collapsed>
1

$$$$
CHEMBL3231_lig662
                    3D
 Schrodinger Suite 2021-1.
 52 55  0  0  1  0            999 V2000
   50.9528   97.9318   29.7177 C   0  0  0  0  0  0
   51.9613   98.6801   29.0439 O   0  0  0  0  0  0
   51.7295  100.0333   29.0077 C   0  0  0  0  0  0
   52.2018  100.8052   30.0750 C   0  0  0  0  0  0
   51.9596  102.1843   30.1272 C   0  0  0  0  0  0
   51.2459  102.7838   29.0891 C   0  0  0  0  0  0
   50.8078  102.0282   28.0104 C   0  0  0  0  0  0
   51.0483  100.6498   27.9390 C   0  0  0  0  0  0
   50.5529   99.9324   26.7173 C   0  0  0  0  0  0
   50.6124   98.5684   26.3667 C   0  0  0  0  0  0
   50.0444   98.2895   25.2147 N   0  0  0  0  0  0
   49.6428   99.4709   24.7604 N   0  0  0  0  0  0
   49.9180  100.4935   25.6160 C   0  0  0  0  0  0
   52.4028  103.0244   31.2913 C   0  0  0  0  0  0
   51.6538  103.9012   31.7289 O   0  0  0  0  0  0
   53.6302  102.7711   31.7785 N   0  0  0  0  0  0
   54.2198  103.4261   32.9488 C   0  0  0  0  0  0
   53.8031  102.7745   34.2657 C   0  0  0  0  0  0
   54.7131  102.0022   34.9982 C   0  0  0  0  0  0
   54.3207  101.4032   36.1969 C   0  0  0  0  0  0
   53.0175  101.5691   36.6683 C   0  0  0  0  0  0
   52.1029  102.3480   35.9539 C   0  0  0  0  0  0
   52.5108  102.9644   34.7678 C   0  0  0  0  0  0
   50.7927  102.4887   36.4097 N   0  0  0  0  0  0
   49.6683  101.7908   35.7807 C   0  0  0  0  0  0
   48.5210  102.7980   35.7244 C   0  0  0  0  0  0
   48.7631  103.6364   36.9620 C   0  0  0  0  0  0
   50.2833  103.7492   36.9516 C   0  0  0  0  0  0
   51.2624   96.8981   29.8571 H   0  0  0  0  0  0
   50.7191   98.3385   30.7031 H   0  0  0  0  0  0
   50.0430   97.9012   29.1213 H   0  0  0  0  0  0
   52.7317  100.3109   30.8769 H   0  0  0  0  0  0
   51.0437  103.8446   29.0999 H   0  0  0  0  0  0
   50.2771  102.5414   27.2237 H   0  0  0  0  0  0
   51.0632   97.7798   26.9480 H   0  0  0  0  0  0
   49.1825   99.5791   23.8607 H   0  0  0  0  0  0
   49.6379  101.5045   25.3653 H   0  0  0  0  0  0
   54.1857  102.0534   31.3338 H   0  0  0  0  0  0
   53.9372  104.4831   32.9748 H   0  0  0  0  0  0
   55.3067  103.4086   32.8488 H   0  0  0  0  0  0
   55.7221  101.8533   34.6378 H   0  0  0  0  0  0
   55.0232  100.7989   36.7535 H   0  0  0  0  0  0
   52.7163  101.0861   37.5865 H   0  0  0  0  0  0
   51.8051  103.5709   34.2212 H   0  0  0  0  0  0
   49.3252  100.9538   36.3912 H   0  0  0  0  0  0
   49.8927  101.5244   34.7459 H   0  0  0  0  0  0
   47.5495  102.3065   35.7329 H   0  0  0  0  0  0
   48.5705  103.3926   34.8115 H   0  0  0  0  0  0
   48.2727  104.6088   36.9064 H   0  0  0  0  0  0
   48.4144  103.1447   37.8719 H   0  0  0  0  0  0
   50.5849  104.5906   36.3251 H   0  0  0  0  0  0
   50.6787  103.9016   37.9566 H   0  0  0  0  0  0
  1  2  1  0  0  0
  1 29  1  0  0  0
  1 30  1  0  0  0
  1 31  1  0  0  0
  2  3  1  0  0  0
  3  4  2  0  0  0
  3  8  1  0  0  0
  4  5  1  0  0  0
  4 32  1  0  0  0
  5  6  2  0  0  0
  5 14  1  0  0  0
  6  7  1  0  0  0
  6 33  1  0  0  0
  7  8  2  0  0  0
  7 34  1  0  0  0
  8  9  1  0  0  0
  9 10  1  0  0  0
  9 13  2  0  0  0
 10 11  2  0  0  0
 10 35  1  0  0  0
 11 12  1  0  0  0
 12 13  1  0  0  0
 12 36  1  0  0  0
 13 37  1  0  0  0
 14 15  2  0  0  0
 14 16  1  0  0  0
 16 17  1  0  0  0
 16 38  1  0  0  0
 17 18  1  0  0  0
 17 39  1  0  0  0
 17 40  1  0  0  0
 18 19  2  0  0  0
 18 23  1  0  0  0
 19 20  1  0  0  0
 19 41  1  0  0  0
 20 21  2  0  0  0
 20 42  1  0  0  0
 21 22  1  0  0  0
 21 43  1  0  0  0
 22 23  2  0  0  0
 22 24  1  0  0  0
 23 44  1  0  0  0
 24 25  1  0  0  0
 24 28  1  0  0  0
 25 26  1  0  0  0
 25 45  1  0  0  0
 25 46  1  0  0  0
 26 27  1  0  0  0
 26 47  1  0  0  0
 26 48  1  0  0  0
 27 28  1  0  0  0
 27 49  1  0  0  0
 27 50  1  0  0  0
 28 51  1  0  0  0
 28 52  1  0  0  0
M  END
> <s_m_entry_id>
27873

> <s_m_entry_name>
dock_pv.34

> <s_m_Source_Path>
/home/csk/Desktop/cluster/DUD-E-result/rock1

> <s_m_Source_File>
dock_pv.maegz

> <i_m_Source_File_Index>
34

> <chembl_id>
CHEMBL3974586

> <chembl_pref_name>
None

> <i_lp_mmshare_version>
53161

> <r_lp_tautomer_probability>
0.5

> <s_lp_Force_Field>
OPLS_2005

> <r_lp_Energy>
48.5007

> <b_lp_Chiralities_Consistent>
1

> <s_lp_Variant>
CHEMBL3231_lig662-1

> <s_i_glide_gridfile>
glide-grid_2etr

> <i_i_glide_lignum>
952

> <i_i_glide_rotatable_bonds>
7

> <r_i_docking_score>
-8.81676189542735

> <r_i_glide_ligand_efficiency>
-0.31488435340812

> <r_i_glide_ligand_efficiency_sa>
-0.956174353913239

> <r_i_glide_ligand_efficiency_ln>
-2.03516751684255

> <r_i_glide_gscore>
-8.81676189542735

> <r_i_glide_lipo>
-3.37115432838605

> <r_i_glide_hbond>
-0.679095028020487

> <r_i_glide_metal>
0

> <r_i_glide_rewards>
-1.80227816354331

> <r_i_glide_evdw>
-44.4149856567383

> <r_i_glide_ecoul>
-8.24800395965576

> <r_i_glide_erotb>
0.573703527650778

> <r_i_glide_esite>
-0.0799880263430109

> <r_i_glide_emodel>
-73.1734835707581

> <r_i_glide_energy>
-52.662989616394

> <r_i_glide_einternal>
17.5624179840088

> <i_i_glide_confnum>
113

> <i_i_glide_posenum>
156

> <r_i_glide_eff_state_penalty>
0

> <s_user_duplicate_titles>
CHEMBL3231_lig662

> <i_f3d_flags>
0

> <s_m_subgroup_title>
dock_pv

> <s_m_subgroupid>
dock_pv

> <b_m_subgroup_collapsed>
1

$$$$
CHEMBL3231_lig720
                    3D
 Schrodinger Suite 2021-1.
 39 41  0  0  1  0            999 V2000
   51.7871   98.3184   29.2200 C   0  0  0  0  0  0
   51.5459   99.8212   29.1997 C   0  0  0  0  0  0
   51.8561  100.5360   30.3625 C   0  0  0  0  0  0
   51.6445  101.9210   30.4511 C   0  0  0  0  0  0
   51.1496  102.5841   29.3221 C   0  0  0  0  0  0
   50.8440  101.8847   28.1611 C   0  0  0  0  0  0
   51.0308  100.4981   28.0734 C   0  0  0  0  0  0
   50.6390   99.8524   26.7730 C   0  0  0  0  0  0
   50.3592   98.5052   26.4660 C   0  0  0  0  0  0
   50.0422   98.3000   25.2117 N   0  0  0  0  0  0
   50.0433   99.5125   24.6688 N   0  0  0  0  0  0
   50.4319  100.4797   25.5466 C   0  0  0  0  0  0
   51.8845  102.6947   31.7308 C   0  0  0  0  0  0
   51.6463  103.9027   31.7796 O   0  0  0  0  0  0
   52.3110  101.9996   32.8018 N   0  0  0  0  0  0
   52.5361  102.5572   34.1376 C   0  0  0  0  0  0
   51.2788  103.0830   34.8359 C   0  0  0  0  0  0
   51.1381  104.4639   35.0313 C   0  0  0  0  0  0
   50.0183  104.9764   35.6864 C   0  0  0  0  0  0
   49.0346  104.1128   36.1632 C   0  0  0  0  0  0
   47.9591  104.6118   36.8110 F   0  0  0  0  0  0
   49.1644  102.7383   35.9788 C   0  0  0  0  0  0
   50.2798  102.2178   35.3171 C   0  0  0  0  0  0
   50.3914  100.5027   35.1188 Cl  0  0  0  0  0  0
   52.2593   98.0035   28.2905 H   0  0  0  0  0  0
   52.4580   98.0191   30.0285 H   0  0  0  0  0  0
   50.8484   97.7764   29.3430 H   0  0  0  0  0  0
   52.2394   99.9859   31.2099 H   0  0  0  0  0  0
   50.9802  103.6515   29.3365 H   0  0  0  0  0  0
   50.4447  102.4423   27.3274 H   0  0  0  0  0  0
   50.3788   97.6704   27.1480 H   0  0  0  0  0  0
   49.7874   99.6750   23.7015 H   0  0  0  0  0  0
   50.5075  101.5044   25.2234 H   0  0  0  0  0  0
   52.5312  101.0234   32.6799 H   0  0  0  0  0  0
   53.3004  103.3360   34.0793 H   0  0  0  0  0  0
   52.9756  101.7793   34.7635 H   0  0  0  0  0  0
   51.8955  105.1464   34.6685 H   0  0  0  0  0  0
   49.9190  106.0418   35.8348 H   0  0  0  0  0  0
   48.4011  102.0763   36.3583 H   0  0  0  0  0  0
  1  2  1  0  0  0
  1 25  1  0  0  0
  1 26  1  0  0  0
  1 27  1  0  0  0
  2  3  2  0  0  0
  2  7  1  0  0  0
  3  4  1  0  0  0
  3 28  1  0  0  0
  4  5  2  0  0  0
  4 13  1  0  0  0
  5  6  1  0  0  0
  5 29  1  0  0  0
  6  7  2  0  0  0
  6 30  1  0  0  0
  7  8  1  0  0  0
  8  9  1  0  0  0
  8 12  2  0  0  0
  9 10  2  0  0  0
  9 31  1  0  0  0
 10 11  1  0  0  0
 11 12  1  0  0  0
 11 32  1  0  0  0
 12 33  1  0  0  0
 13 14  2  0  0  0
 13 15  1  0  0  0
 15 16  1  0  0  0
 15 34  1  0  0  0
 16 17  1  0  0  0
 16 35  1  0  0  0
 16 36  1  0  0  0
 17 18  2  0  0  0
 17 23  1  0  0  0
 18 19  1  0  0  0
 18 37  1  0  0  0
 19 20  2  0  0  0
 19 38  1  0  0  0
 20 21  1  0  0  0
 20 22  1  0  0  0
 22 23  2  0  0  0
 22 39  1  0  0  0
 23 24  1  0  0  0
M  END
> <s_m_entry_id>
27874

> <s_m_entry_name>
dock_pv.35

> <s_m_Source_Path>
/home/csk/Desktop/cluster/DUD-E-result/rock1

> <s_m_Source_File>
dock_pv.maegz

> <i_m_Source_File_Index>
35

> <chembl_id>
CHEMBL3982461

> <chembl_pref_name>
None

> <i_lp_mmshare_version>
53161

> <r_lp_tautomer_probability>
0.5

> <s_lp_Force_Field>
OPLS_2005

> <r_lp_Energy>
18.61138

> <b_lp_Chiralities_Consistent>
1

> <s_lp_Variant>
CHEMBL3231_lig720-1

> <s_i_glide_gridfile>
glide-grid_2etr

> <i_i_glide_lignum>
1026

> <i_i_glide_rotatable_bonds>
5

> <r_i_docking_score>
-8.81442031828312

> <r_i_glide_ligand_efficiency>
-0.367267513261797

> <r_i_glide_ligand_efficiency_sa>
-1.05938282525713

> <r_i_glide_ligand_efficiency_ln>
-2.10969524955811

> <r_i_glide_gscore>
-8.81442031828312

> <r_i_glide_lipo>
-3.16087645883838

> <r_i_glide_hbond>
-0.673589773298685

> <r_i_glide_metal>
0

> <r_i_glide_rewards>
-2.38222253589925

> <r_i_glide_evdw>
-39.8862190246582

> <r_i_glide_ecoul>
-6.65017604827881

> <r_i_glide_erotb>
0.449645881122874

> <r_i_glide_esite>
-0.0555400728949425

> <r_i_glide_emodel>
-70.8597441907733

> <r_i_glide_energy>
-46.536395072937

> <r_i_glide_einternal>
2.616703748703

> <i_i_glide_confnum>
4

> <i_i_glide_posenum>
352

> <r_i_glide_eff_state_penalty>
0

> <s_user_duplicate_titles>
CHEMBL3231_lig720

> <i_f3d_flags>
0

> <s_m_subgroup_title>
dock_pv

> <s_m_subgroupid>
dock_pv

> <b_m_subgroup_collapsed>
1

$$$$
CHEMBL3231_lig521
                    3D
 Schrodinger Suite 2021-1.
 62 66  0  0  1  0            999 V2000
   52.5165  101.9812   33.7089 C   0  0  1  0  0  0
   52.7538  102.3817   32.2374 C   0  0  0  0  0  0
   53.7953  103.1839   31.9300 C   0  0  0  0  0  0
   54.6920  103.5758   32.8729 N   0  0  0  0  0  0
   54.6925  103.1952   34.1702 C   0  0  0  0  0  0
   53.7698  102.2422   34.4770 N   0  0  0  0  0  0
   55.3915  103.7451   35.0171 O   0  0  0  0  0  0
   54.1793  103.6468   30.5336 C   0  0  0  0  0  0
   51.8003  101.9857   31.2315 C   0  0  0  0  0  0
   52.1480  100.8529   30.5847 N   0  0  0  0  0  0
   50.8371  102.7029   30.9568 O   0  0  0  0  0  0
   51.5960  100.3295   29.3975 C   0  0  0  0  0  0
   51.0618  101.1468   28.3882 C   0  0  0  0  0  0
   51.2071   98.3338   28.0492 C   0  0  0  0  0  0
   51.6683   98.9466   29.2169 C   0  0  0  0  0  0
   50.6806   99.1381   27.0268 C   0  0  0  0  0  0
   50.6090  100.5547   27.1987 C   0  0  0  0  0  0
   50.0436  101.0157   25.9848 C   0  0  0  0  0  0
   49.8373   99.8899   25.2261 N   0  0  0  0  0  0
   50.1981   98.7329   25.8103 N   0  0  0  0  0  0
   51.2684  102.5851   34.3668 C   0  0  0  0  0  0
   51.1511  103.9686   34.5519 C   0  0  0  0  0  0
   50.0175  104.5353   35.1722 C   0  0  0  0  0  0
   49.0001  103.6616   35.6112 C   0  0  0  0  0  0
   49.1152  102.2862   35.4302 C   0  0  0  0  0  0
   50.2401  101.7505   34.8121 C   0  0  0  0  0  0
   47.8749  104.1170   36.2156 F   0  0  0  0  0  0
   49.8910  106.0371   35.3709 C   0  0  0  0  0  0
   50.8362  106.8186   34.8111 N   0  0  0  0  0  0
   48.9555  106.5148   36.0110 O   0  0  0  0  0  0
   50.8997  108.2795   34.9084 C   0  0  0  0  0  0
   52.1579  108.7569   35.6586 C   0  0  0  0  0  0
   52.1636  110.2442   35.9915 C   0  0  0  0  0  0
   51.8820  111.1007   34.9714 N   0  0  0  0  0  0
   51.8720  112.4303   35.2441 C   0  0  0  0  0  0
   52.1368  112.9516   36.5112 C   0  0  0  0  0  0
   52.4289  112.0613   37.5457 C   0  0  0  0  0  0
   52.4459  110.6887   37.2883 C   0  0  0  0  0  0
   52.3677  100.9009   33.7507 H   0  0  0  0  0  0
   55.4503  104.1868   32.6064 H   0  0  0  0  0  0
   53.7941  101.9293   35.4348 H   0  0  0  0  0  0
   53.6889  103.1015   29.7263 H   0  0  0  0  0  0
   53.9642  104.7030   30.4063 H   0  0  0  0  0  0
   55.2480  103.5026   30.4110 H   0  0  0  0  0  0
   52.8666  100.2917   31.0189 H   0  0  0  0  0  0
   51.0280  102.2208   28.4999 H   0  0  0  0  0  0
   51.2507   97.2600   27.9391 H   0  0  0  0  0  0
   52.0875   98.3222   29.9940 H   0  0  0  0  0  0
   49.7753  101.9920   25.6114 H   0  0  0  0  0  0
   49.4367   99.9044   24.2958 H   0  0  0  0  0  0
   51.9664  104.5905   34.2093 H   0  0  0  0  0  0
   48.3249  101.6342   35.7742 H   0  0  0  0  0  0
   50.3037  100.6799   34.6858 H   0  0  0  0  0  0
   51.5446  106.4085   34.2176 H   0  0  0  0  0  0
   50.0254  108.6832   35.4253 H   0  0  0  0  0  0
   50.8368  108.7462   33.9234 H   0  0  0  0  0  0
   53.0430  108.5248   35.0656 H   0  0  0  0  0  0
   52.2561  108.1903   36.5855 H   0  0  0  0  0  0
   51.6434  113.0881   34.4205 H   0  0  0  0  0  0
   52.1171  114.0170   36.6870 H   0  0  0  0  0  0
   52.6415  112.4328   38.5380 H   0  0  0  0  0  0
   52.6707  109.9912   38.0814 H   0  0  0  0  0  0
  1  2  1  0  0  0
  1  6  1  0  0  0
  1 21  1  0  0  0
  1 39  1  0  0  0
  2  3  2  0  0  0
  2  9  1  0  0  0
  3  4  1  0  0  0
  3  8  1  0  0  0
  4  5  1  0  0  0
  4 40  1  0  0  0
  5  6  1  0  0  0
  5  7  2  0  0  0
  6 41  1  0  0  0
  8 42  1  0  0  0
  8 43  1  0  0  0
  8 44  1  0  0  0
  9 10  1  0  0  0
  9 11  2  0  0  0
 10 45  1  0  0  0
 10 12  1  0  0  0
 12 15  1  0  0  0
 12 13  2  0  0  0
 13 46  1  0  0  0
 13 17  1  0  0  0
 14 16  1  0  0  0
 14 47  1  0  0  0
 14 15  2  0  0  0
 15 48  1  0  0  0
 16 20  2  0  0  0
 16 17  1  0  0  0
 17 18  2  0  0  0
 18 19  1  0  0  0
 18 49  1  0  0  0
 19 50  1  0  0  0
 19 20  1  0  0  0
 21 22  2  0  0  0
 21 26  1  0  0  0
 22 23  1  0  0  0
 22 51  1  0  0  0
 23 24  2  0  0  0
 23 28  1  0  0  0
 24 25  1  0  0  0
 24 27  1  0  0  0
 25 26  2  0  0  0
 25 52  1  0  0  0
 26 53  1  0  0  0
 28 29  1  0  0  0
 28 30  2  0  0  0
 29 31  1  0  0  0
 29 54  1  0  0  0
 31 32  1  0  0  0
 31 55  1  0  0  0
 31 56  1  0  0  0
 32 33  1  0  0  0
 32 57  1  0  0  0
 32 58  1  0  0  0
 33 34  2  0  0  0
 33 38  1  0  0  0
 34 35  1  0  0  0
 35 36  2  0  0  0
 35 59  1  0  0  0
 36 37  1  0  0  0
 36 60  1  0  0  0
 37 38  2  0  0  0
 37 61  1  0  0  0
 38 62  1  0  0  0
M  END
> <s_m_entry_id>
27877

> <s_m_entry_name>
dock_pv.38

> <s_m_Source_Path>
/home/csk/Desktop/cluster/DUD-E-result/rock1

> <s_m_Source_File>
dock_pv.maegz

> <i_m_Source_File_Index>
38

> <chembl_id>
CHEMBL3810107

> <chembl_pref_name>
None

> <i_lp_mmshare_version>
53161

> <r_lp_tautomer_probability>
0.019607843137214

> <s_lp_Force_Field>
OPLS_2005

> <r_lp_Energy>
62.194463

> <b_lp_Chiralities_Consistent>
1

> <s_lp_Variant>
CHEMBL3231_lig521-4

> <s_i_glide_gridfile>
glide-grid_2etr

> <i_i_glide_lignum>
764

> <i_i_glide_rotatable_bonds>
9

> <r_i_docking_score>
-8.80057377283592

> <r_i_glide_ligand_efficiency>
-0.231594046653577

> <r_i_glide_ligand_efficiency_sa>
-0.778613488266286

> <r_i_glide_ligand_efficiency_ln>
-1.89766259207466

> <r_i_glide_gscore>
-8.80057377283592

> <r_i_glide_lipo>
-2.65355503555882

> <r_i_glide_hbond>
-0.309656902963541

> <r_i_glide_metal>
0

> <r_i_glide_rewards>
-1.62079494418394

> <r_i_glide_evdw>
-60.0038833618164

> <r_i_glide_ecoul>
-11.4592704772949

> <r_i_glide_erotb>
0.622107419055703

> <r_i_glide_esite>
-0.119589569500268

> <r_i_glide_emodel>
-103.764085512992

> <r_i_glide_energy>
-71.4631538391113

> <r_i_glide_einternal>
12.6724681854248

> <i_i_glide_confnum>
14

> <i_i_glide_posenum>
81

> <r_i_glide_eff_state_penalty>
0

> <s_user_duplicate_titles>
CHEMBL3231_lig521

> <i_f3d_flags>
0

> <s_m_subgroup_title>
dock_pv

> <s_m_subgroupid>
dock_pv

> <b_m_subgroup_collapsed>
1

$$$$
CHEMBL3231_lig664
                    3D
 Schrodinger Suite 2021-1.
 40 42  0  0  1  0            999 V2000
   51.3948   97.4949   30.3849 C   0  0  0  0  0  0
   51.2430   98.2872   29.2088 O   0  0  0  0  0  0
   51.3384   99.6666   29.2795 C   0  0  0  0  0  0
   51.6900  100.3351   30.4655 C   0  0  0  0  0  0
   51.7139  101.7365   30.5463 C   0  0  0  0  0  0
   51.4266  102.4690   29.3910 C   0  0  0  0  0  0
   51.0851  101.8229   28.2086 C   0  0  0  0  0  0
   51.0235  100.4258   28.1336 C   0  0  0  0  0  0
   50.5660   99.8248   26.8318 C   0  0  0  0  0  0
   50.5606   98.4808   26.4038 C   0  0  0  0  0  0
   50.0430   98.3031   25.2110 N   0  0  0  0  0  0
   49.7161   99.5308   24.8110 N   0  0  0  0  0  0
   50.0152  100.4860   25.7384 C   0  0  0  0  0  0
   51.9605  102.4588   31.8541 C   0  0  0  0  0  0
   51.6430  103.6424   31.9818 O   0  0  0  0  0  0
   52.4886  101.7349   32.8584 N   0  0  0  0  0  0
   52.7013  102.1993   34.2312 C   0  0  0  0  0  0
   51.4401  102.6592   34.9678 C   0  0  0  0  0  0
   50.3900  101.7638   35.2178 C   0  0  0  0  0  0
   50.4721  100.4764   34.8095 F   0  0  0  0  0  0
   49.2474  102.1916   35.8948 C   0  0  0  0  0  0
   49.1455  103.5107   36.3302 C   0  0  0  0  0  0
   48.0430  103.9260   36.9913 F   0  0  0  0  0  0
   50.1836  104.4053   36.0863 C   0  0  0  0  0  0
   51.3268  103.9839   35.4097 C   0  0  0  0  0  0
   52.3234  104.8712   35.1924 F   0  0  0  0  0  0
   51.2425   96.4456   30.1323 H   0  0  0  0  0  0
   52.3969   97.5849   30.8069 H   0  0  0  0  0  0
   50.6576   97.7568   31.1455 H   0  0  0  0  0  0
   51.8997   99.7569   31.3506 H   0  0  0  0  0  0
   51.4443  103.5500   29.4037 H   0  0  0  0  0  0
   50.8430  102.4317   27.3511 H   0  0  0  0  0  0
   50.9228   97.6314   26.9629 H   0  0  0  0  0  0
   49.2901   99.7114   23.9058 H   0  0  0  0  0  0
   49.7903  101.5249   25.5482 H   0  0  0  0  0  0
   52.8597  100.8246   32.6327 H   0  0  0  0  0  0
   53.4812  102.9641   34.2410 H   0  0  0  0  0  0
   53.1180  101.3587   34.7887 H   0  0  0  0  0  0
   48.4421  101.4995   36.0888 H   0  0  0  0  0  0
   50.1072  105.4277   36.4236 H   0  0  0  0  0  0
  1  2  1  0  0  0
  1 27  1  0  0  0
  1 28  1  0  0  0
  1 29  1  0  0  0
  2  3  1  0  0  0
  3  4  2  0  0  0
  3  8  1  0  0  0
  4  5  1  0  0  0
  4 30  1  0  0  0
  5  6  2  0  0  0
  5 14  1  0  0  0
  6  7  1  0  0  0
  6 31  1  0  0  0
  7  8  2  0  0  0
  7 32  1  0  0  0
  8  9  1  0  0  0
  9 10  1  0  0  0
  9 13  2  0  0  0
 10 11  2  0  0  0
 10 33  1  0  0  0
 11 12  1  0  0  0
 12 13  1  0  0  0
 12 34  1  0  0  0
 13 35  1  0  0  0
 14 15  2  0  0  0
 14 16  1  0  0  0
 16 17  1  0  0  0
 16 36  1  0  0  0
 17 18  1  0  0  0
 17 37  1  0  0  0
 17 38  1  0  0  0
 18 19  2  0  0  0
 18 25  1  0  0  0
 19 20  1  0  0  0
 19 21  1  0  0  0
 21 22  2  0  0  0
 21 39  1  0  0  0
 22 23  1  0  0  0
 22 24  1  0  0  0
 24 25  2  0  0  0
 24 40  1  0  0  0
 25 26  1  0  0  0
M  END
> <s_m_entry_id>
27878

> <s_m_entry_name>
dock_pv.39

> <s_m_Source_Path>
/home/csk/Desktop/cluster/DUD-E-result/rock1

> <s_m_Source_File>
dock_pv.maegz

> <i_m_Source_File_Index>
39

> <chembl_id>
CHEMBL3985933

> <chembl_pref_name>
None

> <i_lp_mmshare_version>
53161

> <r_lp_tautomer_probability>
0.5

> <s_lp_Force_Field>
OPLS_2005

> <r_lp_Energy>
20.680875

> <b_lp_Chiralities_Consistent>
1

> <s_lp_Variant>
CHEMBL3231_lig664-1

> <s_i_glide_gridfile>
glide-grid_2etr

> <i_i_glide_lignum>
954

> <i_i_glide_rotatable_bonds>
6

> <r_i_docking_score>
-8.78952276822945

> <r_i_glide_ligand_efficiency>
-0.338058568008825

> <r_i_glide_ligand_efficiency_sa>
-1.00149717752991

> <r_i_glide_ligand_efficiency_ln>
-2.06419058134212

> <r_i_glide_gscore>
-8.78952276822945

> <r_i_glide_lipo>
-2.76022950418316

> <r_i_glide_hbond>
-0.654019296571171

> <r_i_glide_metal>
0

> <r_i_glide_rewards>
-2.63786506166729

> <r_i_glide_evdw>
-41.8496360778809

> <r_i_glide_ecoul>
-6.61116456985474

> <r_i_glide_erotb>
0.411561174902362

> <r_i_glide_esite>
-0.0648135913379334

> <r_i_glide_emodel>
-73.0085226132902

> <r_i_glide_energy>
-48.4608006477356

> <r_i_glide_einternal>
1.61108636856079

> <i_i_glide_confnum>
4

> <i_i_glide_posenum>
164

> <r_i_glide_eff_state_penalty>
0

> <s_user_duplicate_titles>
CHEMBL3231_lig664

> <i_f3d_flags>
0

> <s_m_subgroup_title>
dock_pv

> <s_m_subgroupid>
dock_pv

> <b_m_subgroup_collapsed>
1

$$$$
CHEMBL3231_lig592
                    3D
 Schrodinger Suite 2021-1.
 40 42  0  0  1  0            999 V2000
   51.4372   97.6590   30.4110 C   0  0  0  0  0  0
   51.2430   98.4108   29.2155 O   0  0  0  0  0  0
   51.3618   99.7909   29.2296 C   0  0  0  0  0  0
   51.7508  100.5073   30.3771 C   0  0  0  0  0  0
   51.7812  101.9123   30.3928 C   0  0  0  0  0  0
   51.4722  102.5969   29.2152 C   0  0  0  0  0  0
   51.1015  101.9027   28.0716 C   0  0  0  0  0  0
   51.0290  100.5059   28.0609 C   0  0  0  0  0  0
   50.5431   99.8635   26.7937 C   0  0  0  0  0  0
   50.5836   98.5149   26.3876 C   0  0  0  0  0  0
   50.0423   98.2997   25.2110 N   0  0  0  0  0  0
   49.6432   99.5036   24.8104 N   0  0  0  0  0  0
   49.9224  100.4838   25.7150 C   0  0  0  0  0  0
   52.0375  102.6948   31.6602 C   0  0  0  0  0  0
   51.6433  103.8584   31.7598 O   0  0  0  0  0  0
   52.6494  102.0496   32.6700 N   0  0  0  0  0  0
   52.7269  102.5508   34.0431 C   0  0  0  0  0  0
   51.3626  102.6482   34.7235 C   0  0  0  0  0  0
   50.6398  101.4842   35.0106 C   0  0  0  0  0  0
   49.3830  101.5658   35.6102 C   0  0  0  0  0  0
   48.8429  102.8120   35.9343 C   0  0  0  0  0  0
   49.5616  103.9756   35.6624 C   0  0  0  0  0  0
   49.0351  105.1839   35.9732 F   0  0  0  0  0  0
   50.8206  103.8947   35.0631 C   0  0  0  0  0  0
   51.2431   96.6054   30.2099 H   0  0  0  0  0  0
   52.4619   97.7416   30.7774 H   0  0  0  0  0  0
   50.7477   97.9698   31.1972 H   0  0  0  0  0  0
   51.9749   99.9694   31.2835 H   0  0  0  0  0  0
   51.4914  103.6787   29.1828 H   0  0  0  0  0  0
   50.8437  102.4743   27.1940 H   0  0  0  0  0  0
   51.0055   97.6948   26.9483 H   0  0  0  0  0  0
   49.1991   99.6543   23.9096 H   0  0  0  0  0  0
   49.6472  101.5092   25.5165 H   0  0  0  0  0  0
   53.0988  101.1674   32.4765 H   0  0  0  0  0  0
   53.2544  103.5074   34.0701 H   0  0  0  0  0  0
   53.3410  101.8524   34.6131 H   0  0  0  0  0  0
   51.0492  100.5164   34.7578 H   0  0  0  0  0  0
   48.8290  100.6649   35.8231 H   0  0  0  0  0  0
   47.8679  102.8772   36.3946 H   0  0  0  0  0  0
   51.3674  104.8030   34.8534 H   0  0  0  0  0  0
  1  2  1  0  0  0
  1 25  1  0  0  0
  1 26  1  0  0  0
  1 27  1  0  0  0
  2  3  1  0  0  0
  3  4  2  0  0  0
  3  8  1  0  0  0
  4  5  1  0  0  0
  4 28  1  0  0  0
  5  6  2  0  0  0
  5 14  1  0  0  0
  6  7  1  0  0  0
  6 29  1  0  0  0
  7  8  2  0  0  0
  7 30  1  0  0  0
  8  9  1  0  0  0
  9 10  1  0  0  0
  9 13  2  0  0  0
 10 11  2  0  0  0
 10 31  1  0  0  0
 11 12  1  0  0  0
 12 13  1  0  0  0
 12 32  1  0  0  0
 13 33  1  0  0  0
 14 15  2  0  0  0
 14 16  1  0  0  0
 16 17  1  0  0  0
 16 34  1  0  0  0
 17 18  1  0  0  0
 17 35  1  0  0  0
 17 36  1  0  0  0
 18 19  2  0  0  0
 18 24  1  0  0  0
 19 20  1  0  0  0
 19 37  1  0  0  0
 20 21  2  0  0  0
 20 38  1  0  0  0
 21 22  1  0  0  0
 21 39  1  0  0  0
 22 23  1  0  0  0
 22 24  2  0  0  0
 24 40  1  0  0  0
M  END
> <s_m_entry_id>
27879

> <s_m_entry_name>
dock_pv.40

> <s_m_Source_Path>
/home/csk/Desktop/cluster/DUD-E-result/rock1

> <s_m_Source_File>
dock_pv.maegz

> <i_m_Source_File_Index>
40

> <chembl_id>
CHEMBL3967386

> <chembl_pref_name>
None

> <i_lp_mmshare_version>
53161

> <r_lp_tautomer_probability>
0.5

> <s_lp_Force_Field>
OPLS_2005

> <r_lp_Energy>
20.691788

> <b_lp_Chiralities_Consistent>
1

> <s_lp_Variant>
CHEMBL3231_lig592-1

> <s_i_glide_gridfile>
glide-grid_2etr

> <i_i_glide_lignum>
877

> <i_i_glide_rotatable_bonds>
6

> <r_i_docking_score>
-8.78830886217007

> <r_i_glide_ligand_efficiency>
-0.366179535923753

> <r_i_glide_ligand_efficiency_sa>
-1.05624455556386

> <r_i_glide_ligand_efficiency_ln>
-2.10344557993361

> <r_i_glide_gscore>
-8.78830886217007

> <r_i_glide_lipo>
-2.86889360851212

> <r_i_glide_hbond>
-0.678148738106715

> <r_i_glide_metal>
0

> <r_i_glide_rewards>
-2.47958234939804

> <r_i_glide_evdw>
-40.6111679077148

> <r_i_glide_ecoul>
-7.81823921203613

> <r_i_glide_erotb>
0.495744185108779

> <r_i_glide_esite>
-0.0541340740708186

> <r_i_glide_emodel>
-72.807055244244

> <r_i_glide_energy>
-48.429407119751

> <r_i_glide_einternal>
2.98366260528564

> <i_i_glide_confnum>
10

> <i_i_glide_posenum>
220

> <r_i_glide_eff_state_penalty>
0

> <s_user_duplicate_titles>
CHEMBL3231_lig592

> <i_f3d_flags>
0

> <s_m_subgroup_title>
dock_pv

> <s_m_subgroupid>
dock_pv

> <b_m_subgroup_collapsed>
1

$$$$
CHEMBL3231_lig409
                    3D
 Schrodinger Suite 2021-1.
 43 46  0  0  1  0            999 V2000
   51.2466   99.8260   28.2090 C   0  0  0  0  0  0
   51.7321   98.9368   29.1822 C   0  0  0  0  0  0
   52.1305   99.3939   30.4532 C   0  0  0  0  0  0
   51.1583  101.1885   28.5057 C   0  0  0  0  0  0
   51.5397  101.6592   29.7616 C   0  0  0  0  0  0
   52.0428  100.7650   30.7122 C   0  0  0  0  0  0
   52.4039  101.2881   31.9544 N   0  0  0  0  0  0
   52.2255  102.6237   32.2520 C   0  0  0  0  0  0
   51.7203  103.4745   31.4301 N   0  0  0  0  0  0
   51.3524  103.1220   30.1263 C   0  0  0  0  0  0
   50.8473  103.9005   29.3164 O   0  0  0  0  0  0
   50.7646   99.3624   26.8757 C   0  0  0  0  0  0
   52.6225  103.0394   33.6835 C   0  0  1  0  0  0
   53.3573  104.3035   33.7409 N   0  0  0  0  0  0
   50.4371  100.1319   25.7668 C   0  0  0  0  0  0
   50.0053   99.2598   24.8106 N   0  0  0  0  0  0
   50.0436   97.9895   25.2112 N   0  0  0  0  0  0
   50.5025   98.0504   26.4408 C   0  0  0  0  0  0
   51.4216  102.9993   34.6487 C   0  0  0  0  0  0
   50.8145  101.7673   34.9372 C   0  0  0  0  0  0
   49.7213  101.6911   35.7983 C   0  0  0  0  0  0
   49.2306  102.8445   36.4032 C   0  0  0  0  0  0
   49.8235  104.0763   36.1322 C   0  0  0  0  0  0
   50.9036  104.1566   35.2538 C   0  0  0  0  0  0
   49.2397  105.5030   36.9008 Cl  0  0  0  0  0  0
   52.5517   98.5867   31.4995 O   0  0  0  0  0  0
   52.7435   97.1916   31.3140 C   0  0  0  0  0  0
   51.7691   97.8892   28.9448 H   0  0  0  0  0  0
   50.7643  101.8759   27.7683 H   0  0  0  0  0  0
   52.8046  100.6476   32.6215 H   0  0  0  0  0  0
   53.3304  102.3026   34.0673 H   0  0  0  0  0  0
   53.7122  104.4711   34.6738 H   0  0  0  0  0  0
   54.1592  104.2913   33.1150 H   0  0  0  0  0  0
   50.4551  101.1965   25.5818 H   0  0  0  0  0  0
   49.6766   99.5236   23.8877 H   0  0  0  0  0  0
   50.6333   97.1527   27.0283 H   0  0  0  0  0  0
   51.1874  100.8568   34.4891 H   0  0  0  0  0  0
   49.2608  100.7365   36.0050 H   0  0  0  0  0  0
   48.3911  102.7823   37.0792 H   0  0  0  0  0  0
   51.3429  105.1247   35.0521 H   0  0  0  0  0  0
   52.8425   96.7207   32.2912 H   0  0  0  0  0  0
   51.9099   96.7036   30.8116 H   0  0  0  0  0  0
   53.6755   96.9986   30.7867 H   0  0  0  0  0  0
  1  4  2  0  0  0
  1 12  1  0  0  0
  1  2  1  0  0  0
  2 28  1  0  0  0
  2  3  2  0  0  0
  3 26  1  0  0  0
  3  6  1  0  0  0
  4  5  1  0  0  0
  4 29  1  0  0  0
  5 10  1  0  0  0
  5  6  2  0  0  0
  6  7  1  0  0  0
  7 30  1  0  0  0
  7  8  1  0  0  0
  8 13  1  0  0  0
  8  9  2  0  0  0
  9 10  1  0  0  0
 10 11  2  0  0  0
 12 15  2  0  0  0
 12 18  1  0  0  0
 13 14  1  0  0  0
 13 19  1  0  0  0
 13 31  1  0  0  0
 14 32  1  0  0  0
 14 33  1  0  0  0
 15 16  1  0  0  0
 15 34  1  0  0  0
 16 17  1  0  0  0
 16 35  1  0  0  0
 17 18  2  0  0  0
 18 36  1  0  0  0
 19 20  2  0  0  0
 19 24  1  0  0  0
 20 21  1  0  0  0
 20 37  1  0  0  0
 21 22  2  0  0  0
 21 38  1  0  0  0
 22 23  1  0  0  0
 22 39  1  0  0  0
 23 24  2  0  0  0
 23 25  1  0  0  0
 24 40  1  0  0  0
 26 27  1  0  0  0
 27 41  1  0  0  0
 27 42  1  0  0  0
 27 43  1  0  0  0
M  END
> <s_m_entry_id>
27880

> <s_m_entry_name>
dock_pv.41

> <s_m_Source_Path>
/home/csk/Desktop/cluster/DUD-E-result/rock1

> <s_m_Source_File>
dock_pv.maegz

> <i_m_Source_File_Index>
41

> <chembl_id>
CHEMBL2333896

> <chembl_pref_name>
None

> <i_lp_mmshare_version>
53161

> <r_lp_tautomer_probability>
0.0616002225126304

> <s_lp_Force_Field>
OPLS_2005

> <r_lp_Energy>
20.004484

> <b_lp_Chiralities_Consistent>
1

> <s_lp_Variant>
CHEMBL3231_lig409-4

> <s_i_glide_gridfile>
glide-grid_2etr

> <i_i_glide_lignum>
582

> <i_i_glide_rotatable_bonds>
4

> <r_i_docking_score>
-8.7707583260321

> <r_i_glide_ligand_efficiency>
-0.324842900964152

> <r_i_glide_ligand_efficiency_sa>
-0.974528701821826

> <r_i_glide_ligand_efficiency_ln>
-2.04168794104838

> <r_i_glide_gscore>
-8.7707583260321

> <r_i_glide_lipo>
-2.97634468837563

> <r_i_glide_hbond>
-0.66555320775725

> <r_i_glide_metal>
0

> <r_i_glide_rewards>
-1.78635427983748

> <r_i_glide_evdw>
-47.1994857788086

> <r_i_glide_ecoul>
-8.11513328552246

> <r_i_glide_erotb>
0.279673542424914

> <r_i_glide_esite>
-0.0449354107178575

> <r_i_glide_emodel>
-81.8218113307389

> <r_i_glide_energy>
-55.3146190643311

> <r_i_glide_einternal>
2.25742053985596

> <i_i_glide_confnum>
1

> <i_i_glide_posenum>
1

> <r_i_glide_eff_state_penalty>
0

> <s_user_duplicate_titles>
CHEMBL3231_lig409,CHEMBL3231_lig409

> <i_f3d_flags>
0

> <s_m_subgroup_title>
dock_pv

> <s_m_subgroupid>
dock_pv

> <b_m_subgroup_collapsed>
1

$$$$
CHEMBL3231_lig437
                    3D
 Schrodinger Suite 2021-1.
 36 38  0  0  1  0            999 V2000
   48.8431  106.3029   36.0102 Cl  0  0  0  0  0  0
   49.3452  104.6589   35.8627 C   0  0  0  0  0  0
   48.4425  103.6289   36.1220 C   0  0  0  0  0  0
   48.8441  102.2993   35.9922 C   0  0  0  0  0  0
   50.1511  101.9974   35.6058 C   0  0  0  0  0  0
   51.0585  103.0271   35.3338 C   0  0  0  0  0  0
   52.4824  102.7046   34.8798 C   0  0  0  0  0  0
   52.6055  102.0954   33.5449 N   0  0  0  0  0  0
   52.0085  102.5389   32.4249 C   0  0  0  0  0  0
   51.2431  103.5018   32.4051 O   0  0  0  0  0  0
   52.3065  101.7686   31.3578 N   0  0  0  0  0  0
   51.7390  101.8842   30.0943 C   0  0  0  0  0  0
   51.5913  100.8431   29.3181 N   0  0  0  0  0  0
   51.0020  101.1337   28.1650 C   0  0  0  0  0  0
   50.6976  102.4887   28.0115 C   0  0  0  0  0  0
   51.2402  103.3940   29.3777 S   0  0  0  0  0  0
   50.6978  100.0649   27.1649 C   0  0  0  0  0  0
   50.2830  100.4261   25.8767 C   0  0  0  0  0  0
   49.9753   99.4277   24.9594 C   0  0  0  0  0  0
   50.0430   98.1080   25.2492 N   0  0  0  0  0  0
   50.4503   97.7614   26.4938 C   0  0  0  0  0  0
   50.7929   98.6980   27.4710 C   0  0  0  0  0  0
   50.6510  104.3591   35.4729 C   0  0  0  0  0  0
   47.4288  103.8565   36.4169 H   0  0  0  0  0  0
   48.1430  101.5031   36.1892 H   0  0  0  0  0  0
   50.4544  100.9656   35.5030 H   0  0  0  0  0  0
   53.1152  103.5940   34.9222 H   0  0  0  0  0  0
   52.9163  102.0069   35.5988 H   0  0  0  0  0  0
   53.3707  101.4447   33.4378 H   0  0  0  0  0  0
   52.8976  100.9645   31.5061 H   0  0  0  0  0  0
   50.2183  102.9931   27.1834 H   0  0  0  0  0  0
   50.1922  101.4583   25.5768 H   0  0  0  0  0  0
   49.6434   99.6891   23.9726 H   0  0  0  0  0  0
   50.5045   96.7037   26.7034 H   0  0  0  0  0  0
   51.1065   98.3615   28.4485 H   0  0  0  0  0  0
   51.3423  105.1610   35.2591 H   0  0  0  0  0  0
  1  2  1  0  0  0
  2  3  2  0  0  0
  2 23  1  0  0  0
  3  4  1  0  0  0
  3 24  1  0  0  0
  4  5  2  0  0  0
  4 25  1  0  0  0
  5  6  1  0  0  0
  5 26  1  0  0  0
  6  7  1  0  0  0
  6 23  2  0  0  0
  7  8  1  0  0  0
  7 27  1  0  0  0
  7 28  1  0  0  0
  8  9  1  0  0  0
  8 29  1  0  0  0
  9 10  2  0  0  0
  9 11  1  0  0  0
 11 12  1  0  0  0
 11 30  1  0  0  0
 12 13  2  0  0  0
 12 16  1  0  0  0
 13 14  1  0  0  0
 14 15  2  0  0  0
 14 17  1  0  0  0
 15 16  1  0  0  0
 15 31  1  0  0  0
 17 18  2  0  0  0
 17 22  1  0  0  0
 18 19  1  0  0  0
 18 32  1  0  0  0
 19 20  2  0  0  0
 19 33  1  0  0  0
 20 21  1  0  0  0
 21 22  2  0  0  0
 21 34  1  0  0  0
 22 35  1  0  0  0
 23 36  1  0  0  0
M  END
> <s_m_entry_id>
27881

> <s_m_entry_name>
dock_pv.42

> <s_m_Source_Path>
/home/csk/Desktop/cluster/DUD-E-result/rock1

> <s_m_Source_File>
dock_pv.maegz

> <i_m_Source_File_Index>
42

> <chembl_id>
CHEMBL3218024

> <chembl_pref_name>
None

> <i_lp_mmshare_version>
53161

> <r_lp_tautomer_probability>
0.999000488399163

> <s_lp_Force_Field>
OPLS_2005

> <r_lp_Energy>
6.059377

> <b_lp_Chiralities_Consistent>
1

> <s_lp_Variant>
CHEMBL3231_lig437-1

> <s_i_glide_gridfile>
glide-grid_2etr

> <i_i_glide_lignum>
621

> <i_i_glide_rotatable_bonds>
6

> <r_i_docking_score>
-8.76953423277235

> <r_i_glide_ligand_efficiency>
-0.381284097077059

> <r_i_glide_ligand_efficiency_sa>
-1.08432125248667

> <r_i_glide_ligand_efficiency_ln>
-2.12055289522441

> <r_i_glide_gscore>
-8.76953423277235

> <r_i_glide_lipo>
-3.57233086340357

> <r_i_glide_hbond>
-0.401315234967205

> <r_i_glide_metal>
0

> <r_i_glide_rewards>
-2.4079373807635

> <r_i_glide_evdw>
-40.7976570129395

> <r_i_glide_ecoul>
-7.26592493057251

> <r_i_glide_erotb>
0.798658017500569

> <r_i_glide_esite>
-0.0568371809057961

> <r_i_glide_emodel>
-74.0771297480177

> <r_i_glide_energy>
-48.063581943512

> <r_i_glide_einternal>
1.5145822763443

> <i_i_glide_confnum>
1

> <i_i_glide_posenum>
222

> <r_i_glide_eff_state_penalty>
0

> <s_user_duplicate_titles>
CHEMBL3231_lig437

> <i_f3d_flags>
0

> <s_m_subgroup_title>
dock_pv

> <s_m_subgroupid>
dock_pv

> <b_m_subgroup_collapsed>
1

$$$$
CHEMBL3231_lig627
                    3D
 Schrodinger Suite 2021-1.
 40 42  0  0  1  0            999 V2000
   51.4308   97.6926   30.4327 C   0  0  0  0  0  0
   51.2434   98.4276   29.2280 O   0  0  0  0  0  0
   51.3592   99.8077   29.2295 C   0  0  0  0  0  0
   51.7536  100.5396   30.3669 C   0  0  0  0  0  0
   51.7919  101.9449   30.3572 C   0  0  0  0  0  0
   51.4725  102.6125   29.1749 C   0  0  0  0  0  0
   51.0954  101.9029   28.0439 C   0  0  0  0  0  0
   51.0231  100.5068   28.0519 C   0  0  0  0  0  0
   50.5391   99.8543   26.7904 C   0  0  0  0  0  0
   50.5832   98.5031   26.3931 C   0  0  0  0  0  0
   50.0430   98.2810   25.2176 N   0  0  0  0  0  0
   49.6431   99.4839   24.8109 N   0  0  0  0  0  0
   49.9200  100.4694   25.7086 C   0  0  0  0  0  0
   52.0818  102.7516   31.5992 C   0  0  0  0  0  0
   51.6431  103.8993   31.7039 O   0  0  0  0  0  0
   52.7859  102.1515   32.5748 N   0  0  0  0  0  0
   53.0071  102.7229   33.9073 C   0  0  0  0  0  0
   51.7188  102.9733   34.6931 C   0  0  0  0  0  0
   51.3706  104.2666   35.1033 C   0  0  0  0  0  0
   50.1781  104.4880   35.7963 C   0  0  0  0  0  0
   49.8382  105.7406   36.1793 F   0  0  0  0  0  0
   49.3282  103.4215   36.0845 C   0  0  0  0  0  0
   49.6713  102.1337   35.6802 C   0  0  0  0  0  0
   48.8431  101.1030   35.9473 F   0  0  0  0  0  0
   50.8621  101.9070   34.9922 C   0  0  0  0  0  0
   51.2425   96.6356   30.2414 H   0  0  0  0  0  0
   52.4524   97.7820   30.8050 H   0  0  0  0  0  0
   50.7328   98.0078   31.2093 H   0  0  0  0  0  0
   51.9845  100.0178   31.2822 H   0  0  0  0  0  0
   51.4975  103.6934   29.1234 H   0  0  0  0  0  0
   50.8421  102.4647   27.1588 H   0  0  0  0  0  0
   51.0066   97.6878   26.9604 H   0  0  0  0  0  0
   49.1968   99.6276   23.9083 H   0  0  0  0  0  0
   49.6451  101.4937   25.5017 H   0  0  0  0  0  0
   53.2710  101.2935   32.3562 H   0  0  0  0  0  0
   53.6047  103.6335   33.8243 H   0  0  0  0  0  0
   53.6161  102.0159   34.4722 H   0  0  0  0  0  0
   52.0129  105.1049   34.8738 H   0  0  0  0  0  0
   48.4050  103.5898   36.6171 H   0  0  0  0  0  0
   51.1088  100.9032   34.6790 H   0  0  0  0  0  0
  1  2  1  0  0  0
  1 26  1  0  0  0
  1 27  1  0  0  0
  1 28  1  0  0  0
  2  3  1  0  0  0
  3  4  2  0  0  0
  3  8  1  0  0  0
  4  5  1  0  0  0
  4 29  1  0  0  0
  5  6  2  0  0  0
  5 14  1  0  0  0
  6  7  1  0  0  0
  6 30  1  0  0  0
  7  8  2  0  0  0
  7 31  1  0  0  0
  8  9  1  0  0  0
  9 10  1  0  0  0
  9 13  2  0  0  0
 10 11  2  0  0  0
 10 32  1  0  0  0
 11 12  1  0  0  0
 12 13  1  0  0  0
 12 33  1  0  0  0
 13 34  1  0  0  0
 14 15  2  0  0  0
 14 16  1  0  0  0
 16 17  1  0  0  0
 16 35  1  0  0  0
 17 18  1  0  0  0
 17 36  1  0  0  0
 17 37  1  0  0  0
 18 19  2  0  0  0
 18 25  1  0  0  0
 19 20  1  0  0  0
 19 38  1  0  0  0
 20 21  1  0  0  0
 20 22  2  0  0  0
 22 23  1  0  0  0
 22 39  1  0  0  0
 23 24  1  0  0  0
 23 25  2  0  0  0
 25 40  1  0  0  0
M  END
> <s_m_entry_id>
27882

> <s_m_entry_name>
dock_pv.43

> <s_m_Source_Path>
/home/csk/Desktop/cluster/DUD-E-result/rock1

> <s_m_Source_File>
dock_pv.maegz

> <i_m_Source_File_Index>
43

> <chembl_id>
CHEMBL3912625

> <chembl_pref_name>
None

> <i_lp_mmshare_version>
53161

> <r_lp_tautomer_probability>
0.5

> <s_lp_Force_Field>
OPLS_2005

> <r_lp_Energy>
19.765436

> <b_lp_Chiralities_Consistent>
1

> <s_lp_Variant>
CHEMBL3231_lig627-1

> <s_i_glide_gridfile>
glide-grid_2etr

> <i_i_glide_lignum>
913

> <i_i_glide_rotatable_bonds>
6

> <r_i_docking_score>
-8.7610548885578

> <r_i_glide_ligand_efficiency>
-0.350442195542312

> <r_i_glide_ligand_efficiency_sa>
-1.02469919488452

> <r_i_glide_ligand_efficiency_ln>
-2.07663255621691

> <r_i_glide_gscore>
-8.7610548885578

> <r_i_glide_lipo>
-2.63793027042083

> <r_i_glide_hbond>
-0.682360977044608

> <r_i_glide_metal>
0

> <r_i_glide_rewards>
-2.62605466445042

> <r_i_glide_evdw>
-39.5795211791992

> <r_i_glide_ecoul>
-8.19978046417236

> <r_i_glide_erotb>
0.45070363812689

> <r_i_glide_esite>
-0.0564694861830103

> <r_i_glide_emodel>
-72.2937784640647

> <r_i_glide_energy>
-47.7793016433716

> <r_i_glide_einternal>
2.47529220581055

> <i_i_glide_confnum>
6

> <i_i_glide_posenum>
261

> <r_i_glide_eff_state_penalty>
0

> <s_user_duplicate_titles>
CHEMBL3231_lig627

> <i_f3d_flags>
0

> <s_m_subgroup_title>
dock_pv

> <s_m_subgroupid>
dock_pv

> <b_m_subgroup_collapsed>
1

$$$$
CHEMBL3231_lig1817
                    3D
 Schrodinger Suite 2021-1.
 45 47  0  0  1  0            999 V2000
   52.0430  104.3028   31.8751 O   0  0  0  0  0  0
   55.6430  105.3170   33.6119 O   0  0  0  0  0  0
   52.6155  102.4328   33.0120 N   0  0  0  0  0  0
   50.0431   98.3019   25.1299 N   0  0  0  0  0  0
   52.0145  102.2690   30.6563 C   0  0  0  0  0  0
   51.4036  100.7314   28.3918 C   0  0  0  0  0  0
   52.2541  103.0914   31.8948 C   0  0  0  0  0  0
   50.9870   99.8882   27.2435 C   0  0  0  0  0  0
   52.6946  103.0249   34.3585 C   0  0  2  0  0  0
   52.6353  101.0274   30.4607 C   0  0  0  0  0  0
   51.1378  102.7567   29.6825 C   0  0  0  0  0  0
   52.3310  100.2689   29.3343 C   0  0  0  0  0  0
   50.8285  101.9924   28.5688 C   0  0  0  0  0  0
   51.2928  103.2219   34.9737 C   0  0  0  0  0  0
   50.8466   98.5006   27.3913 C   0  0  0  0  0  0
   50.6702  100.4586   25.9998 C   0  0  0  0  0  0
   53.6399  104.2631   34.4415 C   0  0  0  0  0  0
   50.5117  102.0879   35.2424 C   0  0  0  0  0  0
   50.7772  104.4912   35.2799 C   0  0  0  0  0  0
   50.3809   97.7482   26.3164 C   0  0  0  0  0  0
   50.1971   99.6383   24.9778 C   0  0  0  0  0  0
   49.2404  102.2167   35.7981 C   0  0  0  0  0  0
   49.5033  104.6206   35.8304 C   0  0  0  0  0  0
   48.7409  103.4832   36.0875 C   0  0  0  0  0  0
   55.0343  104.0616   33.8148 C   0  0  0  0  0  0
   55.6430  105.5028   32.6549 H   0  0  0  0  0  0
   52.6878  101.4289   32.9612 H   0  0  0  0  0  0
   53.1730  102.2655   34.9807 H   0  0  0  0  0  0
   53.3476  100.6339   31.1722 H   0  0  0  0  0  0
   50.6642  103.7206   29.7893 H   0  0  0  0  0  0
   52.8105   99.3093   29.2083 H   0  0  0  0  0  0
   50.1144  102.3804   27.8583 H   0  0  0  0  0  0
   51.0705   98.0098   28.3270 H   0  0  0  0  0  0
   50.7707  101.5197   25.8269 H   0  0  0  0  0  0
   53.1708  105.1174   33.9535 H   0  0  0  0  0  0
   53.7717  104.5524   35.4847 H   0  0  0  0  0  0
   50.8896  101.1012   35.0154 H   0  0  0  0  0  0
   51.3458  105.3887   35.0892 H   0  0  0  0  0  0
   50.2572   96.6789   26.4069 H   0  0  0  0  0  0
   49.9298  100.0514   24.0139 H   0  0  0  0  0  0
   48.6424  101.3398   36.0018 H   0  0  0  0  0  0
   49.1092  105.5990   36.0620 H   0  0  0  0  0  0
   47.7544  103.5805   36.5167 H   0  0  0  0  0  0
   55.6532  103.4003   34.4239 H   0  0  0  0  0  0
   54.9701  103.5792   32.8394 H   0  0  0  0  0  0
  1  7  2  0  0  0
  2 25  1  0  0  0
  2 26  1  0  0  0
  3  7  1  0  0  0
  3  9  1  0  0  0
  3 27  1  0  0  0
  4 20  2  0  0  0
  4 21  1  0  0  0
  5  7  1  0  0  0
  5 10  2  0  0  0
  5 11  1  0  0  0
  6  8  1  0  0  0
  6 12  2  0  0  0
  6 13  1  0  0  0
  8 15  2  0  0  0
  8 16  1  0  0  0
  9 14  1  0  0  0
  9 17  1  0  0  0
  9 28  1  0  0  0
 10 12  1  0  0  0
 10 29  1  0  0  0
 11 13  2  0  0  0
 11 30  1  0  0  0
 12 31  1  0  0  0
 13 32  1  0  0  0
 14 18  2  0  0  0
 14 19  1  0  0  0
 15 20  1  0  0  0
 15 33  1  0  0  0
 16 21  2  0  0  0
 16 34  1  0  0  0
 17 25  1  0  0  0
 17 35  1  0  0  0
 17 36  1  0  0  0
 18 22  1  0  0  0
 18 37  1  0  0  0
 19 23  2  0  0  0
 19 38  1  0  0  0
 20 39  1  0  0  0
 21 40  1  0  0  0
 22 24  2  0  0  0
 22 41  1  0  0  0
 23 24  1  0  0  0
 23 42  1  0  0  0
 24 43  1  0  0  0
 25 44  1  0  0  0
 25 45  1  0  0  0
M  END
> <s_m_entry_id>
27883

> <s_m_entry_name>
dock_pv.44

> <s_m_Source_Path>
/home/csk/Desktop/cluster/DUD-E-result/rock1

> <s_m_Source_File>
dock_pv.maegz

> <i_m_Source_File_Index>
44

> <chembl_id>
CHEMBL1986143

> <chembl_pref_name>
None

> <i_lp_mmshare_version>
53161

> <r_lp_tautomer_probability>
1

> <s_lp_Force_Field>
OPLS_2005

> <r_lp_Energy>
16.285528

> <b_lp_Chiralities_Consistent>
1

> <s_lp_Variant>
CHEMBL3231_lig1817-1

> <s_i_glide_gridfile>
glide-grid_2etr

> <i_i_glide_lignum>
2612

> <i_i_glide_rotatable_bonds>
8

> <r_i_docking_score>
-8.75973477256782

> <r_i_glide_ligand_efficiency>
-0.350389390902713

> <r_i_glide_ligand_efficiency_sa>
-1.02454479318184

> <r_i_glide_ligand_efficiency_ln>
-2.07631964916661

> <r_i_glide_gscore>
-8.75973477256782

> <r_i_glide_lipo>
-3.10858445174515

> <r_i_glide_hbond>
-0.655282862722743

> <r_i_glide_metal>
0

> <r_i_glide_rewards>
-2.54234357454746

> <r_i_glide_evdw>
-39.8798294067383

> <r_i_glide_ecoul>
-9.47923374176025

> <r_i_glide_erotb>
1.02277610095143

> <r_i_glide_esite>
-0.060423452902945

> <r_i_glide_emodel>
-73.6007741206205

> <r_i_glide_energy>
-49.3590631484985

> <r_i_glide_einternal>
5.04937124252319

> <i_i_glide_confnum>
15

> <i_i_glide_posenum>
255

> <r_i_glide_eff_state_penalty>
0

> <s_user_duplicate_titles>
CHEMBL3231_lig1817

> <i_f3d_flags>
0

> <s_m_subgroup_title>
dock_pv

> <s_m_subgroupid>
dock_pv

> <b_m_subgroup_collapsed>
1

$$$$
CHEMBL3231_lig721
                    3D
 Schrodinger Suite 2021-1.
 42 44  0  0  1  0            999 V2000
   53.4357  101.5136   35.0045 C   0  0  0  0  0  0
   52.6777  102.5526   34.1571 C   0  0  1  0  0  0
   52.4389  102.0211   32.8107 N   0  0  0  0  0  0
   51.9353  102.7093   31.7684 C   0  0  0  0  0  0
   51.6436  103.9028   31.8462 O   0  0  0  0  0  0
   51.6757  101.9392   30.4898 C   0  0  0  0  0  0
   51.1695  102.6036   29.3686 C   0  0  0  0  0  0
   50.8424  101.9020   28.2135 C   0  0  0  0  0  0
   51.0080  100.5111   28.1200 C   0  0  0  0  0  0
   51.5537   99.8405   29.2387 C   0  0  0  0  0  0
   51.8002   98.3413   29.2599 C   0  0  0  0  0  0
   51.8847  100.5544   30.3964 C   0  0  0  0  0  0
   50.5606   99.8601   26.8291 C   0  0  0  0  0  0
   50.5173   98.5054   26.4216 C   0  0  0  0  0  0
   50.0429   98.3161   25.2120 N   0  0  0  0  0  0
   49.7454   99.5425   24.7908 N   0  0  0  0  0  0
   50.0432  100.5055   25.7081 C   0  0  0  0  0  0
   51.4016  103.0465   34.8585 C   0  0  0  0  0  0
   51.2424  104.4115   35.1248 C   0  0  0  0  0  0
   50.1092  104.8666   35.7934 C   0  0  0  0  0  0
   49.1333  103.9581   36.1980 C   0  0  0  0  0  0
   48.0430  104.4031   36.8595 F   0  0  0  0  0  0
   49.2755  102.5987   35.9323 C   0  0  0  0  0  0
   50.4106  102.1414   35.2645 C   0  0  0  0  0  0
   53.6708  101.9068   35.9930 H   0  0  0  0  0  0
   52.8616  100.5951   35.1404 H   0  0  0  0  0  0
   54.3820  101.2377   34.5374 H   0  0  0  0  0  0
   53.3600  103.4007   34.0478 H   0  0  0  0  0  0
   52.8714  101.1329   32.6120 H   0  0  0  0  0  0
   51.0089  103.6732   29.3848 H   0  0  0  0  0  0
   50.4405  102.4722   27.3900 H   0  0  0  0  0  0
   50.8619   97.7922   29.2044 H   0  0  0  0  0  0
   52.4178   98.0796   28.4042 H   0  0  0  0  0  0
   52.3320   98.0121   30.1541 H   0  0  0  0  0  0
   52.2806  100.0035   31.2371 H   0  0  0  0  0  0
   50.8166   97.6396   26.9912 H   0  0  0  0  0  0
   49.3467   99.7192   23.8727 H   0  0  0  0  0  0
   49.8532  101.5443   25.4841 H   0  0  0  0  0  0
   51.9945  105.1233   34.8121 H   0  0  0  0  0  0
   49.9880  105.9186   36.0019 H   0  0  0  0  0  0
   48.5115  101.9060   36.2495 H   0  0  0  0  0  0
   50.5196  101.0853   35.0627 H   0  0  0  0  0  0
  1  2  1  0  0  0
  1 25  1  0  0  0
  1 26  1  0  0  0
  1 27  1  0  0  0
  2  3  1  0  0  0
  2 18  1  0  0  0
  2 28  1  0  0  0
  3  4  1  0  0  0
  3 29  1  0  0  0
  4  5  2  0  0  0
  4  6  1  0  0  0
  6  7  2  0  0  0
  6 12  1  0  0  0
  7  8  1  0  0  0
  7 30  1  0  0  0
  8  9  2  0  0  0
  8 31  1  0  0  0
  9 10  1  0  0  0
  9 13  1  0  0  0
 10 11  1  0  0  0
 10 12  2  0  0  0
 11 32  1  0  0  0
 11 33  1  0  0  0
 11 34  1  0  0  0
 12 35  1  0  0  0
 13 14  1  0  0  0
 13 17  2  0  0  0
 14 15  2  0  0  0
 14 36  1  0  0  0
 15 16  1  0  0  0
 16 17  1  0  0  0
 16 37  1  0  0  0
 17 38  1  0  0  0
 18 19  2  0  0  0
 18 24  1  0  0  0
 19 20  1  0  0  0
 19 39  1  0  0  0
 20 21  2  0  0  0
 20 40  1  0  0  0
 21 22  1  0  0  0
 21 23  1  0  0  0
 23 24  2  0  0  0
 23 41  1  0  0  0
 24 42  1  0  0  0
M  END
> <s_m_entry_id>
27884

> <s_m_entry_name>
dock_pv.45

> <s_m_Source_Path>
/home/csk/Desktop/cluster/DUD-E-result/rock1

> <s_m_Source_File>
dock_pv.maegz

> <i_m_Source_File_Index>
45

> <chembl_id>
CHEMBL4108570

> <chembl_pref_name>
None

> <i_lp_mmshare_version>
53161

> <r_lp_tautomer_probability>
0.5

> <s_lp_Force_Field>
OPLS_2005

> <r_lp_Energy>
18.543229

> <b_lp_Chiralities_Consistent>
1

> <s_lp_Variant>
CHEMBL3231_lig721-1

> <s_i_glide_gridfile>
glide-grid_2etr

> <i_i_glide_lignum>
1027

> <i_i_glide_rotatable_bonds>
5

> <r_i_docking_score>
-8.73260826786743

> <r_i_glide_ligand_efficiency>
-0.36385867782781

> <r_i_glide_ligand_efficiency_sa>
-1.04955004238772

> <r_i_glide_ligand_efficiency_ln>
-2.09011387178326

> <r_i_glide_gscore>
-8.73260826786743

> <r_i_glide_lipo>
-2.82480145360806

> <r_i_glide_hbond>
-0.663365657410411

> <r_i_glide_metal>
0

> <r_i_glide_rewards>
-2.68139476119842

> <r_i_glide_evdw>
-37.9431991577148

> <r_i_glide_ecoul>
-7.41493940353394

> <r_i_glide_erotb>
0.501092877929253

> <r_i_glide_esite>
-0.0547384051639547

> <r_i_glide_emodel>
-69.8627424768216

> <r_i_glide_energy>
-45.3581385612488

> <r_i_glide_einternal>
2.37688302993774

> <i_i_glide_confnum>
14

> <i_i_glide_posenum>
346

> <r_i_glide_eff_state_penalty>
0

> <s_user_duplicate_titles>
CHEMBL3231_lig721

> <i_f3d_flags>
0

> <s_m_subgroup_title>
dock_pv

> <s_m_subgroupid>
dock_pv

> <b_m_subgroup_collapsed>
1

$$$$
CHEMBL3231_lig732
                    3D
 Schrodinger Suite 2021-1.
 44 46  0  0  1  0            999 V2000
   51.4211   97.6621   30.4486 C   0  0  0  0  0  0
   51.2440   98.3809   29.2287 O   0  0  0  0  0  0
   51.3245   99.7654   29.2224 C   0  0  0  0  0  0
   51.6869  100.5132   30.3575 C   0  0  0  0  0  0
   51.7244  101.9154   30.3311 C   0  0  0  0  0  0
   51.4147  102.5715   29.1387 C   0  0  0  0  0  0
   51.0656  101.8476   28.0110 C   0  0  0  0  0  0
   50.9979  100.4512   28.0365 C   0  0  0  0  0  0
   50.5304   99.7748   26.7826 C   0  0  0  0  0  0
   49.9122  100.3728   25.6939 C   0  0  0  0  0  0
   49.6449   99.3721   24.8104 N   0  0  0  0  0  0
   50.0456   98.1759   25.2361 N   0  0  0  0  0  0
   50.5868   98.4189   26.4046 C   0  0  0  0  0  0
   52.0437  102.7334   31.5576 C   0  0  0  0  0  0
   51.6446  103.8958   31.6519 O   0  0  0  0  0  0
   52.7761  102.1292   32.5067 N   0  0  0  0  0  0
   53.1714  102.7213   33.7930 C   0  0  1  0  0  0
   54.1854  103.8918   33.6149 C   0  0  0  0  0  0
   55.2921  103.5054   32.8155 O   0  0  0  0  0  0
   51.9545  103.0127   34.6978 C   0  0  0  0  0  0
   51.6183  104.3162   35.1027 C   0  0  0  0  0  0
   50.5021  104.5455   35.9090 C   0  0  0  0  0  0
   49.7068  103.4797   36.3263 C   0  0  0  0  0  0
   50.0315  102.1799   35.9383 C   0  0  0  0  0  0
   51.1481  101.9461   35.1332 C   0  0  0  0  0  0
   51.4365  100.6720   34.7736 F   0  0  0  0  0  0
   51.2426   96.6022   30.2723 H   0  0  0  0  0  0
   52.4361   97.7643   30.8332 H   0  0  0  0  0  0
   50.7103   97.9866   31.2116 H   0  0  0  0  0  0
   51.9158  100.0000   31.2810 H   0  0  0  0  0  0
   51.4417  103.6525   29.0766 H   0  0  0  0  0  0
   50.8377  102.3977   27.1102 H   0  0  0  0  0  0
   49.6377  101.3936   25.4699 H   0  0  0  0  0  0
   49.2045   99.5031   23.9060 H   0  0  0  0  0  0
   51.0192   97.6152   26.9823 H   0  0  0  0  0  0
   53.1397  101.2076   32.3122 H   0  0  0  0  0  0
   53.7270  101.9348   34.3096 H   0  0  0  0  0  0
   53.7120  104.7538   33.1401 H   0  0  0  0  0  0
   54.5553  104.2345   34.5821 H   0  0  0  0  0  0
   55.4981  104.2204   32.1962 H   0  0  0  0  0  0
   52.2054  105.1691   34.7883 H   0  0  0  0  0  0
   50.2540  105.5536   36.2080 H   0  0  0  0  0  0
   48.8402  103.6549   36.9484 H   0  0  0  0  0  0
   49.4192  101.3497   36.2622 H   0  0  0  0  0  0
  1  2  1  0  0  0
  1 27  1  0  0  0
  1 28  1  0  0  0
  1 29  1  0  0  0
  2  3  1  0  0  0
  3  4  2  0  0  0
  3  8  1  0  0  0
  4  5  1  0  0  0
  4 30  1  0  0  0
  5  6  2  0  0  0
  5 14  1  0  0  0
  6  7  1  0  0  0
  6 31  1  0  0  0
  7  8  2  0  0  0
  7 32  1  0  0  0
  8  9  1  0  0  0
  9 10  2  0  0  0
  9 13  1  0  0  0
 10 11  1  0  0  0
 10 33  1  0  0  0
 11 12  1  0  0  0
 11 34  1  0  0  0
 12 13  2  0  0  0
 13 35  1  0  0  0
 14 15  2  0  0  0
 14 16  1  0  0  0
 16 17  1  0  0  0
 16 36  1  0  0  0
 17 18  1  0  0  0
 17 20  1  0  0  0
 17 37  1  0  0  0
 18 19  1  0  0  0
 18 38  1  0  0  0
 18 39  1  0  0  0
 19 40  1  0  0  0
 20 21  2  0  0  0
 20 25  1  0  0  0
 21 22  1  0  0  0
 21 41  1  0  0  0
 22 23  2  0  0  0
 22 42  1  0  0  0
 23 24  1  0  0  0
 23 43  1  0  0  0
 24 25  2  0  0  0
 24 44  1  0  0  0
 25 26  1  0  0  0
M  END
> <s_m_entry_id>
27885

> <s_m_entry_name>
dock_pv.46

> <s_m_Source_Path>
/home/csk/Desktop/cluster/DUD-E-result/rock1

> <s_m_Source_File>
dock_pv.maegz

> <i_m_Source_File_Index>
46

> <chembl_id>
CHEMBL3947211

> <chembl_pref_name>
None

> <i_lp_mmshare_version>
53161

> <r_lp_tautomer_probability>
0.5

> <s_lp_Force_Field>
OPLS_2005

> <r_lp_Energy>
24.648042

> <b_lp_Chiralities_Consistent>
1

> <s_lp_Variant>
CHEMBL3231_lig732-2

> <s_i_glide_gridfile>
glide-grid_2etr

> <i_i_glide_lignum>
1041

> <i_i_glide_rotatable_bonds>
8

> <r_i_docking_score>
-8.73255724149434

> <r_i_glide_ligand_efficiency>
-0.335867586211321

> <r_i_glide_ligand_efficiency_sa>
-0.995006402575903

> <r_i_glide_ligand_efficiency_ln>
-2.05081241430752

> <r_i_glide_gscore>
-8.73255724149434

> <r_i_glide_lipo>
-2.55491606938754

> <r_i_glide_hbond>
-0.966091660623534

> <r_i_glide_metal>
0

> <r_i_glide_rewards>
-2.11001469499236

> <r_i_glide_evdw>
-40.3218879699707

> <r_i_glide_ecoul>
-10.3875494003296

> <r_i_glide_erotb>
0.529912725680081

> <r_i_glide_esite>
-0.0572207336230141

> <r_i_glide_emodel>
-75.1172051108497

> <r_i_glide_energy>
-50.7094373703003

> <r_i_glide_einternal>
4.22835779190063

> <i_i_glide_confnum>
55

> <i_i_glide_posenum>
192

> <r_i_glide_eff_state_penalty>
0

> <s_user_duplicate_titles>
CHEMBL3231_lig732

> <i_f3d_flags>
0

> <s_m_subgroup_title>
dock_pv

> <s_m_subgroupid>
dock_pv

> <b_m_subgroup_collapsed>
1

$$$$
CHEMBL3231_lig399
                    3D
 Schrodinger Suite 2021-1.
 45 47  0  0  1  0            999 V2000
   52.5622  101.3255   31.8676 N   0  0  0  0  0  0
   52.0262  102.3143   32.6070 C   0  0  0  0  0  0
   51.1596  103.1039   32.2195 O   0  0  0  0  0  0
   52.5509  102.3230   33.8437 N   0  0  0  0  0  0
   52.4072  103.3954   34.8395 C   0  0  1  0  0  0
   53.0374  104.7325   34.3345 C   0  0  0  0  0  0
   54.5415  104.7023   33.9573 C   0  0  0  0  0  0
   54.8418  103.9042   32.8253 O   0  0  0  0  0  0
   50.9892  103.5614   35.4452 C   0  0  0  0  0  0
   50.7727  104.5209   36.4473 C   0  0  0  0  0  0
   49.5136  104.6856   37.0267 C   0  0  0  0  0  0
   48.4443  103.8998   36.6060 C   0  0  0  0  0  0
   48.6404  102.9238   35.6332 C   0  0  0  0  0  0
   49.9031  102.7467   35.0714 C   0  0  0  0  0  0
   49.3291  105.6001   38.0054 F   0  0  0  0  0  0
   52.1679  100.9719   30.5765 C   0  0  0  0  0  0
   52.1121   99.6111   30.2849 C   0  0  0  0  0  0
   51.6432   99.1910   29.0461 C   0  0  0  0  0  0
   51.2458  100.1330   28.0922 C   0  0  0  0  0  0
   51.3592  101.4966   28.3670 C   0  0  0  0  0  0
   51.8280  101.9199   29.6024 C   0  0  0  0  0  0
   49.7515   99.5689   24.8108 N   0  0  0  0  0  0
   50.0423   98.3026   25.1165 N   0  0  0  0  0  0
   50.5923   98.3705   26.2997 C   0  0  0  0  0  0
   50.6883   99.6826   26.7931 C   0  0  0  0  0  0
   50.1234  100.4516   25.7835 C   0  0  0  0  0  0
   53.2221  100.7061   32.3117 H   0  0  0  0  0  0
   53.1549  101.5585   34.1056 H   0  0  0  0  0  0
   53.0132  103.0548   35.6786 H   0  0  0  0  0  0
   52.4697  105.1032   33.4804 H   0  0  0  0  0  0
   52.9355  105.5027   35.0966 H   0  0  0  0  0  0
   54.9237  105.7147   33.8089 H   0  0  0  0  0  0
   55.1079  104.2741   34.7860 H   0  0  0  0  0  0
   55.1441  104.4864   32.1136 H   0  0  0  0  0  0
   51.5840  105.1404   36.8018 H   0  0  0  0  0  0
   47.4672  104.0364   37.0465 H   0  0  0  0  0  0
   47.8168  102.2966   35.3245 H   0  0  0  0  0  0
   50.0162  101.9615   34.3401 H   0  0  0  0  0  0
   52.3964   98.8760   31.0235 H   0  0  0  0  0  0
   51.5774   98.1321   28.8509 H   0  0  0  0  0  0
   51.0734  102.2383   27.6364 H   0  0  0  0  0  0
   51.9024  102.9793   29.8047 H   0  0  0  0  0  0
   49.3078   99.8220   23.9322 H   0  0  0  0  0  0
   50.9264   97.4756   26.8032 H   0  0  0  0  0  0
   49.9467  101.5104   25.6738 H   0  0  0  0  0  0
  1  2  1  0  0  0
  1 16  1  0  0  0
  1 27  1  0  0  0
  2  3  2  0  0  0
  2  4  1  0  0  0
  4  5  1  0  0  0
  4 28  1  0  0  0
  5  6  1  0  0  0
  5  9  1  0  0  0
  5 29  1  0  0  0
  6  7  1  0  0  0
  6 30  1  0  0  0
  6 31  1  0  0  0
  7  8  1  0  0  0
  7 32  1  0  0  0
  7 33  1  0  0  0
  8 34  1  0  0  0
  9 10  1  0  0  0
  9 14  2  0  0  0
 10 11  2  0  0  0
 10 35  1  0  0  0
 11 12  1  0  0  0
 11 15  1  0  0  0
 12 13  2  0  0  0
 12 36  1  0  0  0
 13 14  1  0  0  0
 13 37  1  0  0  0
 14 38  1  0  0  0
 16 17  1  0  0  0
 16 21  2  0  0  0
 17 18  2  0  0  0
 17 39  1  0  0  0
 18 19  1  0  0  0
 18 40  1  0  0  0
 19 20  2  0  0  0
 19 25  1  0  0  0
 20 21  1  0  0  0
 20 41  1  0  0  0
 21 42  1  0  0  0
 22 23  1  0  0  0
 22 26  1  0  0  0
 22 43  1  0  0  0
 23 24  2  0  0  0
 24 25  1  0  0  0
 24 44  1  0  0  0
 25 26  2  0  0  0
 26 45  1  0  0  0
M  END
> <s_m_entry_id>
27887

> <s_m_entry_name>
dock_pv.48

> <s_m_Source_Path>
/home/csk/Desktop/cluster/DUD-E-result/rock1

> <s_m_Source_File>
dock_pv.maegz

> <i_m_Source_File_Index>
48

> <chembl_id>
CHEMBL2332056

> <chembl_pref_name>
None

> <i_lp_mmshare_version>
53161

> <r_lp_tautomer_probability>
0.5

> <s_lp_Force_Field>
OPLS_2005

> <r_lp_Energy>
16.272477

> <b_lp_Chiralities_Consistent>
1

> <s_lp_Variant>
CHEMBL3231_lig399-2

> <s_i_glide_gridfile>
glide-grid_2etr

> <i_i_glide_lignum>
560

> <i_i_glide_rotatable_bonds>
9

> <r_i_docking_score>
-8.70362132633757

> <r_i_glide_ligand_efficiency>
-0.334754666397599

> <r_i_glide_ligand_efficiency_sa>
-0.991709382006879

> <r_i_glide_ligand_efficiency_ln>
-2.04401690957944

> <r_i_glide_gscore>
-8.70362132633757

> <r_i_glide_lipo>
-2.66816544205663

> <r_i_glide_hbond>
-0.916259803335484

> <r_i_glide_metal>
0

> <r_i_glide_rewards>
-1.88864851706569

> <r_i_glide_evdw>
-41.8163719177246

> <r_i_glide_ecoul>
-12.2992324829102

> <r_i_glide_erotb>
0.745551692478879

> <r_i_glide_esite>
-0.0403957880358873

> <r_i_glide_emodel>
-82.3028598054786

> <r_i_glide_energy>
-54.1156044006348

> <r_i_glide_einternal>
5.27751779556274

> <i_i_glide_confnum>
48

> <i_i_glide_posenum>
247

> <r_i_glide_eff_state_penalty>
0

> <s_user_duplicate_titles>
CHEMBL3231_lig399

> <i_f3d_flags>
0

> <s_m_subgroup_title>
dock_pv

> <s_m_subgroupid>
dock_pv

> <b_m_subgroup_collapsed>
1

$$$$
CHEMBL3231_lig616
                    3D
 Schrodinger Suite 2021-1.
 40 42  0  0  1  0            999 V2000
   51.4212   97.6550   30.4151 C   0  0  0  0  0  0
   51.2445   98.4115   29.2221 O   0  0  0  0  0  0
   51.3253   99.7943   29.2510 C   0  0  0  0  0  0
   51.6690  100.5105   30.4128 C   0  0  0  0  0  0
   51.6810  101.9148   30.4355 C   0  0  0  0  0  0
   51.3999  102.5980   29.2501 C   0  0  0  0  0  0
   51.0641  101.9038   28.0967 C   0  0  0  0  0  0
   51.0005  100.5068   28.0797 C   0  0  0  0  0  0
   50.5362   99.8636   26.8034 C   0  0  0  0  0  0
   50.5766   98.5142   26.3933 C   0  0  0  0  0  0
   50.0431   98.3028   25.2111 N   0  0  0  0  0  0
   49.6513   99.5097   24.8109 N   0  0  0  0  0  0
   49.9280  100.4877   25.7192 C   0  0  0  0  0  0
   51.9274  102.7043   31.7021 C   0  0  0  0  0  0
   51.6438  103.9021   31.7513 O   0  0  0  0  0  0
   52.4311  102.0336   32.7545 N   0  0  0  0  0  0
   52.7054  102.6055   34.0755 C   0  0  0  0  0  0
   51.5047  103.2367   34.7846 C   0  0  0  0  0  0
   51.4537  104.6289   34.9147 C   0  0  0  0  0  0
   50.3983  105.2393   35.5893 C   0  0  0  0  0  0
   49.3851  104.4619   36.1449 C   0  0  0  0  0  0
   48.3728  105.0536   36.8162 F   0  0  0  0  0  0
   49.4178  103.0743   36.0155 C   0  0  0  0  0  0
   50.4715  102.4566   35.3377 C   0  0  0  0  0  0
   50.4680  100.7326   35.2103 Cl  0  0  0  0  0  0
   51.2447   96.6034   30.2008 H   0  0  0  0  0  0
   52.4382   97.7491   30.7975 H   0  0  0  0  0  0
   50.7132   97.9538   31.1879 H   0  0  0  0  0  0
   51.8880   99.9664   31.3178 H   0  0  0  0  0  0
   51.4196  103.6787   29.2139 H   0  0  0  0  0  0
   50.8403  102.4796   27.2128 H   0  0  0  0  0  0
   50.9914   97.6897   26.9547 H   0  0  0  0  0  0
   49.2102   99.6616   23.9085 H   0  0  0  0  0  0
   49.6534  101.5131   25.5201 H   0  0  0  0  0  0
   52.7717  101.0974   32.5945 H   0  0  0  0  0  0
   53.5273  103.3198   33.9894 H   0  0  0  0  0  0
   53.1026  101.8161   34.7126 H   0  0  0  0  0  0
   52.2311  105.2470   34.4844 H   0  0  0  0  0  0
   50.3703  106.3136   35.6874 H   0  0  0  0  0  0
   48.6279  102.4789   36.4483 H   0  0  0  0  0  0
  1  2  1  0  0  0
  1 26  1  0  0  0
  1 27  1  0  0  0
  1 28  1  0  0  0
  2  3  1  0  0  0
  3  4  2  0  0  0
  3  8  1  0  0  0
  4  5  1  0  0  0
  4 29  1  0  0  0
  5  6  2  0  0  0
  5 14  1  0  0  0
  6  7  1  0  0  0
  6 30  1  0  0  0
  7  8  2  0  0  0
  7 31  1  0  0  0
  8  9  1  0  0  0
  9 10  1  0  0  0
  9 13  2  0  0  0
 10 11  2  0  0  0
 10 32  1  0  0  0
 11 12  1  0  0  0
 12 13  1  0  0  0
 12 33  1  0  0  0
 13 34  1  0  0  0
 14 15  2  0  0  0
 14 16  1  0  0  0
 16 17  1  0  0  0
 16 35  1  0  0  0
 17 18  1  0  0  0
 17 36  1  0  0  0
 17 37  1  0  0  0
 18 19  2  0  0  0
 18 24  1  0  0  0
 19 20  1  0  0  0
 19 38  1  0  0  0
 20 21  2  0  0  0
 20 39  1  0  0  0
 21 22  1  0  0  0
 21 23  1  0  0  0
 23 24  2  0  0  0
 23 40  1  0  0  0
 24 25  1  0  0  0
M  END
> <s_m_entry_id>
27888

> <s_m_entry_name>
dock_pv.49

> <s_m_Source_Path>
/home/csk/Desktop/cluster/DUD-E-result/rock1

> <s_m_Source_File>
dock_pv.maegz

> <i_m_Source_File_Index>
49

> <chembl_id>
CHEMBL3969934

> <chembl_pref_name>
None

> <i_lp_mmshare_version>
53161

> <r_lp_tautomer_probability>
0.5

> <s_lp_Force_Field>
OPLS_2005

> <r_lp_Energy>
20.813802

> <b_lp_Chiralities_Consistent>
1

> <s_lp_Variant>
CHEMBL3231_lig616-1

> <s_i_glide_gridfile>
glide-grid_2etr

> <i_i_glide_lignum>
902

> <i_i_glide_rotatable_bonds>
6

> <r_i_docking_score>
-8.68785232582058

> <r_i_glide_ligand_efficiency>
-0.347514093032823

> <r_i_glide_ligand_efficiency_sa>
-1.01613737121666

> <r_i_glide_ligand_efficiency_ln>
-2.05928135514441

> <r_i_glide_gscore>
-8.68785232582058

> <r_i_glide_lipo>
-2.74708799782296

> <r_i_glide_hbond>
-0.674755198323282

> <r_i_glide_metal>
0

> <r_i_glide_rewards>
-2.23192743636759

> <r_i_glide_evdw>
-41.7943954467773

> <r_i_glide_ecoul>
-8.68960475921631

> <r_i_glide_erotb>
0.414699353202597

> <r_i_glide_esite>
-0.0556205602880401

> <r_i_glide_emodel>
-75.9768422789299

> <r_i_glide_energy>
-50.4840002059937

> <r_i_glide_einternal>
2.8753387928009

> <i_i_glide_confnum>
4

> <i_i_glide_posenum>
184

> <r_i_glide_eff_state_penalty>
0

> <s_user_duplicate_titles>
CHEMBL3231_lig616

> <i_f3d_flags>
0

> <s_m_subgroup_title>
dock_pv

> <s_m_subgroupid>
dock_pv

> <b_m_subgroup_collapsed>
1

$$$$
CHEMBL3231_lig671
                    3D
 Schrodinger Suite 2021-1.
 44 46  0  0  1  0            999 V2000
   50.4850  107.2553   35.0914 C   0  0  0  0  0  0
   49.6221  106.2612   35.6393 O   0  0  0  0  0  0
   49.9686  104.9267   35.5188 C   0  0  0  0  0  0
   51.1194  104.4659   34.8532 C   0  0  0  0  0  0
   51.3997  103.0966   34.7638 C   0  0  0  0  0  0
   52.6723  102.6151   34.0699 C   0  0  0  0  0  0
   52.4630  102.0425   32.7364 N   0  0  0  0  0  0
   51.9466  102.7033   31.6841 C   0  0  0  0  0  0
   51.6458  103.8986   31.7325 O   0  0  0  0  0  0
   51.6965  101.9114   30.4202 C   0  0  0  0  0  0
   51.4145  102.5912   29.2319 C   0  0  0  0  0  0
   51.0757  101.8976   28.0809 C   0  0  0  0  0  0
   51.0108  100.4987   28.0687 C   0  0  0  0  0  0
   51.3290   99.7871   29.2420 C   0  0  0  0  0  0
   51.2417   98.4050   29.2173 O   0  0  0  0  0  0
   51.4155   97.6478   30.4110 C   0  0  0  0  0  0
   51.6764  100.5048   30.4028 C   0  0  0  0  0  0
   50.5372   99.8562   26.7958 C   0  0  0  0  0  0
   50.5803   98.5081   26.3889 C   0  0  0  0  0  0
   50.0427   98.2942   25.2112 N   0  0  0  0  0  0
   49.6452   99.5010   24.8104 N   0  0  0  0  0  0
   49.9207  100.4801   25.7153 C   0  0  0  0  0  0
   50.5270  102.1757   35.3512 C   0  0  0  0  0  0
   49.3810  102.6203   36.0106 C   0  0  0  0  0  0
   49.1074  103.9855   36.0993 C   0  0  0  0  0  0
   48.0029  104.3957   36.7645 F   0  0  0  0  0  0
   50.0730  108.2420   35.3005 H   0  0  0  0  0  0
   51.4834  107.2126   35.5291 H   0  0  0  0  0  0
   50.5671  107.1567   34.0115 H   0  0  0  0  0  0
   51.8038  105.1632   34.3928 H   0  0  0  0  0  0
   53.4018  103.4247   34.0038 H   0  0  0  0  0  0
   53.1414  101.8544   34.6972 H   0  0  0  0  0  0
   52.8223  101.1104   32.5786 H   0  0  0  0  0  0
   51.4346  103.6711   29.1955 H   0  0  0  0  0  0
   50.8417  102.4683   27.1949 H   0  0  0  0  0  0
   51.2433   96.5924   30.1931 H   0  0  0  0  0  0
   52.4292   97.7437   30.8008 H   0  0  0  0  0  0
   50.7052   97.9391   31.1860 H   0  0  0  0  0  0
   51.8921   99.9678   31.3141 H   0  0  0  0  0  0
   51.0010   97.6899   26.9524 H   0  0  0  0  0  0
   49.2020   99.6535   23.9073 H   0  0  0  0  0  0
   49.6450  101.5063   25.5186 H   0  0  0  0  0  0
   50.7347  101.1173   35.2965 H   0  0  0  0  0  0
   48.7050  101.9077   36.4634 H   0  0  0  0  0  0
  1  2  1  0  0  0
  1 27  1  0  0  0
  1 28  1  0  0  0
  1 29  1  0  0  0
  2  3  1  0  0  0
  3  4  2  0  0  0
  3 25  1  0  0  0
  4  5  1  0  0  0
  4 30  1  0  0  0
  5  6  1  0  0  0
  5 23  2  0  0  0
  6  7  1  0  0  0
  6 31  1  0  0  0
  6 32  1  0  0  0
  7  8  1  0  0  0
  7 33  1  0  0  0
  8  9  2  0  0  0
  8 10  1  0  0  0
 10 11  2  0  0  0
 10 17  1  0  0  0
 11 12  1  0  0  0
 11 34  1  0  0  0
 12 13  2  0  0  0
 12 35  1  0  0  0
 13 14  1  0  0  0
 13 18  1  0  0  0
 14 15  1  0  0  0
 14 17  2  0  0  0
 15 16  1  0  0  0
 16 36  1  0  0  0
 16 37  1  0  0  0
 16 38  1  0  0  0
 17 39  1  0  0  0
 18 19  1  0  0  0
 18 22  2  0  0  0
 19 20  2  0  0  0
 19 40  1  0  0  0
 20 21  1  0  0  0
 21 22  1  0  0  0
 21 41  1  0  0  0
 22 42  1  0  0  0
 23 24  1  0  0  0
 23 43  1  0  0  0
 24 25  2  0  0  0
 24 44  1  0  0  0
 25 26  1  0  0  0
M  END
> <s_m_entry_id>
27889

> <s_m_entry_name>
dock_pv.50

> <s_m_Source_Path>
/home/csk/Desktop/cluster/DUD-E-result/rock1

> <s_m_Source_File>
dock_pv.maegz

> <i_m_Source_File_Index>
50

> <chembl_id>
CHEMBL3985775

> <chembl_pref_name>
None

> <i_lp_mmshare_version>
53161

> <r_lp_tautomer_probability>
0.5

> <s_lp_Force_Field>
OPLS_2005

> <r_lp_Energy>
25.09152

> <b_lp_Chiralities_Consistent>
1

> <s_lp_Variant>
CHEMBL3231_lig671-1

> <s_i_glide_gridfile>
glide-grid_2etr

> <i_i_glide_lignum>
962

> <i_i_glide_rotatable_bonds>
7

> <r_i_docking_score>
-8.68756086880357

> <r_i_glide_ligand_efficiency>
-0.334136956492445

> <r_i_glide_ligand_efficiency_sa>
-0.989879418843432

> <r_i_glide_ligand_efficiency_ln>
-2.04024516382624

> <r_i_glide_gscore>
-8.68756086880357

> <r_i_glide_lipo>
-2.61695680744978

> <r_i_glide_hbond>
-0.679246756385585

> <r_i_glide_metal>
0

> <r_i_glide_rewards>
-2.40990256932648

> <r_i_glide_evdw>
-42.3181190490723

> <r_i_glide_ecoul>
-8.93293285369873

> <r_i_glide_erotb>
0.529912725680081

> <r_i_glide_esite>
-0.0555215808133821

> <r_i_glide_emodel>
-77.4096467900099

> <r_i_glide_energy>
-51.251051902771

> <r_i_glide_einternal>
2.0860767364502

> <i_i_glide_confnum>
23

> <i_i_glide_posenum>
285

> <r_i_glide_eff_state_penalty>
0

> <s_user_duplicate_titles>
CHEMBL3231_lig671

> <i_f3d_flags>
0

> <s_m_subgroup_title>
dock_pv

> <s_m_subgroupid>
dock_pv

> <b_m_subgroup_collapsed>
1

$$$$
CHEMBL3231_lig242
                    3D
 Schrodinger Suite 2021-1.
 43 46  0  0  1  0            999 V2000
   49.8997   98.5363   25.2218 N   0  0  0  0  0  0
   50.4732   97.6016   26.0111 C   0  0  0  0  0  0
   51.1166   97.9030   27.2054 C   0  0  0  0  0  0
   49.9262   99.8218   25.6412 C   0  0  0  0  0  0
   50.5843  100.2567   26.8290 C   0  0  0  0  0  0
   51.2164   99.2487   27.6175 C   0  0  0  0  0  0
   51.9351   99.6138   28.7784 C   0  0  0  0  0  0
   52.0403  100.9512   29.1500 C   0  0  0  0  0  0
   51.3836  101.9334   28.4108 C   0  0  0  0  0  0
   50.6588  101.6052   27.2675 C   0  0  0  0  0  0
   49.2431  100.7029   24.8110 N   0  0  0  0  0  0
   52.8792  101.3352   30.3522 C   0  0  0  0  0  0
   52.0095  101.5552   31.4951 N   0  0  2  0  0  0
   52.7774  102.0031   32.6476 C   0  0  0  0  0  0
   51.8270  102.5365   33.7023 C   0  0  0  0  0  0
   51.8118  103.9038   33.9734 C   0  0  0  0  0  0
   50.0729  102.1660   35.3356 C   0  0  0  0  0  0
   50.9674  101.6746   34.3876 C   0  0  0  0  0  0
   50.0267  103.5534   35.6197 C   0  0  0  0  0  0
   50.9139  104.4353   34.9279 C   0  0  0  0  0  0
   50.8778  105.8216   35.2105 C   0  0  0  0  0  0
   49.9863  106.3165   36.1538 C   0  0  0  0  0  0
   49.1214  105.4592   36.8269 C   0  0  0  0  0  0
   49.1278  104.0909   36.5714 C   0  0  0  0  0  0
   50.4426   96.5791   25.6619 H   0  0  0  0  0  0
   51.5623   97.1241   27.8038 H   0  0  0  0  0  0
   52.4278   98.8444   29.3552 H   0  0  0  0  0  0
   51.4544  102.9680   28.7159 H   0  0  0  0  0  0
   50.1767  102.3859   26.6980 H   0  0  0  0  0  0
   49.3238  101.6932   24.9742 H   0  0  0  0  0  0
   48.9224  100.3545   23.9091 H   0  0  0  0  0  0
   53.4433  102.2408   30.1173 H   0  0  0  0  0  0
   53.6000  100.5426   30.5672 H   0  0  0  0  0  0
   51.6065  100.6582   31.7285 H   0  0  0  0  0  0
   53.4901  102.7791   32.3621 H   0  0  0  0  0  0
   53.3407  101.1660   33.0624 H   0  0  0  0  0  0
   52.4774  104.5750   33.4488 H   0  0  0  0  0  0
   49.4097  101.4899   35.8587 H   0  0  0  0  0  0
   50.9885  100.6144   34.1789 H   0  0  0  0  0  0
   51.5527  106.4922   34.6934 H   0  0  0  0  0  0
   49.9737  107.3748   36.3697 H   0  0  0  0  0  0
   48.4436  105.8623   37.5600 H   0  0  0  0  0  0
   48.4515  103.4325   37.0999 H   0  0  0  0  0  0
  1  2  2  0  0  0
  1  4  1  0  0  0
  2  3  1  0  0  0
  2 25  1  0  0  0
  3  6  2  0  0  0
  3 26  1  0  0  0
  4  5  2  0  0  0
  4 11  1  0  0  0
  5  6  1  0  0  0
  5 10  1  0  0  0
  6  7  1  0  0  0
  7  8  2  0  0  0
  7 27  1  0  0  0
  8 12  1  0  0  0
  8  9  1  0  0  0
  9 10  2  0  0  0
  9 28  1  0  0  0
 10 29  1  0  0  0
 11 30  1  0  0  0
 11 31  1  0  0  0
 12 13  1  0  0  0
 12 32  1  0  0  0
 12 33  1  0  0  0
 13 14  1  0  0  0
 13 34  1  0  0  0
 14 15  1  0  0  0
 14 35  1  0  0  0
 14 36  1  0  0  0
 15 16  2  0  0  0
 15 18  1  0  0  0
 16 20  1  0  0  0
 16 37  1  0  0  0
 17 19  1  0  0  0
 17 18  2  0  0  0
 17 38  1  0  0  0
 18 39  1  0  0  0
 19 20  1  0  0  0
 19 24  2  0  0  0
 20 21  2  0  0  0
 21 22  1  0  0  0
 21 40  1  0  0  0
 22 23  2  0  0  0
 22 41  1  0  0  0
 23 24  1  0  0  0
 23 42  1  0  0  0
 24 43  1  0  0  0
M  END
> <s_m_entry_id>
27890

> <s_m_entry_name>
dock_pv.51

> <s_m_Source_Path>
/home/csk/Desktop/cluster/DUD-E-result/rock1

> <s_m_Source_File>
dock_pv.maegz

> <i_m_Source_File_Index>
51

> <chembl_id>
CHEMBL1643366

> <chembl_pref_name>
None

> <i_lp_mmshare_version>
53161

> <r_lp_tautomer_probability>
1

> <s_lp_Force_Field>
OPLS_2005

> <r_lp_Energy>
19.357182

> <b_lp_Chiralities_Consistent>
1

> <s_lp_Variant>
CHEMBL3231_lig242-1

> <s_i_glide_gridfile>
glide-grid_2etr

> <i_i_glide_lignum>
386

> <i_i_glide_rotatable_bonds>
4

> <r_i_docking_score>
-8.68673813165212

> <r_i_glide_ligand_efficiency>
-0.361947422152172

> <r_i_glide_ligand_efficiency_sa>
-1.04403702703969

> <r_i_glide_ligand_efficiency_ln>
-2.07913504334354

> <r_i_glide_gscore>
-8.68673813165212

> <r_i_glide_lipo>
-3.31088070962197

> <r_i_glide_hbond>
-0.417075684651564

> <r_i_glide_metal>
0

> <r_i_glide_rewards>
-2.65063565151515

> <r_i_glide_evdw>
-38.604793548584

> <r_i_glide_ecoul>
-5.16687154769897

> <r_i_glide_erotb>
0.397124323720609

> <r_i_glide_esite>
0

> <r_i_glide_emodel>
-65.432180914072

> <r_i_glide_energy>
-43.771665096283

> <r_i_glide_einternal>
2.65272402763367

> <i_i_glide_confnum>
1

> <i_i_glide_posenum>
381

> <r_i_glide_eff_state_penalty>
0

> <s_user_duplicate_titles>
CHEMBL3231_lig242

> <i_f3d_flags>
0

> <s_m_subgroup_title>
dock_pv

> <s_m_subgroupid>
dock_pv

> <b_m_subgroup_collapsed>
1

$$$$
CHEMBL3231_lig789
                    3D
 Schrodinger Suite 2021-1.
 57 59  0  0  1  0            999 V2000
   51.4819   97.6407   30.3560 C   0  0  0  0  0  0
   51.2430   98.4000   29.1801 O   0  0  0  0  0  0
   51.4239   99.7702   29.1929 C   0  0  0  0  0  0
   51.9390  100.4581   30.3068 C   0  0  0  0  0  0
   52.0159  101.8567   30.3242 C   0  0  0  0  0  0
   51.5856  102.5757   29.2103 C   0  0  0  0  0  0
   51.1154  101.9033   28.0862 C   0  0  0  0  0  0
   51.0404  100.5062   28.0554 C   0  0  0  0  0  0
   50.5361   99.8676   26.7946 C   0  0  0  0  0  0
   50.5790   98.5189   26.3862 C   0  0  0  0  0  0
   50.0430   98.3030   25.2110 N   0  0  0  0  0  0
   49.6431   99.5083   24.8107 N   0  0  0  0  0  0
   49.9171  100.4886   25.7166 C   0  0  0  0  0  0
   52.5162  102.5821   31.5387 C   0  0  0  0  0  0
   51.8631  103.5095   32.0269 O   0  0  0  0  0  0
   53.6920  102.1419   32.0171 N   0  0  0  0  0  0
   54.3176  102.5727   33.2657 C   0  0  0  0  0  0
   53.7856  101.8371   34.4919 C   0  0  0  0  0  0
   53.2945  102.5537   35.5850 C   0  0  0  0  0  0
   52.8147  101.8811   36.7068 C   0  0  0  0  0  0
   52.8154  100.4869   36.7405 C   0  0  0  0  0  0
   53.2970   99.7432   35.6539 C   0  0  0  0  0  0
   53.7833  100.4359   34.5301 C   0  0  0  0  0  0
   53.2615   98.2327   35.7008 C   0  0  0  0  0  0
   52.4480   97.6400   36.4108 O   0  0  0  0  0  0
   54.1666   97.5958   34.9381 N   0  0  0  0  0  0
   54.2694   96.1432   34.7469 C   0  0  0  0  0  0
   54.6046   95.7259   33.2874 C   0  0  0  0  0  0
   55.9746   96.2685   32.8285 C   0  0  0  0  0  0
   54.5364   94.1966   33.1026 C   0  0  0  0  0  0
   53.6431   96.2969   32.4186 O   0  0  0  0  0  0
   51.2435   96.5919   30.1739 H   0  0  0  0  0  0
   52.5335   97.7016   30.6351 H   0  0  0  0  0  0
   50.8629   97.9777   31.1887 H   0  0  0  0  0  0
   52.2445   99.9137   31.1873 H   0  0  0  0  0  0
   51.6344  103.6553   29.2001 H   0  0  0  0  0  0
   50.8135  102.4904   27.2338 H   0  0  0  0  0  0
   51.0068   97.6961   26.9398 H   0  0  0  0  0  0
   49.2019   99.6602   23.9080 H   0  0  0  0  0  0
   49.6463  101.5158   25.5152 H   0  0  0  0  0  0
   54.1744  101.4208   31.4966 H   0  0  0  0  0  0
   54.2234  103.6547   33.3855 H   0  0  0  0  0  0
   55.3851  102.3629   33.1850 H   0  0  0  0  0  0
   53.2861  103.6336   35.5694 H   0  0  0  0  0  0
   52.4437  102.4402   37.5518 H   0  0  0  0  0  0
   52.4444   99.9834   37.6219 H   0  0  0  0  0  0
   54.1522   99.8953   33.6686 H   0  0  0  0  0  0
   54.8704   98.1503   34.4754 H   0  0  0  0  0  0
   53.3419   95.6508   35.0501 H   0  0  0  0  0  0
   55.0397   95.7629   35.4200 H   0  0  0  0  0  0
   56.7830   95.8824   33.4493 H   0  0  0  0  0  0
   56.0250   97.3564   32.8663 H   0  0  0  0  0  0
   56.1959   95.9818   31.7990 H   0  0  0  0  0  0
   55.2438   93.6933   33.7613 H   0  0  0  0  0  0
   53.5430   93.8034   33.3248 H   0  0  0  0  0  0
   54.7873   93.9050   32.0820 H   0  0  0  0  0  0
   52.7960   95.8444   32.5427 H   0  0  0  0  0  0
  1  2  1  0  0  0
  1 32  1  0  0  0
  1 33  1  0  0  0
  1 34  1  0  0  0
  2  3  1  0  0  0
  3  4  2  0  0  0
  3  8  1  0  0  0
  4  5  1  0  0  0
  4 35  1  0  0  0
  5  6  2  0  0  0
  5 14  1  0  0  0
  6  7  1  0  0  0
  6 36  1  0  0  0
  7  8  2  0  0  0
  7 37  1  0  0  0
  8  9  1  0  0  0
  9 10  1  0  0  0
  9 13  2  0  0  0
 10 11  2  0  0  0
 10 38  1  0  0  0
 11 12  1  0  0  0
 12 13  1  0  0  0
 12 39  1  0  0  0
 13 40  1  0  0  0
 14 15  2  0  0  0
 14 16  1  0  0  0
 16 17  1  0  0  0
 16 41  1  0  0  0
 17 18  1  0  0  0
 17 42  1  0  0  0
 17 43  1  0  0  0
 18 19  2  0  0  0
 18 23  1  0  0  0
 19 20  1  0  0  0
 19 44  1  0  0  0
 20 21  2  0  0  0
 20 45  1  0  0  0
 21 22  1  0  0  0
 21 46  1  0  0  0
 22 23  2  0  0  0
 22 24  1  0  0  0
 23 47  1  0  0  0
 24 25  2  0  0  0
 24 26  1  0  0  0
 26 27  1  0  0  0
 26 48  1  0  0  0
 27 28  1  0  0  0
 27 49  1  0  0  0
 27 50  1  0  0  0
 28 29  1  0  0  0
 28 30  1  0  0  0
 28 31  1  0  0  0
 29 51  1  0  0  0
 29 52  1  0  0  0
 29 53  1  0  0  0
 30 54  1  0  0  0
 30 55  1  0  0  0
 30 56  1  0  0  0
 31 57  1  0  0  0
M  END
> <s_m_entry_id>
27891

> <s_m_entry_name>
dock_pv.52

> <s_m_Source_Path>
/home/csk/Desktop/cluster/DUD-E-result/rock1

> <s_m_Source_File>
dock_pv.maegz

> <i_m_Source_File_Index>
52

> <chembl_id>
CHEMBL3961024

> <chembl_pref_name>
None

> <i_lp_mmshare_version>
53161

> <r_lp_tautomer_probability>
0.5

> <s_lp_Force_Field>
OPLS_2005

> <r_lp_Energy>
25.272341

> <b_lp_Chiralities_Consistent>
1

> <s_lp_Variant>
CHEMBL3231_lig789-1

> <s_i_glide_gridfile>
glide-grid_2etr

> <i_i_glide_lignum>
1116

> <i_i_glide_rotatable_bonds>
11

> <r_i_docking_score>
-8.67640246198626

> <r_i_glide_ligand_efficiency>
-0.279883950386653

> <r_i_glide_ligand_efficiency_sa>
-0.879222025653093

> <r_i_glide_ligand_efficiency_ln>
-1.95679465498

> <r_i_glide_gscore>
-8.67640246198626

> <r_i_glide_lipo>
-2.2283974307599

> <r_i_glide_hbond>
-1.22601834928401

> <r_i_glide_metal>
0

> <r_i_glide_rewards>
-1.48334264346188

> <r_i_glide_evdw>
-46.3572959899902

> <r_i_glide_ecoul>
-13.5517749786377

> <r_i_glide_erotb>
0.699256476840529

> <r_i_glide_esite>
-0.0872694690258255

> <r_i_glide_emodel>
-89.0508539329985

> <r_i_glide_energy>
-59.9090709686279

> <r_i_glide_einternal>
6.27839469909668

> <i_i_glide_confnum>
47

> <i_i_glide_posenum>
342

> <r_i_glide_eff_state_penalty>
0

> <s_user_duplicate_titles>
CHEMBL3231_lig789

> <i_f3d_flags>
0

> <s_m_subgroup_title>
dock_pv

> <s_m_subgroupid>
dock_pv

> <b_m_subgroup_collapsed>
1

$$$$
CHEMBL3231_lig410
                    3D
 Schrodinger Suite 2021-1.
 39 42  0  0  1  0            999 V2000
   51.3629   99.9782   28.1897 C   0  0  0  0  0  0
   51.9367   99.0424   29.0607 C   0  0  0  0  0  0
   52.3591   99.4213   30.3363 C   0  0  0  0  0  0
   51.2240  101.3041   28.5987 C   0  0  0  0  0  0
   51.6201  101.6805   29.8830 C   0  0  0  0  0  0
   52.1820  100.7370   30.7479 C   0  0  0  0  0  0
   52.4967  101.1472   32.0451 N   0  0  0  0  0  0
   52.2222  102.4421   32.4589 C   0  0  0  0  0  0
   51.7013  103.3434   31.7031 N   0  0  0  0  0  0
   51.3691  103.0916   30.3691 C   0  0  0  0  0  0
   50.8430  103.9033   29.6110 O   0  0  0  0  0  0
   50.8460   99.5882   26.8547 C   0  0  0  0  0  0
   52.5399  102.7689   33.9331 C   0  0  1  0  0  0
   53.4494  103.9039   34.0923 N   0  0  0  0  0  0
   50.5267  100.4073   25.7781 C   0  0  0  0  0  0
   50.0408   99.5769   24.8108 N   0  0  0  0  0  0
   50.0427   98.2966   25.1825 N   0  0  0  0  0  0
   50.5327   98.3020   26.3951 C   0  0  0  0  0  0
   51.2572  102.9451   34.7632 C   0  0  0  0  0  0
   50.6089  101.8139   35.2798 C   0  0  0  0  0  0
   49.4251  101.9436   36.0081 C   0  0  0  0  0  0
   48.8780  103.2053   36.2347 C   0  0  0  0  0  0
   49.5117  104.3385   35.7259 C   0  0  0  0  0  0
   50.6885  104.2092   34.9873 C   0  0  0  0  0  0
   48.8432  105.9022   36.0092 Cl  0  0  0  0  0  0
   52.0429   98.0136   28.7536 H   0  0  0  0  0  0
   52.7903   98.6891   31.0025 H   0  0  0  0  0  0
   50.7666  102.0248   27.9347 H   0  0  0  0  0  0
   52.9212  100.4871   32.6755 H   0  0  0  0  0  0
   53.0764  101.9242   34.3686 H   0  0  0  0  0  0
   53.7621  103.9672   35.0500 H   0  0  0  0  0  0
   54.2772  103.7802   33.5240 H   0  0  0  0  0  0
   50.5798  101.4756   25.6235 H   0  0  0  0  0  0
   49.6920   99.8769   23.9065 H   0  0  0  0  0  0
   50.6408   97.3836   26.9528 H   0  0  0  0  0  0
   51.0196  100.8287   35.1131 H   0  0  0  0  0  0
   48.9319  101.0678   36.4019 H   0  0  0  0  0  0
   47.9655  103.3007   36.8055 H   0  0  0  0  0  0
   51.1641  105.0948   34.5879 H   0  0  0  0  0  0
  1  4  2  0  0  0
  1 12  1  0  0  0
  1  2  1  0  0  0
  2 26  1  0  0  0
  2  3  2  0  0  0
  3 27  1  0  0  0
  3  6  1  0  0  0
  4  5  1  0  0  0
  4 28  1  0  0  0
  5 10  1  0  0  0
  5  6  2  0  0  0
  6  7  1  0  0  0
  7 29  1  0  0  0
  7  8  1  0  0  0
  8 13  1  0  0  0
  8  9  2  0  0  0
  9 10  1  0  0  0
 10 11  2  0  0  0
 12 15  2  0  0  0
 12 18  1  0  0  0
 13 14  1  0  0  0
 13 19  1  0  0  0
 13 30  1  0  0  0
 14 31  1  0  0  0
 14 32  1  0  0  0
 15 16  1  0  0  0
 15 33  1  0  0  0
 16 17  1  0  0  0
 16 34  1  0  0  0
 17 18  2  0  0  0
 18 35  1  0  0  0
 19 20  2  0  0  0
 19 24  1  0  0  0
 20 21  1  0  0  0
 20 36  1  0  0  0
 21 22  2  0  0  0
 21 37  1  0  0  0
 22 23  1  0  0  0
 22 38  1  0  0  0
 23 24  2  0  0  0
 23 25  1  0  0  0
 24 39  1  0  0  0
M  END
> <s_m_entry_id>
27892

> <s_m_entry_name>
dock_pv.53

> <s_m_Source_Path>
/home/csk/Desktop/cluster/DUD-E-result/rock1

> <s_m_Source_File>
dock_pv.maegz

> <i_m_Source_File_Index>
53

> <chembl_id>
CHEMBL2333894

> <chembl_pref_name>
None

> <i_lp_mmshare_version>
53161

> <r_lp_tautomer_probability>
0.0616002225126304

> <s_lp_Force_Field>
OPLS_2005

> <r_lp_Energy>
17.407768

> <b_lp_Chiralities_Consistent>
1

> <s_lp_Variant>
CHEMBL3231_lig410-4

> <s_i_glide_gridfile>
glide-grid_2etr

> <i_i_glide_lignum>
586

> <i_i_glide_rotatable_bonds>
3

> <r_i_docking_score>
-8.67134662459209

> <r_i_glide_ligand_efficiency>
-0.346853864983683

> <r_i_glide_ligand_efficiency_sa>
-1.01420685269178

> <r_i_glide_ligand_efficiency_ln>
-2.05536900931731

> <r_i_glide_gscore>
-8.67134662459209

> <r_i_glide_lipo>
-3.02517035667886

> <r_i_glide_hbond>
-0.663210783928926

> <r_i_glide_metal>
0

> <r_i_glide_rewards>
-1.95517159015129

> <r_i_glide_evdw>
-44.7585830688477

> <r_i_glide_ecoul>
-7.18504285812378

> <r_i_glide_erotb>
0.32371787469282

> <r_i_glide_esite>
-0.035826186364879

> <r_i_glide_emodel>
-77.9179296531999

> <r_i_glide_energy>
-51.9436259269714

> <r_i_glide_einternal>
1.23575460910797

> <i_i_glide_confnum>
4

> <i_i_glide_posenum>
11

> <r_i_glide_eff_state_penalty>
0

> <s_user_duplicate_titles>
CHEMBL3231_lig410,CHEMBL3231_lig410

> <i_f3d_flags>
0

> <s_m_subgroup_title>
dock_pv

> <s_m_subgroupid>
dock_pv

> <b_m_subgroup_collapsed>
1

$$$$
CHEMBL3231_lig887
                    3D
 Schrodinger Suite 2021-1.
 49 53  0  0  1  0            999 V2000
   53.0286  100.0548   31.0797 N   0  0  0  0  0  0
   53.3262  100.9042   32.0104 C   0  0  0  0  0  0
   52.9646  102.2316   31.8973 N   0  0  0  0  0  0
   52.1014  102.7843   31.0014 C   0  0  0  0  0  0
   52.3016  100.5297   30.0180 C   0  0  0  0  0  0
   51.8254  101.8410   29.9440 C   0  0  0  0  0  0
   50.8435  102.1421   28.5606 S   0  0  0  0  0  0
   51.1385  100.5256   27.9860 C   0  0  0  0  0  0
   51.9305   99.8026   28.8888 C   0  0  0  0  0  0
   50.5741  100.1006   26.7164 C   0  0  0  0  0  0
   50.0431  100.8962   25.7142 C   0  0  0  0  0  0
   49.6535  100.0344   24.7348 N   0  0  0  0  0  0
   49.9058   98.7604   25.0277 N   0  0  0  0  0  0
   50.4420   98.7897   26.2254 C   0  0  0  0  0  0
   51.6433  103.9032   31.1670 O   0  0  0  0  0  0
   50.8426   97.5033   26.8840 C   0  0  0  0  0  0
   53.9133  100.5059   33.3651 C   0  0  0  0  0  0
   52.8962  100.2837   34.4175 N   0  0  2  0  0  0
   51.9269  101.3602   34.5823 C   0  0  0  0  0  0
   51.2538  101.1813   35.9306 C   0  0  1  0  0  0
   52.3643  100.5128   36.7672 C   0  0  0  0  0  0
   53.4815  100.1985   35.7519 C   0  0  0  0  0  0
   50.6341  102.4952   36.4109 C   0  0  0  0  0  0
   49.2430  102.6540   36.4116 C   0  0  0  0  0  0
   48.6763  103.8621   36.8111 C   0  0  0  0  0  0
   49.4995  104.9125   37.2085 C   0  0  0  0  0  0
   50.8841  104.7641   37.2150 C   0  0  0  0  0  0
   51.4512  103.5563   36.8173 C   0  0  0  0  0  0
   53.2384  102.8567   32.6389 H   0  0  0  0  0  0
   52.2335   98.7772   28.7592 H   0  0  0  0  0  0
   49.9131  101.9638   25.6114 H   0  0  0  0  0  0
   49.2379  100.3028   23.8479 H   0  0  0  0  0  0
   50.3915   97.4085   27.8710 H   0  0  0  0  0  0
   50.5741   96.6169   26.3094 H   0  0  0  0  0  0
   51.9201   97.5049   27.0253 H   0  0  0  0  0  0
   54.5281   99.6096   33.2644 H   0  0  0  0  0  0
   54.5994  101.2930   33.6840 H   0  0  0  0  0  0
   52.4229  102.3312   34.5231 H   0  0  0  0  0  0
   51.2008  101.4178   33.7702 H   0  0  0  0  0  0
   50.4454  100.4682   35.7577 H   0  0  0  0  0  0
   52.0431   99.5647   37.1932 H   0  0  0  0  0  0
   52.7775  101.1687   37.5326 H   0  0  0  0  0  0
   53.8960   99.1992   35.8935 H   0  0  0  0  0  0
   54.3248  100.8799   35.8791 H   0  0  0  0  0  0
   48.5967  101.8457   36.1003 H   0  0  0  0  0  0
   47.6024  103.9818   36.8075 H   0  0  0  0  0  0
   49.0644  105.8551   37.5062 H   0  0  0  0  0  0
   51.5175  105.5857   37.5183 H   0  0  0  0  0  0
   52.5267  103.4520   36.8134 H   0  0  0  0  0  0
  1  5  1  0  0  0
  1  2  2  0  0  0
  2  3  1  0  0  0
  2 17  1  0  0  0
  3  4  1  0  0  0
  3 29  1  0  0  0
  4  6  1  0  0  0
  4 15  2  0  0  0
  5  6  2  0  0  0
  5  9  1  0  0  0
  6  7  1  0  0  0
  7  8  1  0  0  0
  8  9  2  0  0  0
  8 10  1  0  0  0
  9 30  1  0  0  0
 10 11  2  0  0  0
 10 14  1  0  0  0
 11 12  1  0  0  0
 11 31  1  0  0  0
 12 13  1  0  0  0
 12 32  1  0  0  0
 13 14  2  0  0  0
 14 16  1  0  0  0
 16 33  1  0  0  0
 16 34  1  0  0  0
 16 35  1  0  0  0
 17 18  1  0  0  0
 17 36  1  0  0  0
 17 37  1  0  0  0
 18 19  1  0  0  0
 18 22  1  0  0  0
 19 20  1  0  0  0
 19 38  1  0  0  0
 19 39  1  0  0  0
 20 21  1  0  0  0
 20 23  1  0  0  0
 20 40  1  0  0  0
 21 22  1  0  0  0
 21 41  1  0  0  0
 21 42  1  0  0  0
 22 43  1  0  0  0
 22 44  1  0  0  0
 23 24  2  0  0  0
 23 28  1  0  0  0
 24 25  1  0  0  0
 24 45  1  0  0  0
 25 26  2  0  0  0
 25 46  1  0  0  0
 26 27  1  0  0  0
 26 47  1  0  0  0
 27 28  2  0  0  0
 27 48  1  0  0  0
 28 49  1  0  0  0
M  END
> <s_m_entry_id>
27893

> <s_m_entry_name>
dock_pv.54

> <s_m_Source_Path>
/home/csk/Desktop/cluster/DUD-E-result/rock1

> <s_m_Source_File>
dock_pv.maegz

> <i_m_Source_File_Index>
54

> <chembl_id>
CHEMBL4105646

> <chembl_pref_name>
None

> <i_lp_mmshare_version>
53161

> <r_lp_tautomer_probability>
0.5

> <s_lp_Force_Field>
OPLS_2005

> <r_lp_Energy>
47.217003

> <b_lp_Chiralities_Consistent>
1

> <s_lp_Variant>
CHEMBL3231_lig887-2

> <s_i_glide_gridfile>
glide-grid_2etr

> <i_i_glide_lignum>
1267

> <i_i_glide_rotatable_bonds>
4

> <r_i_docking_score>
-8.66575028392745

> <r_i_glide_ligand_efficiency>
-0.309491081568837

> <r_i_glide_ligand_efficiency_sa>
-0.939797204141937

> <r_i_glide_ligand_efficiency_ln>
-2.00030960301479

> <r_i_glide_gscore>
-8.66575028392745

> <r_i_glide_lipo>
-3.0733011344593

> <r_i_glide_hbond>
-0.558516179108912

> <r_i_glide_metal>
0

> <r_i_glide_rewards>
-2.00150525757576

> <r_i_glide_evdw>
-44.4491271972656

> <r_i_glide_ecoul>
-7.50025224685669

> <r_i_glide_erotb>
0.356523432363844

> <r_i_glide_esite>
-0.0414569482555375

> <r_i_glide_emodel>
-74.0542638990059

> <r_i_glide_energy>
-51.9493794441223

> <r_i_glide_einternal>
8.88762855529785

> <i_i_glide_confnum>
39

> <i_i_glide_posenum>
396

> <r_i_glide_eff_state_penalty>
0

> <s_user_duplicate_titles>
CHEMBL3231_lig887

> <i_f3d_flags>
0

> <s_m_subgroup_title>
dock_pv

> <s_m_subgroupid>
dock_pv

> <b_m_subgroup_collapsed>
1

$$$$
CHEMBL3231_lig792
                    3D
 Schrodinger Suite 2021-1.
 50 52  0  0  1  0            999 V2000
   49.6180  108.3065   35.6105 C   0  0  0  0  0  0
   50.8023  107.5647   36.2475 C   0  0  0  0  0  0
   50.7832  106.1301   35.9731 N   0  0  0  0  0  0
   50.0400  105.2143   36.6253 C   0  0  0  0  0  0
   49.2526  105.5021   37.5298 O   0  0  0  0  0  0
   50.1909  103.7875   36.1508 C   0  0  0  0  0  0
   49.1399  102.8759   36.3218 C   0  0  0  0  0  0
   49.2596  101.5599   35.8779 C   0  0  0  0  0  0
   50.4331  101.1297   35.2639 C   0  0  0  0  0  0
   51.4941  102.0196   35.0834 C   0  0  0  0  0  0
   52.7761  101.5574   34.3922 C   0  0  0  0  0  0
   52.6172  101.2786   32.9627 N   0  0  0  0  0  0
   52.1561  102.1532   32.0479 C   0  0  0  0  0  0
   51.9028  103.3291   32.3216 O   0  0  0  0  0  0
   51.8703  101.6126   30.6636 C   0  0  0  0  0  0
   52.0373  100.2622   30.3230 C   0  0  0  0  0  0
   51.6432   99.7906   29.0717 C   0  0  0  0  0  0
   51.0808  100.6477   28.1165 C   0  0  0  0  0  0
   50.9594  102.0186   28.4261 C   0  0  0  0  0  0
   50.4429  102.8799   27.4764 O   0  0  0  0  0  0
   50.3401  104.2784   27.7401 C   0  0  0  0  0  0
   51.3571  102.4736   29.6902 C   0  0  0  0  0  0
   50.6009  100.0530   26.8166 C   0  0  0  0  0  0
   50.0421  100.6951   25.7206 C   0  0  0  0  0  0
   49.7238   99.7293   24.8111 N   0  0  0  0  0  0
   50.0430   98.5055   25.2222 N   0  0  0  0  0  0
   50.5724   98.7009   26.4108 C   0  0  0  0  0  0
   51.3749  103.3384   35.5372 C   0  0  0  0  0  0
   49.6504  109.3654   35.8633 H   0  0  0  0  0  0
   48.6604  107.9167   35.9579 H   0  0  0  0  0  0
   49.6439  108.2313   34.5230 H   0  0  0  0  0  0
   51.7335  107.9672   35.8441 H   0  0  0  0  0  0
   50.8428  107.7490   37.3239 H   0  0  0  0  0  0
   51.3922  105.8093   35.2326 H   0  0  0  0  0  0
   48.2183  103.1810   36.7987 H   0  0  0  0  0  0
   48.4434  100.8688   36.0153 H   0  0  0  0  0  0
   50.5116  100.1078   34.9241 H   0  0  0  0  0  0
   53.5862  102.2757   34.5395 H   0  0  0  0  0  0
   53.1124  100.6380   34.8751 H   0  0  0  0  0  0
   52.9693  100.3908   32.6358 H   0  0  0  0  0  0
   52.4390   99.5499   31.0273 H   0  0  0  0  0  0
   51.7658   98.7392   28.8630 H   0  0  0  0  0  0
   50.0439  104.7972   26.8292 H   0  0  0  0  0  0
   49.5857  104.4808   28.5002 H   0  0  0  0  0  0
   51.2919  104.7033   28.0517 H   0  0  0  0  0  0
   51.2449  103.5139   29.9435 H   0  0  0  0  0  0
   49.8204  101.7306   25.5150 H   0  0  0  0  0  0
   49.2914   99.9023   23.9071 H   0  0  0  0  0  0
   50.9244   97.8593   26.9892 H   0  0  0  0  0  0
   52.2064  104.0111   35.3921 H   0  0  0  0  0  0
  1  2  1  0  0  0
  1 29  1  0  0  0
  1 30  1  0  0  0
  1 31  1  0  0  0
  2  3  1  0  0  0
  2 32  1  0  0  0
  2 33  1  0  0  0
  3  4  1  0  0  0
  3 34  1  0  0  0
  4  5  2  0  0  0
  4  6  1  0  0  0
  6  7  2  0  0  0
  6 28  1  0  0  0
  7  8  1  0  0  0
  7 35  1  0  0  0
  8  9  2  0  0  0
  8 36  1  0  0  0
  9 10  1  0  0  0
  9 37  1  0  0  0
 10 11  1  0  0  0
 10 28  2  0  0  0
 11 12  1  0  0  0
 11 38  1  0  0  0
 11 39  1  0  0  0
 12 13  1  0  0  0
 12 40  1  0  0  0
 13 14  2  0  0  0
 13 15  1  0  0  0
 15 16  2  0  0  0
 15 22  1  0  0  0
 16 17  1  0  0  0
 16 41  1  0  0  0
 17 18  2  0  0  0
 17 42  1  0  0  0
 18 19  1  0  0  0
 18 23  1  0  0  0
 19 20  1  0  0  0
 19 22  2  0  0  0
 20 21  1  0  0  0
 21 43  1  0  0  0
 21 44  1  0  0  0
 21 45  1  0  0  0
 22 46  1  0  0  0
 23 24  2  0  0  0
 23 27  1  0  0  0
 24 25  1  0  0  0
 24 47  1  0  0  0
 25 26  1  0  0  0
 25 48  1  0  0  0
 26 27  2  0  0  0
 27 49  1  0  0  0
 28 50  1  0  0  0
M  END
> <s_m_entry_id>
27894

> <s_m_entry_name>
dock_pv.55

> <s_m_Source_Path>
/home/csk/Desktop/cluster/DUD-E-result/rock1

> <s_m_Source_File>
dock_pv.maegz

> <i_m_Source_File_Index>
55

> <chembl_id>
CHEMBL3956238

> <chembl_pref_name>
None

> <i_lp_mmshare_version>
53161

> <r_lp_tautomer_probability>
0.5

> <s_lp_Force_Field>
OPLS_2005

> <r_lp_Energy>
24.117309

> <b_lp_Chiralities_Consistent>
1

> <s_lp_Variant>
CHEMBL3231_lig792-1

> <s_i_glide_gridfile>
glide-grid_2etr

> <i_i_glide_lignum>
1119

> <i_i_glide_rotatable_bonds>
9

> <r_i_docking_score>
-8.66197322185791

> <r_i_glide_ligand_efficiency>
-0.309356186494925

> <r_i_glide_ligand_efficiency_sa>
-0.93938758324859

> <r_i_glide_ligand_efficiency_ln>
-1.99943774618978

> <r_i_glide_gscore>
-8.66197322185791

> <r_i_glide_lipo>
-2.97646015568762

> <r_i_glide_hbond>
-0.715485221512957

> <r_i_glide_metal>
0

> <r_i_glide_rewards>
-1.93021201562345

> <r_i_glide_evdw>
-48.466869354248

> <r_i_glide_ecoul>
-8.23656558990479

> <r_i_glide_erotb>
0.663085839718728

> <r_i_glide_esite>
-0.0440733625544896

> <r_i_glide_emodel>
-86.7732360015833

> <r_i_glide_energy>
-56.7034349441528

> <r_i_glide_einternal>
1.81381916999817

> <i_i_glide_confnum>
57

> <i_i_glide_posenum>
211

> <r_i_glide_eff_state_penalty>
0

> <s_user_duplicate_titles>
CHEMBL3231_lig792

> <i_f3d_flags>
0

> <s_m_subgroup_title>
dock_pv

> <s_m_subgroupid>
dock_pv

> <b_m_subgroup_collapsed>
1

$$$$
CHEMBL3231_lig714
                    3D
 Schrodinger Suite 2021-1.
 47 49  0  0  1  0            999 V2000
   50.1222  107.1518   35.4799 C   0  0  0  0  0  0
   49.1932  106.1175   35.7894 O   0  0  0  0  0  0
   49.5435  104.8022   35.5500 C   0  0  0  0  0  0
   48.5875  103.8336   35.8580 C   0  0  0  0  0  0
   48.8425  102.4826   35.6296 C   0  0  0  0  0  0
   50.0628  102.0828   35.0877 C   0  0  0  0  0  0
   50.2860  100.7634   34.8761 F   0  0  0  0  0  0
   51.0440  103.0322   34.7640 C   0  0  0  0  0  0
   50.7747  104.3893   35.0099 C   0  0  0  0  0  0
   52.3891  102.5619   34.1744 C   0  0  2  0  0  0
   53.5548  103.5746   34.2794 C   0  0  0  0  0  0
   52.2577  102.0115   32.8179 N   0  0  0  0  0  0
   51.8708  102.6913   31.7203 C   0  0  0  0  0  0
   51.6440  103.9029   31.7414 O   0  0  0  0  0  0
   51.6622  101.9019   30.4444 C   0  0  0  0  0  0
   51.3900  102.5870   29.2569 C   0  0  0  0  0  0
   51.0637  101.8970   28.0981 C   0  0  0  0  0  0
   51.0035  100.4997   28.0778 C   0  0  0  0  0  0
   51.3202   99.7813   29.2494 C   0  0  0  0  0  0
   51.2427   98.3984   29.2161 O   0  0  0  0  0  0
   51.4085   97.6396   30.4115 C   0  0  0  0  0  0
   51.6574  100.4961   30.4153 C   0  0  0  0  0  0
   50.5400   99.8592   26.8000 C   0  0  0  0  0  0
   49.9239  100.4810   25.7197 C   0  0  0  0  0  0
   49.6464   99.5056   24.8108 N   0  0  0  0  0  0
   50.0429   98.2996   25.2110 N   0  0  0  0  0  0
   50.5869   98.5127   26.3867 C   0  0  0  0  0  0
   49.6756  108.1191   35.7138 H   0  0  0  0  0  0
   51.0343  107.0614   36.0723 H   0  0  0  0  0  0
   50.3838  107.1604   34.4208 H   0  0  0  0  0  0
   47.6359  104.1344   36.2750 H   0  0  0  0  0  0
   48.0945  101.7430   35.8770 H   0  0  0  0  0  0
   51.5206  105.1267   34.7575 H   0  0  0  0  0  0
   52.6940  101.7168   34.7962 H   0  0  0  0  0  0
   53.7094  103.8934   35.3099 H   0  0  0  0  0  0
   54.4898  103.1267   33.9376 H   0  0  0  0  0  0
   53.3911  104.4652   33.6716 H   0  0  0  0  0  0
   52.3978  101.0163   32.7307 H   0  0  0  0  0  0
   51.4042  103.6687   29.2227 H   0  0  0  0  0  0
   50.8348  102.4717   27.2139 H   0  0  0  0  0  0
   51.2443   96.5842   30.1953 H   0  0  0  0  0  0
   52.4178   97.7392   30.8135 H   0  0  0  0  0  0
   50.6845   97.9260   31.1751 H   0  0  0  0  0  0
   51.8721   99.9511   31.3203 H   0  0  0  0  0  0
   49.6432  101.5054   25.5248 H   0  0  0  0  0  0
   49.1992   99.6608   23.9110 H   0  0  0  0  0  0
   51.0086   97.6896   26.9445 H   0  0  0  0  0  0
  1  2  1  0  0  0
  1 28  1  0  0  0
  1 29  1  0  0  0
  1 30  1  0  0  0
  2  3  1  0  0  0
  3  4  2  0  0  0
  3  9  1  0  0  0
  4  5  1  0  0  0
  4 31  1  0  0  0
  5  6  2  0  0  0
  5 32  1  0  0  0
  6  7  1  0  0  0
  6  8  1  0  0  0
  8  9  2  0  0  0
  8 10  1  0  0  0
  9 33  1  0  0  0
 10 11  1  0  0  0
 10 12  1  0  0  0
 10 34  1  0  0  0
 11 35  1  0  0  0
 11 36  1  0  0  0
 11 37  1  0  0  0
 12 13  1  0  0  0
 12 38  1  0  0  0
 13 14  2  0  0  0
 13 15  1  0  0  0
 15 16  2  0  0  0
 15 22  1  0  0  0
 16 17  1  0  0  0
 16 39  1  0  0  0
 17 18  2  0  0  0
 17 40  1  0  0  0
 18 19  1  0  0  0
 18 23  1  0  0  0
 19 20  1  0  0  0
 19 22  2  0  0  0
 20 21  1  0  0  0
 21 41  1  0  0  0
 21 42  1  0  0  0
 21 43  1  0  0  0
 22 44  1  0  0  0
 23 24  2  0  0  0
 23 27  1  0  0  0
 24 25  1  0  0  0
 24 45  1  0  0  0
 25 26  1  0  0  0
 25 46  1  0  0  0
 26 27  2  0  0  0
 27 47  1  0  0  0
M  END
> <s_m_entry_id>
27895

> <s_m_entry_name>
dock_pv.56

> <s_m_Source_Path>
/home/csk/Desktop/cluster/DUD-E-result/rock1

> <s_m_Source_File>
dock_pv.maegz

> <i_m_Source_File_Index>
56

> <chembl_id>
CHEMBL3898965

> <chembl_pref_name>
None

> <i_lp_mmshare_version>
53161

> <r_lp_tautomer_probability>
0.5

> <s_lp_Force_Field>
OPLS_2005

> <r_lp_Energy>
25.024416

> <b_lp_Chiralities_Consistent>
1

> <s_lp_Variant>
CHEMBL3231_lig714-1

> <s_i_glide_gridfile>
glide-grid_2etr

> <i_i_glide_lignum>
1014

> <i_i_glide_rotatable_bonds>
7

> <r_i_docking_score>
-8.65984825927931

> <r_i_glide_ligand_efficiency>
-0.320735120714049

> <r_i_glide_ligand_efficiency_sa>
-0.962205361085055

> <r_i_glide_ligand_efficiency_ln>
-2.01586990600369

> <r_i_glide_gscore>
-8.65984825927931

> <r_i_glide_lipo>
-2.74739938852186

> <r_i_glide_hbond>
-0.676617273062188

> <r_i_glide_metal>
0

> <r_i_glide_rewards>
-2.24226602799366

> <r_i_glide_evdw>
-43.8909721374512

> <r_i_glide_ecoul>
-8.25198650360107

> <r_i_glide_erotb>
0.494556831878388

> <r_i_glide_esite>
-0.0557758191672726

> <r_i_glide_emodel>
-76.8090224920205

> <r_i_glide_energy>
-52.1429586410522

> <r_i_glide_einternal>
6.4041543006897

> <i_i_glide_confnum>
47

> <i_i_glide_posenum>
234

> <r_i_glide_eff_state_penalty>
0

> <s_user_duplicate_titles>
CHEMBL3231_lig714

> <i_f3d_flags>
0

> <s_m_subgroup_title>
dock_pv

> <s_m_subgroupid>
dock_pv

> <b_m_subgroup_collapsed>
1

$$$$
CHEMBL3231_lig798
                    3D
 Schrodinger Suite 2021-1.
 53 56  0  0  1  0            999 V2000
   52.0335   98.4534   29.1259 C   0  0  0  0  0  0
   51.8148   99.9482   28.9935 C   0  0  0  0  0  0
   52.3802  100.7668   29.9771 C   0  0  0  0  0  0
   52.1758  102.1485   29.9600 C   0  0  0  0  0  0
   51.3766  102.7064   28.9633 C   0  0  0  0  0  0
   50.8429  101.9059   27.9653 C   0  0  0  0  0  0
   51.0758  100.5244   27.9354 C   0  0  0  0  0  0
   50.5510   99.8020   26.7254 C   0  0  0  0  0  0
   50.4541   98.4255   26.4286 C   0  0  0  0  0  0
   50.0419   98.1737   25.2115 N   0  0  0  0  0  0
   49.7646   99.3727   24.7066 N   0  0  0  0  0  0
   50.0449  100.3877   25.5686 C   0  0  0  0  0  0
   52.7226  103.0336   31.0351 C   0  0  0  0  0  0
   51.9900  103.9065   31.4924 O   0  0  0  0  0  0
   53.9921  102.8226   31.4325 N   0  0  0  0  0  0
   54.6769  103.5721   32.4963 C   0  0  0  0  0  0
   54.3158  103.1142   33.9098 C   0  0  0  0  0  0
   55.2769  102.5576   34.7582 C   0  0  0  0  0  0
   54.9240  102.1160   36.0336 C   0  0  0  0  0  0
   53.6004  102.2133   36.4671 C   0  0  0  0  0  0
   52.6257  102.7697   35.6291 C   0  0  0  0  0  0
   53.0100  103.2596   34.3795 C   0  0  0  0  0  0
   51.1867  102.8417   36.0558 C   0  0  0  0  0  0
   50.8931  103.1174   37.2110 O   0  0  0  0  0  0
   50.2873  102.5698   35.0924 N   0  0  0  0  0  0
   48.8339  102.4689   35.2271 C   0  0  0  0  0  0
   48.1478  103.5201   36.1220 C   0  0  0  0  0  0
   48.1029  104.9713   35.7238 C   0  0  0  0  0  0
   46.8435  104.1195   35.6734 C   0  0  0  0  0  0
   52.4430   98.0572   28.2007 H   0  0  0  0  0  0
   52.7294   98.2073   29.9293 H   0  0  0  0  0  0
   51.0881   97.9489   29.3249 H   0  0  0  0  0  0
   52.9611  100.3185   30.7734 H   0  0  0  0  0  0
   51.1849  103.7701   28.9401 H   0  0  0  0  0  0
   50.2605  102.3969   27.2010 H   0  0  0  0  0  0
   50.7057   97.5965   27.0704 H   0  0  0  0  0  0
   49.3897   99.5032   23.7712 H   0  0  0  0  0  0
   49.8849  101.4130   25.2710 H   0  0  0  0  0  0
   54.5350  102.1041   30.9730 H   0  0  0  0  0  0
   54.4369  104.6349   32.4118 H   0  0  0  0  0  0
   55.7535  103.4949   32.3376 H   0  0  0  0  0  0
   56.3024  102.4619   34.4392 H   0  0  0  0  0  0
   55.6767  101.6812   36.6764 H   0  0  0  0  0  0
   53.3369  101.8415   37.4479 H   0  0  0  0  0  0
   52.2715  103.7497   33.7712 H   0  0  0  0  0  0
   50.6643  102.3270   34.1883 H   0  0  0  0  0  0
   48.4664  101.4597   35.4200 H   0  0  0  0  0  0
   48.5171  102.6780   34.2042 H   0  0  0  0  0  0
   48.2721  103.3008   37.1838 H   0  0  0  0  0  0
   48.6149  105.2660   34.8110 H   0  0  0  0  0  0
   48.2141  105.7193   36.5074 H   0  0  0  0  0  0
   46.0628  104.3008   36.4105 H   0  0  0  0  0  0
   46.4325  103.8283   34.7068 H   0  0  0  0  0  0
  1  2  1  0  0  0
  1 30  1  0  0  0
  1 31  1  0  0  0
  1 32  1  0  0  0
  2  3  2  0  0  0
  2  7  1  0  0  0
  3  4  1  0  0  0
  3 33  1  0  0  0
  4  5  2  0  0  0
  4 13  1  0  0  0
  5  6  1  0  0  0
  5 34  1  0  0  0
  6  7  2  0  0  0
  6 35  1  0  0  0
  7  8  1  0  0  0
  8  9  1  0  0  0
  8 12  2  0  0  0
  9 10  2  0  0  0
  9 36  1  0  0  0
 10 11  1  0  0  0
 11 12  1  0  0  0
 11 37  1  0  0  0
 12 38  1  0  0  0
 13 14  2  0  0  0
 13 15  1  0  0  0
 15 16  1  0  0  0
 15 39  1  0  0  0
 16 17  1  0  0  0
 16 40  1  0  0  0
 16 41  1  0  0  0
 17 18  2  0  0  0
 17 22  1  0  0  0
 18 19  1  0  0  0
 18 42  1  0  0  0
 19 20  2  0  0  0
 19 43  1  0  0  0
 20 21  1  0  0  0
 20 44  1  0  0  0
 21 22  2  0  0  0
 21 23  1  0  0  0
 22 45  1  0  0  0
 23 24  2  0  0  0
 23 25  1  0  0  0
 25 26  1  0  0  0
 25 46  1  0  0  0
 26 27  1  0  0  0
 26 47  1  0  0  0
 26 48  1  0  0  0
 27 28  1  0  0  0
 27 29  1  0  0  0
 27 49  1  0  0  0
 28 29  1  0  0  0
 28 50  1  0  0  0
 28 51  1  0  0  0
 29 52  1  0  0  0
 29 53  1  0  0  0
M  END
> <s_m_entry_id>
27896

> <s_m_entry_name>
dock_pv.57

> <s_m_Source_Path>
/home/csk/Desktop/cluster/DUD-E-result/rock1

> <s_m_Source_File>
dock_pv.maegz

> <i_m_Source_File_Index>
57

> <chembl_id>
CHEMBL3977577

> <chembl_pref_name>
None

> <i_lp_mmshare_version>
53161

> <r_lp_tautomer_probability>
0.5

> <s_lp_Force_Field>
OPLS_2005

> <r_lp_Energy>
32.292484

> <b_lp_Chiralities_Consistent>
1

> <s_lp_Variant>
CHEMBL3231_lig798-1

> <s_i_glide_gridfile>
glide-grid_2etr

> <i_i_glide_lignum>
1126

> <i_i_glide_rotatable_bonds>
9

> <r_i_docking_score>
-8.64648897130317

> <r_i_glide_ligand_efficiency>
-0.298154792113902

> <r_i_glide_ligand_efficiency_sa>
-0.916025983442232

> <r_i_glide_ligand_efficiency_ln>
-1.97982671838604

> <r_i_glide_gscore>
-8.64648897130317

> <r_i_glide_lipo>
-3.1864827267308

> <r_i_glide_hbond>
-0.676026733695947

> <r_i_glide_metal>
0

> <r_i_glide_rewards>
-1.81919366053768

> <r_i_glide_evdw>
-44.2039833068848

> <r_i_glide_ecoul>
-9.27538585662842

> <r_i_glide_erotb>
0.723059879369996

> <r_i_glide_esite>
-0.086338685870233

> <r_i_glide_emodel>
-78.8270235999215

> <r_i_glide_energy>
-53.4793691635132

> <r_i_glide_einternal>
8.83504104614258

> <i_i_glide_confnum>
58

> <i_i_glide_posenum>
328

> <r_i_glide_eff_state_penalty>
0

> <s_user_duplicate_titles>
CHEMBL3231_lig798

> <i_f3d_flags>
0

> <s_m_subgroup_title>
dock_pv

> <s_m_subgroupid>
dock_pv

> <b_m_subgroup_collapsed>
1

$$$$
CHEMBL3231_lig399
                    3D
 Schrodinger Suite 2021-1.
 45 47  0  0  1  0            999 V2000
   52.8460  102.3132   31.3697 N   0  0  0  0  0  0
   52.1223  102.9879   32.2793 C   0  0  0  0  0  0
   50.8931  103.1041   32.2328 O   0  0  0  0  0  0
   52.8937  103.5162   33.2451 N   0  0  0  0  0  0
   52.4553  104.4671   34.2799 C   0  0  2  0  0  0
   53.6520  104.9830   35.1242 C   0  0  0  0  0  0
   54.8212  105.6212   34.3417 C   0  0  0  0  0  0
   55.5455  104.6582   33.6110 O   0  0  0  0  0  0
   51.3093  103.9946   35.1940 C   0  0  0  0  0  0
   50.5711  104.9525   35.9003 C   0  0  0  0  0  0
   49.5115  104.5711   36.7180 C   0  0  0  0  0  0
   49.1510  103.2303   36.8110 C   0  0  0  0  0  0
   49.8671  102.2653   36.1089 C   0  0  0  0  0  0
   50.9502  102.6427   35.3179 C   0  0  0  0  0  0
   48.8430  105.5028   37.4315 F   0  0  0  0  0  0
   52.3033  101.7355   30.2183 C   0  0  0  0  0  0
   51.4818  102.4687   29.3565 C   0  0  0  0  0  0
   50.9382  101.8603   28.2331 C   0  0  0  0  0  0
   51.2257  100.5203   27.9576 C   0  0  0  0  0  0
   52.0492   99.7926   28.8198 C   0  0  0  0  0  0
   52.6025  100.4012   29.9414 C   0  0  0  0  0  0
   49.6812   99.5138   24.8070 N   0  0  0  0  0  0
   50.0430   98.3013   25.2255 N   0  0  0  0  0  0
   50.6186   98.5219   26.3832 C   0  0  0  0  0  0
   50.6568   99.8828   26.7382 C   0  0  0  0  0  0
   50.0409  100.5081   25.6651 C   0  0  0  0  0  0
   53.8059  102.0890   31.5882 H   0  0  0  0  0  0
   53.8931  103.5210   33.0902 H   0  0  0  0  0  0
   52.0673  105.3279   33.7287 H   0  0  0  0  0  0
   53.2849  105.7459   35.8109 H   0  0  0  0  0  0
   54.0364  104.1821   35.7587 H   0  0  0  0  0  0
   54.4430  106.3455   33.6213 H   0  0  0  0  0  0
   55.4868  106.1732   35.0045 H   0  0  0  0  0  0
   55.6753  104.9998   32.7094 H   0  0  0  0  0  0
   50.8257  106.0001   35.8251 H   0  0  0  0  0  0
   48.3266  102.9372   37.4446 H   0  0  0  0  0  0
   49.5950  101.2226   36.1880 H   0  0  0  0  0  0
   51.4975  101.8740   34.7939 H   0  0  0  0  0  0
   51.2600  103.5068   29.5601 H   0  0  0  0  0  0
   50.3032  102.4369   27.5763 H   0  0  0  0  0  0
   52.2805   98.7566   28.6211 H   0  0  0  0  0  0
   53.2459   99.8299   30.5966 H   0  0  0  0  0  0
   49.2235   99.6605   23.9120 H   0  0  0  0  0  0
   51.0086   97.7042   26.9715 H   0  0  0  0  0  0
   49.8222  101.5414   25.4441 H   0  0  0  0  0  0
  1  2  1  0  0  0
  1 16  1  0  0  0
  1 27  1  0  0  0
  2  3  2  0  0  0
  2  4  1  0  0  0
  4  5  1  0  0  0
  4 28  1  0  0  0
  5  6  1  0  0  0
  5  9  1  0  0  0
  5 29  1  0  0  0
  6  7  1  0  0  0
  6 30  1  0  0  0
  6 31  1  0  0  0
  7  8  1  0  0  0
  7 32  1  0  0  0
  7 33  1  0  0  0
  8 34  1  0  0  0
  9 10  1  0  0  0
  9 14  2  0  0  0
 10 11  2  0  0  0
 10 35  1  0  0  0
 11 12  1  0  0  0
 11 15  1  0  0  0
 12 13  2  0  0  0
 12 36  1  0  0  0
 13 14  1  0  0  0
 13 37  1  0  0  0
 14 38  1  0  0  0
 16 17  1  0  0  0
 16 21  2  0  0  0
 17 18  2  0  0  0
 17 39  1  0  0  0
 18 19  1  0  0  0
 18 40  1  0  0  0
 19 20  2  0  0  0
 19 25  1  0  0  0
 20 21  1  0  0  0
 20 41  1  0  0  0
 21 42  1  0  0  0
 22 23  1  0  0  0
 22 26  1  0  0  0
 22 43  1  0  0  0
 23 24  2  0  0  0
 24 25  1  0  0  0
 24 44  1  0  0  0
 25 26  2  0  0  0
 26 45  1  0  0  0
M  END
> <s_m_entry_id>
27897

> <s_m_entry_name>
dock_pv.58

> <s_m_Source_Path>
/home/csk/Desktop/cluster/DUD-E-result/rock1

> <s_m_Source_File>
dock_pv.maegz

> <i_m_Source_File_Index>
58

> <chembl_id>
CHEMBL2332056

> <chembl_pref_name>
None

> <i_lp_mmshare_version>
53161

> <r_lp_tautomer_probability>
0.5

> <s_lp_Force_Field>
OPLS_2005

> <r_lp_Energy>
16.679777

> <b_lp_Chiralities_Consistent>
1

> <s_lp_Variant>
CHEMBL3231_lig399-1

> <s_i_glide_gridfile>
glide-grid_2etr

> <i_i_glide_lignum>
559

> <i_i_glide_rotatable_bonds>
9

> <r_i_docking_score>
-8.63566305574177

> <r_i_glide_ligand_efficiency>
-0.332140886759299

> <r_i_glide_ligand_efficiency_sa>
-0.983966070113142

> <r_i_glide_ligand_efficiency_ln>
-2.02805713271929

> <r_i_glide_gscore>
-8.63566305574177

> <r_i_glide_lipo>
-2.73768732530047

> <r_i_glide_hbond>
-0.897609373556585

> <r_i_glide_metal>
0

> <r_i_glide_rewards>
-1.48600296641626

> <r_i_glide_evdw>
-41.8782768249512

> <r_i_glide_ecoul>
-13.8218774795532

> <r_i_glide_erotb>
0.745551692478879

> <r_i_glide_esite>
-0.0927196197667892

> <r_i_glide_emodel>
-82.3803661906941

> <r_i_glide_energy>
-55.7001543045044

> <r_i_glide_einternal>
5.53153419494629

> <i_i_glide_confnum>
18

> <i_i_glide_posenum>
242

> <r_i_glide_eff_state_penalty>
0

> <s_user_duplicate_titles>
CHEMBL3231_lig399

> <i_f3d_flags>
0

> <s_m_subgroup_title>
dock_pv

> <s_m_subgroupid>
dock_pv

> <b_m_subgroup_collapsed>
1

$$$$
CHEMBL3231_lig218
                    3D
 Schrodinger Suite 2021-1.
 46 49  0  0  1  0            999 V2000
   52.8203  102.8249   31.2600 C   0  0  0  0  0  0
   52.9187  102.6770   32.6389 C   0  0  0  0  0  0
   52.5939  101.4742   33.2693 C   0  0  0  0  0  0
   52.1960  100.3716   32.5069 C   0  0  0  0  0  0
   52.3517  101.7351   30.5133 C   0  0  0  0  0  0
   52.0430  100.4829   31.1110 C   0  0  0  0  0  0
   51.5649   99.5135   30.1632 C   0  0  0  0  0  0
   51.4989  100.0322   28.8635 C   0  0  0  0  0  0
   52.0429  101.7077   28.8004 S   0  0  0  0  0  0
   51.1452   98.1240   30.6223 C   0  0  0  0  0  0
   51.0032   99.3846   27.5882 C   0  0  0  0  0  0
   50.6097  100.2177   26.5787 N   0  0  0  0  0  0
   50.1515   99.6423   25.4392 C   0  0  0  0  0  0
   50.0430   98.3140   25.2110 N   0  0  0  0  0  0
   50.4470   97.5030   26.2149 C   0  0  0  0  0  0
   50.9485   97.9939   27.4186 C   0  0  0  0  0  0
   49.7742  100.4913   24.4112 N   0  0  0  0  0  0
   52.6287  101.3515   34.7961 C   0  0  2  0  0  0
   51.3998  102.0131   35.4400 C   0  0  0  0  0  0
   50.1500  101.4042   35.2703 C   0  0  0  0  0  0
   49.0006  101.9762   35.8114 C   0  0  0  0  0  0
   49.0856  103.1564   36.5461 C   0  0  0  0  0  0
   50.3226  103.7752   36.7358 C   0  0  0  0  0  0
   51.4739  103.2029   36.1837 C   0  0  0  0  0  0
   50.4147  105.0472   37.5578 C   0  0  0  0  0  0
   53.8999  101.8178   35.3386 N   0  0  0  0  0  0
   53.0763  103.7644   30.7883 H   0  0  0  0  0  0
   53.2443  103.5183   33.2350 H   0  0  0  0  0  0
   51.9652   99.4407   32.9997 H   0  0  0  0  0  0
   50.3714   97.6762   30.0039 H   0  0  0  0  0  0
   51.9872   97.4321   30.6587 H   0  0  0  0  0  0
   50.7012   98.1368   31.6115 H   0  0  0  0  0  0
   50.4009   96.4390   26.0322 H   0  0  0  0  0  0
   51.2971   97.3007   28.1636 H   0  0  0  0  0  0
   49.8018  101.4826   24.5889 H   0  0  0  0  0  0
   49.3489  100.1303   23.5541 H   0  0  0  0  0  0
   52.5820  100.2911   35.0508 H   0  0  0  0  0  0
   50.0656  100.4875   34.7045 H   0  0  0  0  0  0
   48.0423  101.5027   35.6682 H   0  0  0  0  0  0
   48.1880  103.5829   36.9702 H   0  0  0  0  0  0
   52.4263  103.6929   36.3254 H   0  0  0  0  0  0
   51.4012  105.1550   38.0098 H   0  0  0  0  0  0
   50.2116  105.9205   36.9377 H   0  0  0  0  0  0
   49.6947  105.0281   38.3764 H   0  0  0  0  0  0
   53.9717  101.5480   36.3087 H   0  0  0  0  0  0
   54.6576  101.3520   34.8584 H   0  0  0  0  0  0
  1  5  2  0  0  0
  1  2  1  0  0  0
  1 27  1  0  0  0
  2  3  2  0  0  0
  2 28  1  0  0  0
  3 18  1  0  0  0
  3  4  1  0  0  0
  4  6  2  0  0  0
  4 29  1  0  0  0
  5  9  1  0  0  0
  5  6  1  0  0  0
  6  7  1  0  0  0
  7  8  2  0  0  0
  7 10  1  0  0  0
  8 11  1  0  0  0
  8  9  1  0  0  0
 10 30  1  0  0  0
 10 31  1  0  0  0
 10 32  1  0  0  0
 11 16  1  0  0  0
 11 12  2  0  0  0
 12 13  1  0  0  0
 13 14  2  0  0  0
 13 17  1  0  0  0
 14 15  1  0  0  0
 15 16  2  0  0  0
 15 33  1  0  0  0
 16 34  1  0  0  0
 17 35  1  0  0  0
 17 36  1  0  0  0
 18 19  1  0  0  0
 18 26  1  0  0  0
 18 37  1  0  0  0
 19 20  2  0  0  0
 19 24  1  0  0  0
 20 21  1  0  0  0
 20 38  1  0  0  0
 21 22  2  0  0  0
 21 39  1  0  0  0
 22 23  1  0  0  0
 22 40  1  0  0  0
 23 24  2  0  0  0
 23 25  1  0  0  0
 24 41  1  0  0  0
 25 42  1  0  0  0
 25 43  1  0  0  0
 25 44  1  0  0  0
 26 45  1  0  0  0
 26 46  1  0  0  0
M  END
> <s_m_entry_id>
27898

> <s_m_entry_name>
dock_pv.59

> <s_m_Source_Path>
/home/csk/Desktop/cluster/DUD-E-result/rock1

> <s_m_Source_File>
dock_pv.maegz

> <i_m_Source_File_Index>
59

> <chembl_id>
CHEMBL1083351

> <chembl_pref_name>
None

> <i_lp_mmshare_version>
53161

> <r_lp_tautomer_probability>
0.999999987636

> <s_lp_Force_Field>
OPLS_2005

> <r_lp_Energy>
8.714864

> <b_lp_Chiralities_Consistent>
1

> <s_lp_Variant>
CHEMBL3231_lig218-1

> <s_i_glide_gridfile>
glide-grid_2etr

> <i_i_glide_lignum>
354

> <i_i_glide_rotatable_bonds>
3

> <r_i_docking_score>
-8.63562074837949

> <r_i_glide_ligand_efficiency>
-0.332139259553057

> <r_i_glide_ligand_efficiency_sa>
-0.983961249521054

> <r_i_glide_ligand_efficiency_ln>
-2.02804719697408

> <r_i_glide_gscore>
-8.63562074837949

> <r_i_glide_lipo>
-2.83773755143927

> <r_i_glide_hbond>
-0.531260078173924

> <r_i_glide_metal>
0

> <r_i_glide_rewards>
-2.62260217468518

> <r_i_glide_evdw>
-42.622428894043

> <r_i_glide_ecoul>
-5.48570966720581

> <r_i_glide_erotb>
0.309956950701899

> <r_i_glide_esite>
0

> <r_i_glide_emodel>
-71.6704987139589

> <r_i_glide_energy>
-48.1081385612488

> <r_i_glide_einternal>
0.54342395067215

> <i_i_glide_confnum>
17

> <i_i_glide_posenum>
243

> <r_i_glide_eff_state_penalty>
0

> <s_user_duplicate_titles>
CHEMBL3231_lig218,630361

> <i_f3d_flags>
0

> <s_m_subgroup_title>
dock_pv

> <s_m_subgroupid>
dock_pv

> <b_m_subgroup_collapsed>
1

$$$$
CHEMBL3231_lig1342
                    3D
 Schrodinger Suite 2021-1.
 42 44  0  0  1  0            999 V2000
   48.9125  100.7029   35.2246 Cl  0  0  0  0  0  0
   50.0904  105.4032   37.5986 Cl  0  0  0  0  0  0
   52.0430  104.3029   32.0109 O   0  0  0  0  0  0
   55.5406  104.3208   33.6107 O   0  0  0  0  0  0
   53.3053  102.6142   32.8123 N   0  0  0  0  0  0
   50.0430   98.3097   25.2110 N   0  0  0  0  0  0
   52.1260  103.1046   34.9903 C   0  0  0  0  0  0
   53.4566  103.1095   34.1944 C   0  0  2  0  0  0
   52.2315  102.3746   30.6273 C   0  0  0  0  0  0
   52.5512  103.1935   31.8580 C   0  0  0  0  0  0
   51.4406  100.8023   28.4263 C   0  0  0  0  0  0
   51.7543  104.1492   35.8544 C   0  0  0  0  0  0
   51.2305  102.0355   34.8230 C   0  0  0  0  0  0
   50.0029  102.0134   35.4827 C   0  0  0  0  0  0
   50.5298  104.1189   36.5309 C   0  0  0  0  0  0
   50.9763   99.9430   27.3034 C   0  0  0  0  0  0
   52.8405  101.1360   30.3811 C   0  0  0  0  0  0
   51.2611  102.8367   29.7266 C   0  0  0  0  0  0
   49.6531  103.0531   36.3409 C   0  0  0  0  0  0
   52.4431  100.3630   29.2961 C   0  0  0  0  0  0
   50.8669  102.0578   28.6465 C   0  0  0  0  0  0
   54.2972  104.4189   34.2891 C   0  0  0  0  0  0
   50.9004   98.5490   27.4502 C   0  0  0  0  0  0
   50.5807  100.4968   26.0747 C   0  0  0  0  0  0
   50.4424   97.7748   26.3866 C   0  0  0  0  0  0
   50.1148   99.6548   25.0653 C   0  0  0  0  0  0
   55.4087  104.5685   32.6862 H   0  0  0  0  0  0
   53.7520  101.7346   32.6002 H   0  0  0  0  0  0
   54.0650  102.3538   34.6944 H   0  0  0  0  0  0
   52.4013  104.9993   36.0110 H   0  0  0  0  0  0
   51.4798  101.2170   34.1629 H   0  0  0  0  0  0
   53.6126  100.7439   31.0276 H   0  0  0  0  0  0
   50.7840  103.7951   29.8660 H   0  0  0  0  0  0
   48.7033  103.0303   36.8566 H   0  0  0  0  0  0
   52.9223   99.4081   29.1425 H   0  0  0  0  0  0
   50.0931  102.4302   27.9923 H   0  0  0  0  0  0
   53.7436  105.2757   33.8990 H   0  0  0  0  0  0
   54.5263  104.6408   35.3319 H   0  0  0  0  0  0
   51.1864   98.0682   28.3750 H   0  0  0  0  0  0
   50.6270  101.5619   25.9016 H   0  0  0  0  0  0
   50.3832   96.6997   26.4704 H   0  0  0  0  0  0
   49.7972  100.0551   24.1120 H   0  0  0  0  0  0
  1 14  1  0  0  0
  2 15  1  0  0  0
  3 10  2  0  0  0
  4 22  1  0  0  0
  4 27  1  0  0  0
  5  8  1  0  0  0
  5 10  1  0  0  0
  5 28  1  0  0  0
  6 25  2  0  0  0
  6 26  1  0  0  0
  7  8  1  0  0  0
  7 12  2  0  0  0
  7 13  1  0  0  0
  8 22  1  0  0  0
  8 29  1  0  0  0
  9 10  1  0  0  0
  9 17  2  0  0  0
  9 18  1  0  0  0
 11 16  1  0  0  0
 11 20  2  0  0  0
 11 21  1  0  0  0
 12 15  1  0  0  0
 12 30  1  0  0  0
 13 14  2  0  0  0
 13 31  1  0  0  0
 14 19  1  0  0  0
 15 19  2  0  0  0
 16 23  2  0  0  0
 16 24  1  0  0  0
 17 20  1  0  0  0
 17 32  1  0  0  0
 18 21  2  0  0  0
 18 33  1  0  0  0
 19 34  1  0  0  0
 20 35  1  0  0  0
 21 36  1  0  0  0
 22 37  1  0  0  0
 22 38  1  0  0  0
 23 25  1  0  0  0
 23 39  1  0  0  0
 24 26  2  0  0  0
 24 40  1  0  0  0
 25 41  1  0  0  0
 26 42  1  0  0  0
M  END
> <s_m_entry_id>
27899

> <s_m_entry_name>
dock_pv.60

> <s_m_Source_Path>
/home/csk/Desktop/cluster/DUD-E-result/rock1

> <s_m_Source_File>
dock_pv.maegz

> <i_m_Source_File_Index>
60

> <chembl_id>
CHEMBL2003341

> <chembl_pref_name>
None

> <i_lp_mmshare_version>
53161

> <r_lp_tautomer_probability>
1

> <s_lp_Force_Field>
OPLS_2005

> <r_lp_Energy>
12.4314

> <b_lp_Chiralities_Consistent>
1

> <s_lp_Variant>
CHEMBL3231_lig1342-1

> <s_i_glide_gridfile>
glide-grid_2etr

> <i_i_glide_lignum>
1869

> <i_i_glide_rotatable_bonds>
7

> <r_i_docking_score>
-8.62972739132654

> <r_i_glide_ligand_efficiency>
-0.331912591974098

> <r_i_glide_ligand_efficiency_sa>
-0.98328974771028

> <r_i_glide_ligand_efficiency_ln>
-2.02666316140787

> <r_i_glide_gscore>
-8.62972739132654

> <r_i_glide_lipo>
-3.1265247828038

> <r_i_glide_hbond>
-0.561813667776703

> <r_i_glide_metal>
0

> <r_i_glide_rewards>
-2.12342046748628

> <r_i_glide_evdw>
-44.8204154968262

> <r_i_glide_ecoul>
-7.77451658248901

> <r_i_glide_erotb>
0.649195385302351

> <r_i_glide_esite>
-0.0599655963474532

> <r_i_glide_emodel>
-76.4116472952935

> <r_i_glide_energy>
-52.5949320793152

> <r_i_glide_einternal>
7.12762880325317

> <i_i_glide_confnum>
5

> <i_i_glide_posenum>
108

> <r_i_glide_eff_state_penalty>
0

> <s_user_duplicate_titles>
CHEMBL3231_lig1342

> <i_f3d_flags>
0

> <s_m_subgroup_title>
dock_pv

> <s_m_subgroupid>
dock_pv

> <b_m_subgroup_collapsed>
1

$$$$
CHEMBL3231_lig394
                    3D
 Schrodinger Suite 2021-1.
 45 47  0  0  1  0            999 V2000
   52.4874  103.2486   33.6533 N   0  0  0  0  0  0
   51.8172  102.8038   32.5460 C   0  0  0  0  0  0
   50.6427  103.1030   32.3193 O   0  0  0  0  0  0
   52.5107  101.9991   31.7053 N   0  0  0  0  0  0
   53.9528  103.1168   33.8188 C   0  0  0  0  0  0
   54.7767  104.2346   33.1449 C   0  0  0  0  0  0
   54.5311  105.5030   33.7287 O   0  0  0  0  0  0
   51.9194  104.2553   34.5825 C   0  0  0  0  0  0
   50.4936  104.0948   35.1088 C   0  0  0  0  0  0
   49.9246  102.8366   35.3351 C   0  0  0  0  0  0
   48.6085  102.7421   35.7789 C   0  0  0  0  0  0
   47.8729  103.9027   36.0112 C   0  0  0  0  0  0
   48.4430  105.1565   35.8173 C   0  0  0  0  0  0
   49.7533  105.2524   35.3620 C   0  0  0  0  0  0
   52.0636  101.5096   30.4668 C   0  0  0  0  0  0
   52.3971  100.1989   30.1261 C   0  0  0  0  0  0
   51.9378   99.6556   28.9287 C   0  0  0  0  0  0
   51.1632  100.4246   28.0535 C   0  0  0  0  0  0
   50.8717  101.7526   28.3782 C   0  0  0  0  0  0
   51.3222  102.2963   29.5755 C   0  0  0  0  0  0
   50.0430   98.3031   25.2112 N   0  0  0  0  0  0
   49.7087   99.5310   24.8110 N   0  0  0  0  0  0
   50.0437  100.4966   25.7166 C   0  0  0  0  0  0
   50.6338   99.8380   26.7868 C   0  0  0  0  0  0
   50.5935   98.4882   26.3887 C   0  0  0  0  0  0
   53.4230  101.6853   31.9988 H   0  0  0  0  0  0
   54.2210  103.0582   34.8744 H   0  0  0  0  0  0
   54.2861  102.1627   33.4102 H   0  0  0  0  0  0
   55.8428  104.0049   33.1629 H   0  0  0  0  0  0
   54.4742  104.3031   32.0980 H   0  0  0  0  0  0
   53.9593  106.0284   33.1476 H   0  0  0  0  0  0
   51.9757  105.2181   34.0712 H   0  0  0  0  0  0
   52.5609  104.3461   35.4603 H   0  0  0  0  0  0
   50.4918  101.9360   35.1502 H   0  0  0  0  0  0
   48.1575  101.7742   35.9439 H   0  0  0  0  0  0
   46.8510  103.8315   36.3545 H   0  0  0  0  0  0
   47.8688  106.0500   36.0108 H   0  0  0  0  0  0
   50.1927  106.2276   35.2043 H   0  0  0  0  0  0
   52.9868   99.5874   30.7945 H   0  0  0  0  0  0
   52.1845   98.6319   28.6922 H   0  0  0  0  0  0
   50.2847  102.3685   27.7134 H   0  0  0  0  0  0
   51.0864  103.3235   29.8069 H   0  0  0  0  0  0
   49.2604   99.7050   23.9154 H   0  0  0  0  0  0
   49.8291  101.5371   25.5253 H   0  0  0  0  0  0
   50.9594   97.6493   26.9627 H   0  0  0  0  0  0
  1  2  1  0  0  0
  1  5  1  0  0  0
  1  8  1  0  0  0
  2  3  2  0  0  0
  2  4  1  0  0  0
  4 15  1  0  0  0
  4 26  1  0  0  0
  5  6  1  0  0  0
  5 27  1  0  0  0
  5 28  1  0  0  0
  6  7  1  0  0  0
  6 29  1  0  0  0
  6 30  1  0  0  0
  7 31  1  0  0  0
  8  9  1  0  0  0
  8 32  1  0  0  0
  8 33  1  0  0  0
  9 10  1  0  0  0
  9 14  2  0  0  0
 10 11  2  0  0  0
 10 34  1  0  0  0
 11 12  1  0  0  0
 11 35  1  0  0  0
 12 13  2  0  0  0
 12 36  1  0  0  0
 13 14  1  0  0  0
 13 37  1  0  0  0
 14 38  1  0  0  0
 15 16  1  0  0  0
 15 20  2  0  0  0
 16 17  2  0  0  0
 16 39  1  0  0  0
 17 18  1  0  0  0
 17 40  1  0  0  0
 18 19  2  0  0  0
 18 24  1  0  0  0
 19 20  1  0  0  0
 19 41  1  0  0  0
 20 42  1  0  0  0
 21 25  2  0  0  0
 21 22  1  0  0  0
 22 43  1  0  0  0
 22 23  1  0  0  0
 23 44  1  0  0  0
 23 24  2  0  0  0
 24 25  1  0  0  0
 25 45  1  0  0  0
M  END
> <s_m_entry_id>
27900

> <s_m_entry_name>
dock_pv.61

> <s_m_Source_Path>
/home/csk/Desktop/cluster/DUD-E-result/rock1

> <s_m_Source_File>
dock_pv.maegz

> <i_m_Source_File_Index>
61

> <chembl_id>
CHEMBL2331562

> <chembl_pref_name>
None

> <i_lp_mmshare_version>
53161

> <r_lp_tautomer_probability>
0.5

> <s_lp_Force_Field>
OPLS_2005

> <r_lp_Energy>
31.742766

> <b_lp_Chiralities_Consistent>
1

> <s_lp_Variant>
CHEMBL3231_lig394-1

> <s_i_glide_gridfile>
glide-grid_2etr

> <i_i_glide_lignum>
553

> <i_i_glide_rotatable_bonds>
9

> <r_i_docking_score>
-8.62769713211222

> <r_i_glide_ligand_efficiency>
-0.345107885284489

> <r_i_glide_ligand_efficiency_sa>
-1.00910157708625

> <r_i_glide_ligand_efficiency_ln>
-2.04502277152984

> <r_i_glide_gscore>
-8.62769713211222

> <r_i_glide_lipo>
-2.83671163288456

> <r_i_glide_hbond>
-0.761815577523337

> <r_i_glide_metal>
0

> <r_i_glide_rewards>
-1.95740827864949

> <r_i_glide_evdw>
-42.322093963623

> <r_i_glide_ecoul>
-11.3391227722168

> <r_i_glide_erotb>
0.817804612793416

> <r_i_glide_esite>
-0.072593141834567

> <r_i_glide_emodel>
-78.9508007729955

> <r_i_glide_energy>
-53.6612167358398

> <r_i_glide_einternal>
10.0198879241943

> <i_i_glide_confnum>
5

> <i_i_glide_posenum>
223

> <r_i_glide_eff_state_penalty>
0

> <s_user_duplicate_titles>
CHEMBL3231_lig394

> <i_f3d_flags>
0

> <s_m_subgroup_title>
dock_pv

> <s_m_subgroupid>
dock_pv

> <b_m_subgroup_collapsed>
1

$$$$
CHEMBL3231_lig728
                    3D
 Schrodinger Suite 2021-1.
 43 45  0  0  1  0            999 V2000
   51.4280   97.6475   30.4113 C   0  0  0  0  0  0
   51.2431   98.4015   29.2143 O   0  0  0  0  0  0
   51.3542   99.7829   29.2354 C   0  0  0  0  0  0
   51.7400  100.4949   30.3859 C   0  0  0  0  0  0
   51.7752  101.8995   30.4071 C   0  0  0  0  0  0
   51.4647  102.5907   29.2342 C   0  0  0  0  0  0
   51.0937  101.9011   28.0870 C   0  0  0  0  0  0
   51.0223  100.5037   28.0692 C   0  0  0  0  0  0
   50.5423   99.8647   26.7965 C   0  0  0  0  0  0
   50.5863   98.5160   26.3874 C   0  0  0  0  0  0
   50.0429   98.3027   25.2113 N   0  0  0  0  0  0
   49.6436   99.5072   24.8110 N   0  0  0  0  0  0
   49.9219  100.4862   25.7167 C   0  0  0  0  0  0
   52.0500  102.6722   31.6769 C   0  0  0  0  0  0
   51.6431  103.8290   31.8034 O   0  0  0  0  0  0
   52.7018  102.0180   32.6548 N   0  0  0  0  0  0
   52.8526  102.4897   34.0335 C   0  0  2  0  0  0
   53.8661  101.6150   34.7921 C   0  0  0  0  0  0
   51.5125  102.5906   34.7790 C   0  0  0  0  0  0
   51.1005  103.8188   35.3154 C   0  0  0  0  0  0
   49.8833  103.9246   35.9898 C   0  0  0  0  0  0
   49.0644  102.8062   36.1378 C   0  0  0  0  0  0
   49.4659  101.5788   35.6100 C   0  0  0  0  0  0
   50.6803  101.4691   34.9326 C   0  0  0  0  0  0
   51.0355  100.2686   34.4188 F   0  0  0  0  0  0
   51.2412   96.5935   30.2050 H   0  0  0  0  0  0
   52.4480   97.7309   30.7880 H   0  0  0  0  0  0
   50.7305   97.9537   31.1929 H   0  0  0  0  0  0
   51.9663   99.9534   31.2923 H   0  0  0  0  0  0
   51.4871  103.6726   29.2062 H   0  0  0  0  0  0
   50.8423  102.4773   27.2100 H   0  0  0  0  0  0
   51.0102   97.6957   26.9466 H   0  0  0  0  0  0
   49.1997   99.6611   23.9107 H   0  0  0  0  0  0
   49.6465  101.5120   25.5202 H   0  0  0  0  0  0
   53.1849  101.1643   32.4182 H   0  0  0  0  0  0
   53.2949  103.4878   33.9763 H   0  0  0  0  0  0
   54.0334  101.9915   35.8016 H   0  0  0  0  0  0
   53.5302  100.5806   34.8760 H   0  0  0  0  0  0
   54.8321  101.6040   34.2851 H   0  0  0  0  0  0
   51.7216  104.6977   35.2050 H   0  0  0  0  0  0
   49.5754  104.8765   36.3981 H   0  0  0  0  0  0
   48.1224  102.8840   36.6620 H   0  0  0  0  0  0
   48.8394  100.7073   35.7251 H   0  0  0  0  0  0
  1  2  1  0  0  0
  1 26  1  0  0  0
  1 27  1  0  0  0
  1 28  1  0  0  0
  2  3  1  0  0  0
  3  4  2  0  0  0
  3  8  1  0  0  0
  4  5  1  0  0  0
  4 29  1  0  0  0
  5  6  2  0  0  0
  5 14  1  0  0  0
  6  7  1  0  0  0
  6 30  1  0  0  0
  7  8  2  0  0  0
  7 31  1  0  0  0
  8  9  1  0  0  0
  9 10  1  0  0  0
  9 13  2  0  0  0
 10 11  2  0  0  0
 10 32  1  0  0  0
 11 12  1  0  0  0
 12 13  1  0  0  0
 12 33  1  0  0  0
 13 34  1  0  0  0
 14 15  2  0  0  0
 14 16  1  0  0  0
 16 17  1  0  0  0
 16 35  1  0  0  0
 17 18  1  0  0  0
 17 19  1  0  0  0
 17 36  1  0  0  0
 18 37  1  0  0  0
 18 38  1  0  0  0
 18 39  1  0  0  0
 19 20  2  0  0  0
 19 24  1  0  0  0
 20 21  1  0  0  0
 20 40  1  0  0  0
 21 22  2  0  0  0
 21 41  1  0  0  0
 22 23  1  0  0  0
 22 42  1  0  0  0
 23 24  2  0  0  0
 23 43  1  0  0  0
 24 25  1  0  0  0
M  END
> <s_m_entry_id>
27901

> <s_m_entry_name>
dock_pv.62

> <s_m_Source_Path>
/home/csk/Desktop/cluster/DUD-E-result/rock1

> <s_m_Source_File>
dock_pv.maegz

> <i_m_Source_File_Index>
62

> <chembl_id>
CHEMBL3965274

> <chembl_pref_name>
None

> <i_lp_mmshare_version>
53161

> <r_lp_tautomer_probability>
0.5

> <s_lp_Force_Field>
OPLS_2005

> <r_lp_Energy>
21.517414

> <b_lp_Chiralities_Consistent>
1

> <s_lp_Variant>
CHEMBL3231_lig728-1

> <s_i_glide_gridfile>
glide-grid_2etr

> <i_i_glide_lignum>
1034

> <i_i_glide_rotatable_bonds>
6

> <r_i_docking_score>
-8.61976863170038

> <r_i_glide_ligand_efficiency>
-0.344790745268015

> <r_i_glide_ligand_efficiency_sa>
-1.00817425405358

> <r_i_glide_ligand_efficiency_ln>
-2.04314347933425

> <r_i_glide_gscore>
-8.61976863170038

> <r_i_glide_lipo>
-2.86510898428087

> <r_i_glide_hbond>
-0.675931075780289

> <r_i_glide_metal>
0

> <r_i_glide_rewards>
-2.35062890441008

> <r_i_glide_evdw>
-40.7347984313965

> <r_i_glide_ecoul>
-7.32317972183228

> <r_i_glide_erotb>
0.460081698707408

> <r_i_glide_esite>
-0.0529644860918811

> <r_i_glide_emodel>
-71.8148096122634

> <r_i_glide_energy>
-48.0579781532288

> <r_i_glide_einternal>
2.61207318305969

> <i_i_glide_confnum>
9

> <i_i_glide_posenum>
375

> <r_i_glide_eff_state_penalty>
0

> <s_user_duplicate_titles>
CHEMBL3231_lig728

> <i_f3d_flags>
0

> <s_m_subgroup_title>
dock_pv

> <s_m_subgroupid>
dock_pv

> <b_m_subgroup_collapsed>
1

$$$$
CHEMBL3231_lig245
                    3D
 Schrodinger Suite 2021-1.
 35 37  0  0  1  0            999 V2000
   50.0432   98.3031   25.3489 N   0  0  0  0  0  0
   50.4429   97.5272   26.3814 C   0  0  0  0  0  0
   50.8677   98.0379   27.6067 C   0  0  0  0  0  0
   50.0549   99.6427   25.5229 C   0  0  0  0  0  0
   50.4543  100.2839   26.7321 C   0  0  0  0  0  0
   50.8858   99.4421   27.7992 C   0  0  0  0  0  0
   51.3052  100.0248   29.0235 C   0  0  0  0  0  0
   51.2624  101.4138   29.2088 C   0  0  0  0  0  0
   50.8335  102.2221   28.1617 C   0  0  0  0  0  0
   50.4440  101.6882   26.9382 C   0  0  0  0  0  0
   49.6447  100.3743   24.4169 N   0  0  0  0  0  0
   51.6047  102.0749   30.3728 O   0  0  0  0  0  0
   52.1675  101.3677   31.4821 C   0  0  1  0  0  0
   53.6861  101.1085   31.2844 C   0  0  0  0  0  0
   54.4425  102.3607   31.1746 N   0  0  1  0  0  0
   54.3051  103.1995   32.3678 C   0  0  0  0  0  0
   52.8210  103.5060   32.6683 C   0  0  0  0  0  0
   51.9610  102.2279   32.7440 C   0  0  0  0  0  0
   50.4400   96.4598   26.2075 H   0  0  0  0  0  0
   51.1821   97.3761   28.4017 H   0  0  0  0  0  0
   51.6374   99.3605   29.8047 H   0  0  0  0  0  0
   50.8061  103.2929   28.3042 H   0  0  0  0  0  0
   50.1200  102.3504   26.1478 H   0  0  0  0  0  0
   49.5159  101.3696   24.5117 H   0  0  0  0  0  0
   49.3025   99.9035   23.5754 H   0  0  0  0  0  0
   51.6427  100.4268   31.6569 H   0  0  0  0  0  0
   54.0821  100.4987   32.0976 H   0  0  0  0  0  0
   53.8489  100.5372   30.3689 H   0  0  0  0  0  0
   55.4213  102.1727   30.9403 H   0  0  0  0  0  0
   54.8441  104.1319   32.2034 H   0  0  0  0  0  0
   54.7737  102.6986   33.2162 H   0  0  0  0  0  0
   52.4400  104.2004   31.9174 H   0  0  0  0  0  0
   52.7548  104.0466   33.6130 H   0  0  0  0  0  0
   50.9041  102.4511   32.9013 H   0  0  0  0  0  0
   52.2885  101.6591   33.6166 H   0  0  0  0  0  0
  1  4  1  0  0  0
  1  2  2  0  0  0
  2  3  1  0  0  0
  2 19  1  0  0  0
  3  6  2  0  0  0
  3 20  1  0  0  0
  4 11  1  0  0  0
  4  5  2  0  0  0
  5 10  1  0  0  0
  5  6  1  0  0  0
  6  7  1  0  0  0
  7  8  2  0  0  0
  7 21  1  0  0  0
  8  9  1  0  0  0
  8 12  1  0  0  0
  9 10  2  0  0  0
  9 22  1  0  0  0
 10 23  1  0  0  0
 11 24  1  0  0  0
 11 25  1  0  0  0
 12 13  1  0  0  0
 13 14  1  0  0  0
 13 18  1  0  0  0
 13 26  1  0  0  0
 14 15  1  0  0  0
 14 27  1  0  0  0
 14 28  1  0  0  0
 15 16  1  0  0  0
 15 29  1  0  0  0
 16 17  1  0  0  0
 16 30  1  0  0  0
 16 31  1  0  0  0
 17 18  1  0  0  0
 17 32  1  0  0  0
 17 33  1  0  0  0
 18 34  1  0  0  0
 18 35  1  0  0  0
M  END
> <s_m_entry_id>
27903

> <s_m_entry_name>
dock_pv.64

> <s_m_Source_Path>
/home/csk/Desktop/cluster/DUD-E-result/rock1

> <s_m_Source_File>
dock_pv.maegz

> <i_m_Source_File_Index>
64

> <chembl_id>
CHEMBL1643571

> <chembl_pref_name>
None

> <i_lp_mmshare_version>
53161

> <r_lp_tautomer_probability>
1

> <s_lp_Force_Field>
OPLS_2005

> <r_lp_Energy>
23.882154

> <b_lp_Chiralities_Consistent>
1

> <s_lp_Variant>
CHEMBL3231_lig245-1

> <s_i_glide_gridfile>
glide-grid_2etr

> <i_i_glide_lignum>
389

> <i_i_glide_rotatable_bonds>
2

> <r_i_docking_score>
-8.59744937283562

> <r_i_glide_ligand_efficiency>
-0.477636076268646

> <r_i_glide_ligand_efficiency_sa>
-1.25176063523874

> <r_i_glide_ligand_efficiency_ln>
-2.2099300292795

> <r_i_glide_gscore>
-8.59744937283562

> <r_i_glide_lipo>
-2.31714007565469

> <r_i_glide_hbond>
-0.726234741116727

> <r_i_glide_metal>
0

> <r_i_glide_rewards>
-3.09499535490234

> <r_i_glide_evdw>
-27.2767066955566

> <r_i_glide_ecoul>
-10.0392503738403

> <r_i_glide_erotb>
0.410643689692012

> <r_i_glide_esite>
0

> <r_i_glide_emodel>
-59.6748286979129

> <r_i_glide_energy>
-37.315957069397

> <r_i_glide_einternal>
0.191012963652611

> <i_i_glide_confnum>
13

> <i_i_glide_posenum>
323

> <r_i_glide_eff_state_penalty>
0

> <s_user_duplicate_titles>
CHEMBL3231_lig245

> <i_f3d_flags>
0

> <s_m_subgroup_title>
dock_pv

> <s_m_subgroupid>
dock_pv

> <b_m_subgroup_collapsed>
1

$$$$
CHEMBL3231_lig579
                    3D
 Schrodinger Suite 2021-1.
 43 45  0  0  1  0            999 V2000
   51.4042   97.6455   30.4149 C   0  0  0  0  0  0
   51.2434   98.4050   29.2175 O   0  0  0  0  0  0
   51.3270   99.7883   29.2484 C   0  0  0  0  0  0
   51.6685  100.5037   30.4119 C   0  0  0  0  0  0
   51.6802  101.9094   30.4362 C   0  0  0  0  0  0
   51.4060  102.5941   29.2477 C   0  0  0  0  0  0
   51.0725  101.9022   28.0927 C   0  0  0  0  0  0
   51.0082  100.5048   28.0754 C   0  0  0  0  0  0
   50.5396   99.8639   26.7996 C   0  0  0  0  0  0
   49.9255  100.4871   25.7189 C   0  0  0  0  0  0
   49.6465   99.5095   24.8110 N   0  0  0  0  0  0
   50.0429   98.3029   25.2109 N   0  0  0  0  0  0
   50.5826   98.5161   26.3884 C   0  0  0  0  0  0
   51.9035  102.6981   31.7110 C   0  0  0  0  0  0
   51.6435  103.9029   31.7463 O   0  0  0  0  0  0
   52.3320  102.0173   32.7916 N   0  0  0  0  0  0
   52.4425  102.5456   34.1594 C   0  0  1  0  0  0
   53.5702  103.6001   34.2794 C   0  0  0  0  0  0
   51.0781  102.9581   34.7613 C   0  0  0  0  0  0
   50.7835  104.3049   35.0358 C   0  0  0  0  0  0
   49.5638  104.6718   35.6045 C   0  0  0  0  0  0
   48.6154  103.6982   35.9122 C   0  0  0  0  0  0
   48.8913  102.3581   35.6516 C   0  0  0  0  0  0
   50.1122  101.9856   35.0874 C   0  0  0  0  0  0
   50.3858  100.3021   34.8010 Cl  0  0  0  0  0  0
   51.2417   96.5902   30.2002 H   0  0  0  0  0  0
   52.4099   97.7463   30.8226 H   0  0  0  0  0  0
   50.6776   97.9338   31.1744 H   0  0  0  0  0  0
   51.8783   99.9606   31.3198 H   0  0  0  0  0  0
   51.4250  103.6736   29.2134 H   0  0  0  0  0  0
   50.8395  102.4764   27.2094 H   0  0  0  0  0  0
   49.6457  101.5109   25.5231 H   0  0  0  0  0  0
   49.2046   99.6636   23.9094 H   0  0  0  0  0  0
   51.0029   97.6957   26.9491 H   0  0  0  0  0  0
   52.5481  101.0393   32.6760 H   0  0  0  0  0  0
   52.7882  101.7085   34.7688 H   0  0  0  0  0  0
   53.7141  103.9116   35.3156 H   0  0  0  0  0  0
   54.5190  103.1924   33.9279 H   0  0  0  0  0  0
   53.3710  104.4925   33.6826 H   0  0  0  0  0  0
   51.4927  105.0860   34.8058 H   0  0  0  0  0  0
   49.3565  105.7125   35.8118 H   0  0  0  0  0  0
   47.6733  103.9787   36.3619 H   0  0  0  0  0  0
   48.1571  101.6042   35.8970 H   0  0  0  0  0  0
  1  2  1  0  0  0
  1 26  1  0  0  0
  1 27  1  0  0  0
  1 28  1  0  0  0
  2  3  1  0  0  0
  3  4  2  0  0  0
  3  8  1  0  0  0
  4  5  1  0  0  0
  4 29  1  0  0  0
  5  6  2  0  0  0
  5 14  1  0  0  0
  6  7  1  0  0  0
  6 30  1  0  0  0
  7  8  2  0  0  0
  7 31  1  0  0  0
  8  9  1  0  0  0
  9 10  2  0  0  0
  9 13  1  0  0  0
 10 11  1  0  0  0
 10 32  1  0  0  0
 11 12  1  0  0  0
 11 33  1  0  0  0
 12 13  2  0  0  0
 13 34  1  0  0  0
 14 15  2  0  0  0
 14 16  1  0  0  0
 16 17  1  0  0  0
 16 35  1  0  0  0
 17 18  1  0  0  0
 17 19  1  0  0  0
 17 36  1  0  0  0
 18 37  1  0  0  0
 18 38  1  0  0  0
 18 39  1  0  0  0
 19 20  2  0  0  0
 19 24  1  0  0  0
 20 21  1  0  0  0
 20 40  1  0  0  0
 21 22  2  0  0  0
 21 41  1  0  0  0
 22 23  1  0  0  0
 22 42  1  0  0  0
 23 24  2  0  0  0
 23 43  1  0  0  0
 24 25  1  0  0  0
M  END
> <s_m_entry_id>
27904

> <s_m_entry_name>
dock_pv.65

> <s_m_Source_Path>
/home/csk/Desktop/cluster/DUD-E-result/rock1

> <s_m_Source_File>
dock_pv.maegz

> <i_m_Source_File_Index>
65

> <chembl_id>
CHEMBL3984075

> <chembl_pref_name>
None

> <i_lp_mmshare_version>
53161

> <r_lp_tautomer_probability>
0.5

> <s_lp_Force_Field>
OPLS_2005

> <r_lp_Energy>
22.136652

> <b_lp_Chiralities_Consistent>
1

> <s_lp_Variant>
CHEMBL3231_lig579-2

> <s_i_glide_gridfile>
glide-grid_2etr

> <i_i_glide_lignum>
859

> <i_i_glide_rotatable_bonds>
6

> <r_i_docking_score>
-8.58959141662199

> <r_i_glide_ligand_efficiency>
-0.34358365666488

> <r_i_glide_ligand_efficiency_sa>
-1.00464470557021

> <r_i_glide_ligand_efficiency_ln>
-2.03599057502251

> <r_i_glide_gscore>
-8.58959141662199

> <r_i_glide_lipo>
-3.08657716986399

> <r_i_glide_hbond>
-0.6751268126033

> <r_i_glide_metal>
0

> <r_i_glide_rewards>
-1.95549441331726

> <r_i_glide_evdw>
-42.4181709289551

> <r_i_glide_ecoul>
-7.45880174636841

> <r_i_glide_erotb>
0.422965672072139

> <r_i_glide_esite>
-0.0556298845065703

> <r_i_glide_emodel>
-74.0103268725088

> <r_i_glide_energy>
-49.8769726753235

> <r_i_glide_einternal>
3.31164479255676

> <i_i_glide_confnum>
11

> <i_i_glide_posenum>
141

> <r_i_glide_eff_state_penalty>
0

> <s_user_duplicate_titles>
CHEMBL3231_lig579,CHEMBL3231_lig619

> <i_f3d_flags>
0

> <s_m_subgroup_title>
dock_pv

> <s_m_subgroupid>
dock_pv

> <b_m_subgroup_collapsed>
1

$$$$
CHEMBL3231_lig830
                    3D
 Schrodinger Suite 2021-1.
 41 43  0  0  1  0            999 V2000
   53.8251  101.7405   34.8573 C   0  0  0  0  0  0
   52.8200  102.5974   34.0659 C   0  0  1  0  0  0
   52.7058  102.1026   32.6920 N   0  0  0  0  0  0
   52.0651  102.7292   31.6878 C   0  0  0  0  0  0
   51.6430  103.8816   31.7837 O   0  0  0  0  0  0
   51.8129  101.9276   30.4341 C   0  0  0  0  0  0
   51.4977  102.5774   29.2403 C   0  0  0  0  0  0
   51.1197  101.8487   28.1189 C   0  0  0  0  0  0
   51.0413  100.4480   28.1361 C   0  0  0  0  0  0
   51.3712   99.7791   29.3424 C   0  0  0  0  0  0
   51.2432   98.3030   29.5412 C   0  0  0  0  0  0
   51.5758   97.7013   30.5598 O   0  0  0  0  0  0
   51.7800  100.5278   30.4583 C   0  0  0  0  0  0
   50.5641   99.8228   26.8449 C   0  0  0  0  0  0
   50.7071   98.5110   26.3492 C   0  0  0  0  0  0
   50.0980   98.3019   25.2094 N   0  0  0  0  0  0
   49.6465   99.5009   24.8479 N   0  0  0  0  0  0
   49.8867  100.4493   25.7992 C   0  0  0  0  0  0
   51.4653  102.6991   34.7856 C   0  0  0  0  0  0
   51.0370  103.9344   35.2900 C   0  0  0  0  0  0
   49.8087  104.0486   35.9448 C   0  0  0  0  0  0
   48.9969  102.9265   36.1061 C   0  0  0  0  0  0
   49.4128  101.6918   35.6104 C   0  0  0  0  0  0
   50.6377  101.5746   34.9517 C   0  0  0  0  0  0
   51.0070  100.3644   34.4712 F   0  0  0  0  0  0
   53.9741  102.1346   35.8635 H   0  0  0  0  0  0
   53.4948  100.7062   34.9528 H   0  0  0  0  0  0
   54.8001  101.7252   34.3682 H   0  0  0  0  0  0
   53.2587  103.5983   34.0048 H   0  0  0  0  0  0
   53.2212  101.2637   32.4763 H   0  0  0  0  0  0
   51.5157  103.6569   29.1805 H   0  0  0  0  0  0
   50.8569  102.4024   27.2318 H   0  0  0  0  0  0
   50.7619   97.7523   28.7438 H   0  0  0  0  0  0
   51.9968  100.0138   31.3871 H   0  0  0  0  0  0
   51.2470   97.6982   26.8070 H   0  0  0  0  0  0
   49.1702   99.6610   23.9634 H   0  0  0  0  0  0
   49.5550  101.4657   25.6488 H   0  0  0  0  0  0
   51.6550  104.8140   35.1732 H   0  0  0  0  0  0
   49.4916  105.0065   36.3298 H   0  0  0  0  0  0
   48.0472  103.0109   36.6159 H   0  0  0  0  0  0
   48.7879  100.8194   35.7347 H   0  0  0  0  0  0
  1  2  1  0  0  0
  1 26  1  0  0  0
  1 27  1  0  0  0
  1 28  1  0  0  0
  2  3  1  0  0  0
  2 19  1  0  0  0
  2 29  1  0  0  0
  3  4  1  0  0  0
  3 30  1  0  0  0
  4  5  2  0  0  0
  4  6  1  0  0  0
  6  7  2  0  0  0
  6 13  1  0  0  0
  7  8  1  0  0  0
  7 31  1  0  0  0
  8  9  2  0  0  0
  8 32  1  0  0  0
  9 10  1  0  0  0
  9 14  1  0  0  0
 10 11  1  0  0  0
 10 13  2  0  0  0
 11 12  2  0  0  0
 11 33  1  0  0  0
 13 34  1  0  0  0
 14 15  1  0  0  0
 14 18  2  0  0  0
 15 16  2  0  0  0
 15 35  1  0  0  0
 16 17  1  0  0  0
 17 18  1  0  0  0
 17 36  1  0  0  0
 18 37  1  0  0  0
 19 20  2  0  0  0
 19 24  1  0  0  0
 20 21  1  0  0  0
 20 38  1  0  0  0
 21 22  2  0  0  0
 21 39  1  0  0  0
 22 23  1  0  0  0
 22 40  1  0  0  0
 23 24  2  0  0  0
 23 41  1  0  0  0
 24 25  1  0  0  0
M  END
> <s_m_entry_id>
27907

> <s_m_entry_name>
dock_pv.68

> <s_m_Source_Path>
/home/csk/Desktop/cluster/DUD-E-result/rock1

> <s_m_Source_File>
dock_pv.maegz

> <i_m_Source_File_Index>
68

> <chembl_id>
CHEMBL3928424

> <chembl_pref_name>
None

> <i_lp_mmshare_version>
53161

> <r_lp_tautomer_probability>
0.5

> <s_lp_Force_Field>
OPLS_2005

> <r_lp_Energy>
23.246713

> <b_lp_Chiralities_Consistent>
1

> <s_lp_Variant>
CHEMBL3231_lig830-2

> <s_i_glide_gridfile>
glide-grid_2etr

> <i_i_glide_lignum>
1162

> <i_i_glide_rotatable_bonds>
6

> <r_i_docking_score>
-8.57372703145899

> <r_i_glide_ligand_efficiency>
-0.34294908125836

> <r_i_glide_ligand_efficiency_sa>
-1.0027891958273

> <r_i_glide_ligand_efficiency_ln>
-2.03223024032162

> <r_i_glide_gscore>
-8.57372703145899

> <r_i_glide_lipo>
-2.71793407527411

> <r_i_glide_hbond>
-0.68037701821182

> <r_i_glide_metal>
0

> <r_i_glide_rewards>
-2.72898565579208

> <r_i_glide_evdw>
-40.7308006286621

> <r_i_glide_ecoul>
-5.46892070770264

> <r_i_glide_erotb>
0.464964338794066

> <r_i_glide_esite>
-0.0545164833865452

> <r_i_glide_emodel>
-68.5664498578166

> <r_i_glide_energy>
-46.1997213363647

> <r_i_glide_einternal>
2.80644273757935

> <i_i_glide_confnum>
6

> <i_i_glide_posenum>
122

> <r_i_glide_eff_state_penalty>
0

> <s_user_duplicate_titles>
CHEMBL3231_lig830

> <i_f3d_flags>
0

> <s_m_subgroup_title>
dock_pv

> <s_m_subgroupid>
dock_pv

> <b_m_subgroup_collapsed>
1

$$$$
CHEMBL3231_lig788
                    3D
 Schrodinger Suite 2021-1.
 48 50  0  0  1  0            999 V2000
   50.2493  104.7836   28.4226 C   0  0  0  0  0  0
   50.8406  104.0414   29.4857 O   0  0  0  0  0  0
   51.0894  102.6877   29.3379 C   0  0  0  0  0  0
   50.7389  101.9893   28.1750 C   0  0  0  0  0  0
   50.9969  100.6275   28.0262 C   0  0  0  0  0  0
   51.6458   99.9478   29.0605 C   0  0  0  0  0  0
   51.9998  100.6197   30.2303 C   0  0  0  0  0  0
   51.7118  101.9867   30.3935 C   0  0  0  0  0  0
   52.0174  102.6674   31.7077 C   0  0  0  0  0  0
   51.2434  103.5029   32.1754 O   0  0  0  0  0  0
   53.1512  102.2859   32.3259 N   0  0  0  0  0  0
   53.6466  102.7679   33.6239 C   0  0  2  0  0  0
   55.1930  102.6517   33.6267 C   0  0  0  0  0  0
   55.8122  103.1961   34.8286 N   0  0  0  0  0  0
   53.0001  102.0069   34.8230 C   0  0  0  0  0  0
   51.5272  102.3008   35.1060 C   0  0  0  0  0  0
   50.6017  101.2513   35.1473 C   0  0  0  0  0  0
   49.2651  101.5110   35.4448 C   0  0  0  0  0  0
   48.8526  102.8197   35.6942 C   0  0  0  0  0  0
   49.7687  103.8694   35.6567 C   0  0  0  0  0  0
   51.1066  103.6102   35.3708 C   0  0  0  0  0  0
   50.5508   99.9242   26.7875 C   0  0  0  0  0  0
   50.0157  100.4857   25.6369 C   0  0  0  0  0  0
   49.7217   99.4455   24.8107 N   0  0  0  0  0  0
   50.0435   98.2573   25.3253 N   0  0  0  0  0  0
   50.5445   98.5454   26.5031 C   0  0  0  0  0  0
   50.1872  105.8323   28.7050 H   0  0  0  0  0  0
   50.8425  104.7264   27.5088 H   0  0  0  0  0  0
   49.2378  104.4367   28.2176 H   0  0  0  0  0  0
   50.2363  102.5016   27.3698 H   0  0  0  0  0  0
   51.8713   98.8951   28.9730 H   0  0  0  0  0  0
   52.4696  100.0523   31.0215 H   0  0  0  0  0  0
   53.7851  101.6990   31.8042 H   0  0  0  0  0  0
   53.4202  103.8360   33.6965 H   0  0  0  0  0  0
   55.4891  101.6063   33.5187 H   0  0  0  0  0  0
   55.6101  103.1859   32.7689 H   0  0  0  0  0  0
   55.4597  102.7046   35.6373 H   0  0  0  0  0  0
   56.7999  102.9699   34.8074 H   0  0  0  0  0  0
   53.5215  102.2561   35.7486 H   0  0  0  0  0  0
   53.1479  100.9332   34.6881 H   0  0  0  0  0  0
   50.9176  100.2341   34.9592 H   0  0  0  0  0  0
   48.5535  100.7009   35.4846 H   0  0  0  0  0  0
   47.8149  103.0170   35.9276 H   0  0  0  0  0  0
   49.4438  104.8826   35.8496 H   0  0  0  0  0  0
   51.8150  104.4263   35.3517 H   0  0  0  0  0  0
   49.8035  101.5014   25.3445 H   0  0  0  0  0  0
   49.3076   99.5428   23.8884 H   0  0  0  0  0  0
   50.8916   97.7617   27.1613 H   0  0  0  0  0  0
  1  2  1  0  0  0
  1 27  1  0  0  0
  1 28  1  0  0  0
  1 29  1  0  0  0
  2  3  1  0  0  0
  3  4  2  0  0  0
  3  8  1  0  0  0
  4  5  1  0  0  0
  4 30  1  0  0  0
  5  6  2  0  0  0
  5 22  1  0  0  0
  6  7  1  0  0  0
  6 31  1  0  0  0
  7  8  2  0  0  0
  7 32  1  0  0  0
  8  9  1  0  0  0
  9 10  2  0  0  0
  9 11  1  0  0  0
 11 12  1  0  0  0
 11 33  1  0  0  0
 12 13  1  0  0  0
 12 15  1  0  0  0
 12 34  1  0  0  0
 13 14  1  0  0  0
 13 35  1  0  0  0
 13 36  1  0  0  0
 14 37  1  0  0  0
 14 38  1  0  0  0
 15 16  1  0  0  0
 15 39  1  0  0  0
 15 40  1  0  0  0
 16 17  2  0  0  0
 16 21  1  0  0  0
 17 18  1  0  0  0
 17 41  1  0  0  0
 18 19  2  0  0  0
 18 42  1  0  0  0
 19 20  1  0  0  0
 19 43  1  0  0  0
 20 21  2  0  0  0
 20 44  1  0  0  0
 21 45  1  0  0  0
 22 23  2  0  0  0
 22 26  1  0  0  0
 23 24  1  0  0  0
 23 46  1  0  0  0
 24 25  1  0  0  0
 24 47  1  0  0  0
 25 26  2  0  0  0
 26 48  1  0  0  0
M  END
> <s_m_entry_id>
27908

> <s_m_entry_name>
dock_pv.69

> <s_m_Source_Path>
/home/csk/Desktop/cluster/DUD-E-result/rock1

> <s_m_Source_File>
dock_pv.maegz

> <i_m_Source_File_Index>
69

> <chembl_id>
CHEMBL3956875

> <chembl_pref_name>
None

> <i_lp_mmshare_version>
53161

> <r_lp_tautomer_probability>
0.5

> <s_lp_Force_Field>
OPLS_2005

> <r_lp_Energy>
28.666253

> <b_lp_Chiralities_Consistent>
1

> <s_lp_Variant>
CHEMBL3231_lig788-1

> <s_i_glide_gridfile>
glide-grid_2etr

> <i_i_glide_lignum>
1114

> <i_i_glide_rotatable_bonds>
8

> <r_i_docking_score>
-8.56945604471484

> <r_i_glide_ligand_efficiency>
-0.329594463258263

> <r_i_glide_ligand_efficiency_sa>
-0.976422300511016

> <r_i_glide_ligand_efficiency_ln>
-2.01250863342254

> <r_i_glide_gscore>
-8.56945604471484

> <r_i_glide_lipo>
-2.97060233812504

> <r_i_glide_hbond>
-0.689680690779632

> <r_i_glide_metal>
0

> <r_i_glide_rewards>
-1.89619419901061

> <r_i_glide_evdw>
-43.9994163513184

> <r_i_glide_ecoul>
-8.65559196472168

> <r_i_glide_erotb>
0.543300596175636

> <r_i_glide_esite>
-0.0579698007010259

> <r_i_glide_emodel>
-79.8261742239678

> <r_i_glide_energy>
-52.65500831604

> <r_i_glide_einternal>
2.70273470878601

> <i_i_glide_confnum>
2

> <i_i_glide_posenum>
330

> <r_i_glide_eff_state_penalty>
0

> <s_user_duplicate_titles>
CHEMBL3231_lig788

> <i_f3d_flags>
0

> <s_m_subgroup_title>
dock_pv

> <s_m_subgroupid>
dock_pv

> <b_m_subgroup_collapsed>
1

$$$$
CHEMBL3231_lig508
                    3D
 Schrodinger Suite 2021-1.
 36 38  0  0  1  0            999 V2000
   51.6470  101.1045   29.2101 C   0  0  0  0  0  0
   51.1621  102.0246   28.2708 C   0  0  0  0  0  0
   50.6428  101.6023   27.0486 C   0  0  0  0  0  0
   51.5934   99.7399   28.9283 C   0  0  0  0  0  0
   51.0461   99.2799   27.7065 C   0  0  0  0  0  0
   50.5882  100.2266   26.7433 C   0  0  0  0  0  0
   50.1017   99.7171   25.5162 C   0  0  0  0  0  0
   50.0430   98.4000   25.2110 N   0  0  0  0  0  0
   50.4430   97.5204   26.1577 C   0  0  0  0  0  0
   50.9358   97.9030   27.4033 C   0  0  0  0  0  0
   52.2214  101.4682   30.4405 N   0  0  0  0  0  0
   52.0059  102.5919   31.1579 C   0  0  0  0  0  0
   52.7146  102.6679   32.5349 C   0  0  2  0  0  0
   51.2429  103.5030   30.8274 O   0  0  0  0  0  0
   51.7101  102.4521   33.6504 C   0  0  0  0  0  0
   53.5348  103.9031   32.5543 N   0  0  0  0  0  0
   51.2262  103.5229   34.4152 C   0  0  0  0  0  0
   50.2826  103.3036   35.4171 C   0  0  0  0  0  0
   49.8239  102.0115   35.6641 C   0  0  0  0  0  0
   50.3060  100.9358   34.9226 C   0  0  0  0  0  0
   51.2427  101.1570   33.9164 C   0  0  0  0  0  0
   51.2150  103.0867   28.4537 H   0  0  0  0  0  0
   50.2918  102.3242   26.3249 H   0  0  0  0  0  0
   51.9550   99.0128   29.6421 H   0  0  0  0  0  0
   49.7534  100.3968   24.7509 H   0  0  0  0  0  0
   50.3920   96.4725   25.9013 H   0  0  0  0  0  0
   51.2434   97.1610   28.1249 H   0  0  0  0  0  0
   52.8178  100.7708   30.8592 H   0  0  0  0  0  0
   53.4395  101.8527   32.5969 H   0  0  0  0  0  0
   54.2630  103.9173   31.8503 H   0  0  0  0  0  0
   53.0003  104.7548   32.4223 H   0  0  0  0  0  0
   51.5790  104.5277   34.2335 H   0  0  0  0  0  0
   49.9111  104.1320   36.0029 H   0  0  0  0  0  0
   49.0927  101.8412   36.4416 H   0  0  0  0  0  0
   49.9529   99.9341   35.1234 H   0  0  0  0  0  0
   51.6062  100.3172   33.3416 H   0  0  0  0  0  0
  1  2  2  0  0  0
  1  4  1  0  0  0
  1 11  1  0  0  0
  2  3  1  0  0  0
  2 22  1  0  0  0
  3  6  2  0  0  0
  3 23  1  0  0  0
  4  5  2  0  0  0
  4 24  1  0  0  0
  5  6  1  0  0  0
  5 10  1  0  0  0
  6  7  1  0  0  0
  7  8  2  0  0  0
  7 25  1  0  0  0
  8  9  1  0  0  0
  9 10  2  0  0  0
  9 26  1  0  0  0
 10 27  1  0  0  0
 11 12  1  0  0  0
 11 28  1  0  0  0
 12 13  1  0  0  0
 12 14  2  0  0  0
 13 15  1  0  0  0
 13 16  1  0  0  0
 13 29  1  0  0  0
 15 17  2  0  0  0
 15 21  1  0  0  0
 16 30  1  0  0  0
 16 31  1  0  0  0
 17 18  1  0  0  0
 17 32  1  0  0  0
 18 19  2  0  0  0
 18 33  1  0  0  0
 19 20  1  0  0  0
 19 34  1  0  0  0
 20 21  2  0  0  0
 20 35  1  0  0  0
 21 36  1  0  0  0
M  END
> <s_m_entry_id>
27909

> <s_m_entry_name>
dock_pv.70

> <s_m_Source_Path>
/home/csk/Desktop/cluster/DUD-E-result/rock1

> <s_m_Source_File>
dock_pv.maegz

> <i_m_Source_File_Index>
70

> <chembl_id>
CHEMBL3770730

> <chembl_pref_name>
None

> <i_lp_mmshare_version>
53161

> <r_lp_tautomer_probability>
1

> <s_lp_Force_Field>
OPLS_2005

> <r_lp_Energy>
21.445115

> <b_lp_Chiralities_Consistent>
1

> <s_lp_Variant>
CHEMBL3231_lig508-1

> <s_i_glide_gridfile>
glide-grid_2etr

> <i_i_glide_lignum>
719

> <i_i_glide_rotatable_bonds>
4

> <r_i_docking_score>
-8.56711469287121

> <r_i_glide_ligand_efficiency>
-0.407957842517677

> <r_i_glide_ligand_efficiency_sa>
-1.12552475352407

> <r_i_glide_ligand_efficiency_ln>
-2.11820179632715

> <r_i_glide_gscore>
-8.56711469287121

> <r_i_glide_lipo>
-3.06816815852052

> <r_i_glide_hbond>
-0.35177653573366

> <r_i_glide_metal>
0

> <r_i_glide_rewards>
-2.72039742508925

> <r_i_glide_evdw>
-36.5066871643066

> <r_i_glide_ecoul>
-6.8071084022522

> <r_i_glide_erotb>
0.46827794542766

> <r_i_glide_esite>
-0.0486499004022818

> <r_i_glide_emodel>
-66.5642927005095

> <r_i_glide_energy>
-43.3137955665588

> <r_i_glide_einternal>
0.42355090379715

> <i_i_glide_confnum>
4

> <i_i_glide_posenum>
202

> <r_i_glide_eff_state_penalty>
0

> <s_user_duplicate_titles>
CHEMBL3231_lig508

> <i_f3d_flags>
0

> <s_m_subgroup_title>
dock_pv

> <s_m_subgroupid>
dock_pv

> <b_m_subgroup_collapsed>
1

$$$$
CHEMBL3231_lig1849
                    3D
 Schrodinger Suite 2021-1.
 65 69  0  0  1  0            999 V2000
   52.4668  100.4971   33.7351 O   0  0  0  0  0  0
   52.4473   98.0245   36.3910 O   0  0  0  0  0  0
   55.1251  104.3041   33.2110 N   0  0  0  0  0  0
   54.2627   98.8574   35.3000 N   0  0  0  0  0  0
   51.9865  103.6741   31.8711 N   0  0  0  0  0  0
   50.0428   98.3152   25.0425 N   0  0  0  0  0  0
   53.5958   95.3918   36.0657 N   0  0  0  0  0  0
   55.0969  103.5859   35.3437 C   0  0  0  0  0  0
   55.2399  102.4376   34.4838 C   0  0  0  0  0  0
   55.0093  104.7441   34.5071 C   0  0  0  0  0  0
   51.3116  101.2300   29.0300 C   0  0  0  0  0  0
   51.7023  101.7678   30.3777 C   0  0  0  0  0  0
   50.9051   99.3250   27.5299 C   0  0  0  0  0  0
   50.4601  100.2152   26.5131 C   0  0  0  0  0  0
   55.2431  102.9422   33.1945 C   0  0  0  0  0  0
   55.3708  100.9742   34.8682 C   0  0  0  0  0  0
   51.3488   99.8525   28.7602 C   0  0  0  0  0  0
   54.1311  100.3002   35.5307 C   0  0  1  0  0  0
   55.0310  103.7637   36.7363 C   0  0  0  0  0  0
   52.2089  101.4284   32.7502 C   0  0  0  0  0  0
   51.9819  100.9251   31.4703 C   0  0  0  0  0  0
   50.8443  102.0769   28.0124 C   0  0  0  0  0  0
   54.8429  106.0337   35.0225 C   0  0  0  0  0  0
   50.4438  101.5995   26.7692 C   0  0  0  0  0  0
   51.7664  103.1454   30.6446 C   0  0  0  0  0  0
   50.8820   97.9313   27.2742 C   0  0  0  0  0  0
   52.7561  100.8750   35.0820 C   0  0  0  0  0  0
   54.8710  105.0502   37.2511 C   0  0  0  0  0  0
   50.0447   99.6441   25.2885 C   0  0  0  0  0  0
   54.7756  106.1565   36.4096 C   0  0  0  0  0  0
   52.1603  102.8207   32.9072 C   0  0  0  0  0  0
   50.4433   97.4866   26.0300 C   0  0  0  0  0  0
   53.4483   97.8610   35.6863 C   0  0  0  0  0  0
   53.8212   96.4753   35.1145 C   0  0  0  0  0  0
   53.5851   94.0989   35.3888 C   0  0  0  0  0  0
   54.5721   95.3531   37.1572 C   0  0  0  0  0  0
   55.1518  104.8639   32.3615 H   0  0  0  0  0  0
   55.0515   98.5976   34.7287 H   0  0  0  0  0  0
   55.3382  102.4322   32.2466 H   0  0  0  0  0  0
   55.6270  100.4308   33.9554 H   0  0  0  0  0  0
   56.2413  100.8375   35.5147 H   0  0  0  0  0  0
   51.6927   99.1402   29.4908 H   0  0  0  0  0  0
   54.2071  100.4726   36.6071 H   0  0  0  0  0  0
   55.0985  102.9156   37.4005 H   0  0  0  0  0  0
   51.9919   99.8512   31.3736 H   0  0  0  0  0  0
   50.7727  103.1411   28.1572 H   0  0  0  0  0  0
   54.7555  106.8966   34.3745 H   0  0  0  0  0  0
   50.0951  102.2819   26.0113 H   0  0  0  0  0  0
   51.6389  103.8856   29.8736 H   0  0  0  0  0  0
   51.2132   97.2334   28.0312 H   0  0  0  0  0  0
   51.9628  100.4497   35.6959 H   0  0  0  0  0  0
   52.7032  101.9355   35.3045 H   0  0  0  0  0  0
   54.8141  105.1932   38.3207 H   0  0  0  0  0  0
   49.7023  100.2805   24.4836 H   0  0  0  0  0  0
   54.6419  107.1358   36.8448 H   0  0  0  0  0  0
   52.3231  103.3130   33.8500 H   0  0  0  0  0  0
   50.4517   96.4287   25.8050 H   0  0  0  0  0  0
   53.2074   96.3415   34.2224 H   0  0  0  0  0  0
   54.8591   96.4700   34.7720 H   0  0  0  0  0  0
   53.3636   93.2872   36.0830 H   0  0  0  0  0  0
   52.8184   94.0760   34.6119 H   0  0  0  0  0  0
   54.5491   93.9037   34.9138 H   0  0  0  0  0  0
   54.3475   94.5433   37.8539 H   0  0  0  0  0  0
   55.5861   95.2021   36.7808 H   0  0  0  0  0  0
   54.5585   96.2811   37.7283 H   0  0  0  0  0  0
  1 20  1  0  0  0
  1 27  1  0  0  0
  2 33  2  0  0  0
  3 10  1  0  0  0
  3 15  1  0  0  0
  3 37  1  0  0  0
  4 18  1  0  0  0
  4 33  1  0  0  0
  4 38  1  0  0  0
  5 25  2  0  0  0
  5 31  1  0  0  0
  6 29  2  0  0  0
  6 32  1  0  0  0
  7 34  1  0  0  0
  7 35  1  0  0  0
  7 36  1  0  0  0
  8  9  1  0  0  0
  8 10  1  0  0  0
  8 19  2  0  0  0
  9 15  2  0  0  0
  9 16  1  0  0  0
 10 23  2  0  0  0
 11 12  1  0  0  0
 11 17  1  0  0  0
 11 22  2  0  0  0
 12 21  2  0  0  0
 12 25  1  0  0  0
 13 14  1  0  0  0
 13 17  2  0  0  0
 13 26  1  0  0  0
 14 24  2  0  0  0
 14 29  1  0  0  0
 15 39  1  0  0  0
 16 18  1  0  0  0
 16 40  1  0  0  0
 16 41  1  0  0  0
 17 42  1  0  0  0
 18 27  1  0  0  0
 18 43  1  0  0  0
 19 28  1  0  0  0
 19 44  1  0  0  0
 20 21  1  0  0  0
 20 31  2  0  0  0
 21 45  1  0  0  0
 22 24  1  0  0  0
 22 46  1  0  0  0
 23 30  1  0  0  0
 23 47  1  0  0  0
 24 48  1  0  0  0
 25 49  1  0  0  0
 26 32  2  0  0  0
 26 50  1  0  0  0
 27 51  1  0  0  0
 27 52  1  0  0  0
 28 30  2  0  0  0
 28 53  1  0  0  0
 29 54  1  0  0  0
 30 55  1  0  0  0
 31 56  1  0  0  0
 32 57  1  0  0  0
 33 34  1  0  0  0
 34 58  1  0  0  0
 34 59  1  0  0  0
 35 60  1  0  0  0
 35 61  1  0  0  0
 35 62  1  0  0  0
 36 63  1  0  0  0
 36 64  1  0  0  0
 36 65  1  0  0  0
M  END
> <s_m_entry_id>
27910

> <s_m_entry_name>
dock_pv.71

> <s_m_Source_Path>
/home/csk/Desktop/cluster/DUD-E-result/rock1

> <s_m_Source_File>
dock_pv.maegz

> <i_m_Source_File_Index>
71

> <chembl_id>
CHEMBL1991725

> <chembl_pref_name>
None

> <i_lp_mmshare_version>
53161

> <r_lp_tautomer_probability>
1

> <s_lp_Force_Field>
OPLS_2005

> <r_lp_Energy>
24.525828

> <b_lp_Chiralities_Consistent>
1

> <s_lp_Variant>
CHEMBL3231_lig1849-2

> <s_i_glide_gridfile>
glide-grid_2etr

> <i_i_glide_lignum>
2670

> <i_i_glide_rotatable_bonds>
10

> <r_i_docking_score>
-8.55997081825677

> <r_i_glide_ligand_efficiency>
-0.237776967173799

> <r_i_glide_ligand_efficiency_sa>
-0.785122246132858

> <r_i_glide_ligand_efficiency_ln>
-1.86755436885793

> <r_i_glide_gscore>
-8.55997081825677

> <r_i_glide_lipo>
-2.64473038675114

> <r_i_glide_hbond>
-0.896669445438763

> <r_i_glide_metal>
0

> <r_i_glide_rewards>
-1.62248980046066

> <r_i_glide_evdw>
-45.4219856262207

> <r_i_glide_ecoul>
-11.5983095169067

> <r_i_glide_erotb>
0.705169359718321

> <r_i_glide_esite>
-0.0904048364774849

> <r_i_glide_emodel>
-84.3630277959625

> <r_i_glide_energy>
-57.0202951431274

> <r_i_glide_einternal>
9.03830623626709

> <i_i_glide_confnum>
1

> <i_i_glide_posenum>
20

> <r_i_glide_eff_state_penalty>
0

> <s_user_duplicate_titles>
CHEMBL3231_lig1849

> <i_f3d_flags>
0

> <s_m_subgroup_title>
dock_pv

> <s_m_subgroupid>
dock_pv

> <b_m_subgroup_collapsed>
1

$$$$
CHEMBL3231_lig1872
                    3D
 Schrodinger Suite 2021-1.
 44 47  0  0  1  0            999 V2000
   54.7547   99.7232   31.0835 C   0  0  0  0  0  0
   53.5237   98.9714   31.3705 N   0  0  0  0  0  0
   53.7819   97.5661   31.7028 C   0  0  0  0  0  0
   52.2612   99.4815   31.3823 C   0  0  0  0  0  0
   51.2484   98.8186   31.6109 O   0  0  0  0  0  0
   52.1091  100.8806   31.0888 C   0  0  0  0  0  0
   51.7308  101.5381   29.9020 C   0  0  0  0  0  0
   51.7832  102.8483   30.1193 N   0  0  0  0  0  0
   52.1857  103.0950   31.4115 N   0  0  0  0  0  0
   52.4019  101.9041   31.9696 N   0  0  0  0  0  0
   52.7682  101.8494   33.3849 C   0  0  0  0  0  0
   51.5678  102.0387   34.3065 C   0  0  0  0  0  0
   50.7304  100.9554   34.5886 C   0  0  0  0  0  0
   49.6148  101.1331   35.4038 C   0  0  0  0  0  0
   49.3428  102.3889   35.9433 C   0  0  0  0  0  0
   50.1782  103.4710   35.6704 C   0  0  0  0  0  0
   51.2919  103.2961   34.8507 C   0  0  0  0  0  0
   51.2761  101.0014   28.5618 C   0  0  0  0  0  0
   50.8387  101.9024   27.5816 C   0  0  0  0  0  0
   50.3755  101.5032   26.3294 C   0  0  0  0  0  0
   50.3373  100.1343   26.0800 C   0  0  0  0  0  0
   49.9100   99.3954   24.9966 N   0  0  0  0  0  0
   50.0431   98.0757   25.2110 N   0  0  0  0  0  0
   50.5882   97.9287   26.3904 C   0  0  0  0  0  0
   50.7744   99.1877   27.0319 C   0  0  0  0  0  0
   51.2514   99.6276   28.2734 C   0  0  0  0  0  0
   54.5758  100.7218   30.6780 H   0  0  0  0  0  0
   55.3545   99.8364   31.9910 H   0  0  0  0  0  0
   55.3681   99.1922   30.3527 H   0  0  0  0  0  0
   52.8743   96.9895   31.8756 H   0  0  0  0  0  0
   54.3305   97.0830   30.8942 H   0  0  0  0  0  0
   54.3943   97.5014   32.6024 H   0  0  0  0  0  0
   53.2539  100.8952   33.5936 H   0  0  0  0  0  0
   53.5285  102.6100   33.5781 H   0  0  0  0  0  0
   50.9314   99.9818   34.1626 H   0  0  0  0  0  0
   48.9598  100.3018   35.6113 H   0  0  0  0  0  0
   48.4778  102.5229   36.5761 H   0  0  0  0  0  0
   49.9642  104.4423   36.0916 H   0  0  0  0  0  0
   51.9343  104.1398   34.6313 H   0  0  0  0  0  0
   50.8438  102.9639   27.7814 H   0  0  0  0  0  0
   50.0312  102.2285   25.6114 H   0  0  0  0  0  0
   49.5045   99.7379   24.1333 H   0  0  0  0  0  0
   50.8367   96.9505   26.7792 H   0  0  0  0  0  0
   51.5805   98.8913   28.9838 H   0  0  0  0  0  0
  1  2  1  0  0  0
  1 27  1  0  0  0
  1 28  1  0  0  0
  1 29  1  0  0  0
  2  3  1  0  0  0
  2  4  1  0  0  0
  3 30  1  0  0  0
  3 31  1  0  0  0
  3 32  1  0  0  0
  4  5  2  0  0  0
  4  6  1  0  0  0
  6  7  2  0  0  0
  6 10  1  0  0  0
  7  8  1  0  0  0
  7 18  1  0  0  0
  8  9  2  0  0  0
  9 10  1  0  0  0
 10 11  1  0  0  0
 11 12  1  0  0  0
 11 33  1  0  0  0
 11 34  1  0  0  0
 12 13  2  0  0  0
 12 17  1  0  0  0
 13 14  1  0  0  0
 13 35  1  0  0  0
 14 15  2  0  0  0
 14 36  1  0  0  0
 15 16  1  0  0  0
 15 37  1  0  0  0
 16 17  2  0  0  0
 16 38  1  0  0  0
 17 39  1  0  0  0
 18 19  2  0  0  0
 18 26  1  0  0  0
 19 20  1  0  0  0
 19 40  1  0  0  0
 20 21  2  0  0  0
 20 41  1  0  0  0
 21 22  1  0  0  0
 21 25  1  0  0  0
 22 23  1  0  0  0
 22 42  1  0  0  0
 23 24  2  0  0  0
 24 25  1  0  0  0
 24 43  1  0  0  0
 25 26  2  0  0  0
 26 44  1  0  0  0
M  END
> <s_m_entry_id>
27911

> <s_m_entry_name>
dock_pv.72

> <s_m_Source_Path>
/home/csk/Desktop/cluster/DUD-E-result/rock1

> <s_m_Source_File>
dock_pv.maegz

> <i_m_Source_File_Index>
72

> <chembl_id>
CHEMBL1996111

> <chembl_pref_name>
None

> <i_lp_mmshare_version>
53161

> <r_lp_tautomer_probability>
0.980392156862745

> <s_lp_Force_Field>
OPLS_2005

> <r_lp_Energy>
24.559516

> <b_lp_Chiralities_Consistent>
1

> <s_lp_Variant>
CHEMBL3231_lig1872-1

> <s_i_glide_gridfile>
glide-grid_2etr

> <i_i_glide_lignum>
2711

> <i_i_glide_rotatable_bonds>
5

> <r_i_docking_score>
-8.55684838403942

> <r_i_glide_ligand_efficiency>
-0.329109553232285

> <r_i_glide_ligand_efficiency_sa>
-0.974985756467086

> <r_i_glide_ligand_efficiency_ln>
-2.00954776568202

> <r_i_glide_gscore>
-8.55684838403942

> <r_i_glide_lipo>
-3.02172095628888

> <r_i_glide_hbond>
-0.48725828392989

> <r_i_glide_metal>
0

> <r_i_glide_rewards>
-2.32536926866026

> <r_i_glide_evdw>
-44.581600189209

> <r_i_glide_ecoul>
-5.38856887817383

> <r_i_glide_erotb>
0.443663417762567

> <r_i_glide_esite>
-0.12879795173644

> <r_i_glide_emodel>
-74.5771543450234

> <r_i_glide_energy>
-49.9701690673828

> <r_i_glide_einternal>
2.70360517501831

> <i_i_glide_confnum>
59

> <i_i_glide_posenum>
284

> <r_i_glide_eff_state_penalty>
0

> <s_user_duplicate_titles>
CHEMBL3231_lig1872,CHEMBL3231_lig1872

> <i_f3d_flags>
0

> <s_m_subgroup_title>
dock_pv

> <s_m_subgroupid>
dock_pv

> <b_m_subgroup_collapsed>
1

$$$$
CHEMBL3231_lig719
                    3D
 Schrodinger Suite 2021-1.
 43 45  0  0  1  0            999 V2000
   50.1454  107.1052   35.5806 C   0  0  0  0  0  0
   49.1998  106.0791   35.8804 O   0  0  0  0  0  0
   49.5285  104.7638   35.6116 C   0  0  0  0  0  0
   48.5605  103.8016   35.9008 C   0  0  0  0  0  0
   48.7964  102.4516   35.6417 C   0  0  0  0  0  0
   50.0061  102.0461   35.0820 C   0  0  0  0  0  0
   50.2166  100.7329   34.8298 F   0  0  0  0  0  0
   50.9928  102.9944   34.7840 C   0  0  0  0  0  0
   52.3238  102.5671   34.1672 C   0  0  0  0  0  0
   52.1959  101.9912   32.8278 N   0  0  0  0  0  0
   51.8485  102.6906   31.7319 C   0  0  0  0  0  0
   51.6446  103.9030   31.7697 O   0  0  0  0  0  0
   51.6432  101.9281   30.4431 C   0  0  0  0  0  0
   51.1215  102.5855   29.3233 C   0  0  0  0  0  0
   50.8409  101.8876   28.1544 C   0  0  0  0  0  0
   51.0757  100.5110   28.0524 C   0  0  0  0  0  0
   51.6368   99.8472   29.1654 C   0  0  0  0  0  0
   51.9535   98.3616   29.1632 C   0  0  0  0  0  0
   51.9253  100.5600   30.3337 C   0  0  0  0  0  0
   50.6740   99.8587   26.7577 C   0  0  0  0  0  0
   50.4525  100.4821   25.5341 C   0  0  0  0  0  0
   50.0454   99.5144   24.6632 N   0  0  0  0  0  0
   50.0392   98.3030   25.2114 N   0  0  0  0  0  0
   50.3872   98.5107   26.4587 C   0  0  0  0  0  0
   50.7532  104.3466   35.0613 C   0  0  0  0  0  0
   49.7246  108.0747   35.8440 H   0  0  0  0  0  0
   51.0667  106.9795   36.1531 H   0  0  0  0  0  0
   50.3866  107.1313   34.5163 H   0  0  0  0  0  0
   47.6142  104.1030   36.3255 H   0  0  0  0  0  0
   48.0433  101.7162   35.8778 H   0  0  0  0  0  0
   52.7828  101.8236   34.8211 H   0  0  0  0  0  0
   53.0197  103.4070   34.1297 H   0  0  0  0  0  0
   52.3027  100.9930   32.7488 H   0  0  0  0  0  0
   50.9079  103.6443   29.3511 H   0  0  0  0  0  0
   50.4124  102.4394   27.3316 H   0  0  0  0  0  0
   52.6827   98.1070   29.9353 H   0  0  0  0  0  0
   51.0517   97.7740   29.3345 H   0  0  0  0  0  0
   52.3970   98.0731   28.2118 H   0  0  0  0  0  0
   52.3499  100.0201   31.1691 H   0  0  0  0  0  0
   50.5228  101.5078   25.2142 H   0  0  0  0  0  0
   49.7725   99.6748   23.7000 H   0  0  0  0  0  0
   50.4079   97.6813   27.1465 H   0  0  0  0  0  0
   51.5217  105.0660   34.8235 H   0  0  0  0  0  0
  1  2  1  0  0  0
  1 26  1  0  0  0
  1 27  1  0  0  0
  1 28  1  0  0  0
  2  3  1  0  0  0
  3  4  2  0  0  0
  3 25  1  0  0  0
  4  5  1  0  0  0
  4 29  1  0  0  0
  5  6  2  0  0  0
  5 30  1  0  0  0
  6  7  1  0  0  0
  6  8  1  0  0  0
  8  9  1  0  0  0
  8 25  2  0  0  0
  9 10  1  0  0  0
  9 31  1  0  0  0
  9 32  1  0  0  0
 10 11  1  0  0  0
 10 33  1  0  0  0
 11 12  2  0  0  0
 11 13  1  0  0  0
 13 14  2  0  0  0
 13 19  1  0  0  0
 14 15  1  0  0  0
 14 34  1  0  0  0
 15 16  2  0  0  0
 15 35  1  0  0  0
 16 17  1  0  0  0
 16 20  1  0  0  0
 17 18  1  0  0  0
 17 19  2  0  0  0
 18 36  1  0  0  0
 18 37  1  0  0  0
 18 38  1  0  0  0
 19 39  1  0  0  0
 20 21  2  0  0  0
 20 24  1  0  0  0
 21 22  1  0  0  0
 21 40  1  0  0  0
 22 23  1  0  0  0
 22 41  1  0  0  0
 23 24  2  0  0  0
 24 42  1  0  0  0
 25 43  1  0  0  0
M  END
> <s_m_entry_id>
27912

> <s_m_entry_name>
dock_pv.73

> <s_m_Source_Path>
/home/csk/Desktop/cluster/DUD-E-result/rock1

> <s_m_Source_File>
dock_pv.maegz

> <i_m_Source_File_Index>
73

> <chembl_id>
CHEMBL3922917

> <chembl_pref_name>
None

> <i_lp_mmshare_version>
53161

> <r_lp_tautomer_probability>
0.5

> <s_lp_Force_Field>
OPLS_2005

> <r_lp_Energy>
22.114069

> <b_lp_Chiralities_Consistent>
1

> <s_lp_Variant>
CHEMBL3231_lig719-1

> <s_i_glide_gridfile>
glide-grid_2etr

> <i_i_glide_lignum>
1025

> <i_i_glide_rotatable_bonds>
6

> <r_i_docking_score>
-8.55573956228303

> <r_i_glide_ligand_efficiency>
-0.342229582491321

> <r_i_glide_ligand_efficiency_sa>
-1.00068536867211

> <r_i_glide_ligand_efficiency_ln>
-2.02796667108597

> <r_i_glide_gscore>
-8.55573956228303

> <r_i_glide_lipo>
-2.95691910254598

> <r_i_glide_hbond>
-0.673003568214334

> <r_i_glide_metal>
0

> <r_i_glide_rewards>
-2.36009149738947

> <r_i_glide_evdw>
-41.1284713745117

> <r_i_glide_ecoul>
-6.85600137710571

> <r_i_glide_erotb>
0.57510212338426

> <r_i_glide_esite>
-0.0560037422260651

> <r_i_glide_emodel>
-70.7501381292929

> <r_i_glide_energy>
-47.9844727516174

> <r_i_glide_einternal>
5.23305463790894

> <i_i_glide_confnum>
70

> <i_i_glide_posenum>
207

> <r_i_glide_eff_state_penalty>
0

> <s_user_duplicate_titles>
CHEMBL3231_lig719

> <i_f3d_flags>
0

> <s_m_subgroup_title>
dock_pv

> <s_m_subgroupid>
dock_pv

> <b_m_subgroup_collapsed>
1

$$$$
CHEMBL3231_lig666
                    3D
 Schrodinger Suite 2021-1.
 40 42  0  0  1  0            999 V2000
   51.4538   97.6586   30.4108 C   0  0  0  0  0  0
   51.2587   98.4094   29.2148 O   0  0  0  0  0  0
   51.3909   99.7883   29.2270 C   0  0  0  0  0  0
   51.8110  100.5013   30.3663 C   0  0  0  0  0  0
   51.8502  101.9046   30.3798 C   0  0  0  0  0  0
   51.5089  102.5930   29.2140 C   0  0  0  0  0  0
   51.1124  101.9018   28.0772 C   0  0  0  0  0  0
   51.0403  100.5046   28.0638 C   0  0  0  0  0  0
   50.5470   99.8641   26.7968 C   0  0  0  0  0  0
   50.5862   98.5161   26.3873 C   0  0  0  0  0  0
   50.0430   98.3026   25.2112 N   0  0  0  0  0  0
   49.6458   99.5081   24.8109 N   0  0  0  0  0  0
   49.9253  100.4860   25.7188 C   0  0  0  0  0  0
   52.1517  102.6828   31.6377 C   0  0  0  0  0  0
   51.6432  103.7913   31.8138 O   0  0  0  0  0  0
   52.9413  102.0900   32.5514 N   0  0  0  0  0  0
   53.1586  102.6015   33.9109 C   0  0  0  0  0  0
   51.9176  102.6161   34.8154 C   0  0  0  0  0  0
   50.9306  101.6290   34.6832 C   0  0  0  0  0  0
   49.7821  101.6615   35.4698 C   0  0  0  0  0  0
   48.8434  100.7035   35.3210 F   0  0  0  0  0  0
   49.6025  102.6800   36.4023 C   0  0  0  0  0  0
   50.5800  103.6623   36.5546 C   0  0  0  0  0  0
   50.4025  104.6405   37.4726 F   0  0  0  0  0  0
   51.7349  103.6339   35.7649 C   0  0  0  0  0  0
   52.6727  104.5971   35.9258 F   0  0  0  0  0  0
   51.2441   96.6075   30.2127 H   0  0  0  0  0  0
   52.4828   97.7275   30.7662 H   0  0  0  0  0  0
   50.7768   97.9803   31.2035 H   0  0  0  0  0  0
   52.0582   99.9649   31.2692 H   0  0  0  0  0  0
   51.5320  103.6739   29.1845 H   0  0  0  0  0  0
   50.8428  102.4765   27.2050 H   0  0  0  0  0  0
   51.0100   97.6946   26.9456 H   0  0  0  0  0  0
   49.1994   99.6610   23.9106 H   0  0  0  0  0  0
   49.6506  101.5117   25.5221 H   0  0  0  0  0  0
   53.4633  101.2709   32.2768 H   0  0  0  0  0  0
   53.5990  103.5996   33.8457 H   0  0  0  0  0  0
   53.9177  101.9888   34.3994 H   0  0  0  0  0  0
   51.0446  100.8332   33.9619 H   0  0  0  0  0  0
   48.7099  102.7008   37.0106 H   0  0  0  0  0  0
  1  2  1  0  0  0
  1 27  1  0  0  0
  1 28  1  0  0  0
  1 29  1  0  0  0
  2  3  1  0  0  0
  3  4  2  0  0  0
  3  8  1  0  0  0
  4  5  1  0  0  0
  4 30  1  0  0  0
  5  6  2  0  0  0
  5 14  1  0  0  0
  6  7  1  0  0  0
  6 31  1  0  0  0
  7  8  2  0  0  0
  7 32  1  0  0  0
  8  9  1  0  0  0
  9 10  1  0  0  0
  9 13  2  0  0  0
 10 11  2  0  0  0
 10 33  1  0  0  0
 11 12  1  0  0  0
 12 13  1  0  0  0
 12 34  1  0  0  0
 13 35  1  0  0  0
 14 15  2  0  0  0
 14 16  1  0  0  0
 16 17  1  0  0  0
 16 36  1  0  0  0
 17 18  1  0  0  0
 17 37  1  0  0  0
 17 38  1  0  0  0
 18 19  2  0  0  0
 18 25  1  0  0  0
 19 20  1  0  0  0
 19 39  1  0  0  0
 20 21  1  0  0  0
 20 22  2  0  0  0
 22 23  1  0  0  0
 22 40  1  0  0  0
 23 24  1  0  0  0
 23 25  2  0  0  0
 25 26  1  0  0  0
M  END
> <s_m_entry_id>
27913

> <s_m_entry_name>
dock_pv.74

> <s_m_Source_Path>
/home/csk/Desktop/cluster/DUD-E-result/rock1

> <s_m_Source_File>
dock_pv.maegz

> <i_m_Source_File_Index>
74

> <chembl_id>
CHEMBL3973474

> <chembl_pref_name>
None

> <i_lp_mmshare_version>
53161

> <r_lp_tautomer_probability>
0.5

> <s_lp_Force_Field>
OPLS_2005

> <r_lp_Energy>
20.536598

> <b_lp_Chiralities_Consistent>
1

> <s_lp_Variant>
CHEMBL3231_lig666-1

> <s_i_glide_gridfile>
glide-grid_2etr

> <i_i_glide_lignum>
957

> <i_i_glide_rotatable_bonds>
6

> <r_i_docking_score>
-8.55301101696973

> <r_i_glide_ligand_efficiency>
-0.328961962191143

> <r_i_glide_ligand_efficiency_sa>
-0.974548518588445

> <r_i_glide_ligand_efficiency_ln>
-2.00864657261713

> <r_i_glide_gscore>
-8.55301101696973

> <r_i_glide_lipo>
-2.69195676593091

> <r_i_glide_hbond>
-0.677531590589118

> <r_i_glide_metal>
0

> <r_i_glide_rewards>
-2.29755607945531

> <r_i_glide_evdw>
-40.3790397644043

> <r_i_glide_ecoul>
-8.14802932739258

> <r_i_glide_erotb>
0.411561174902362

> <r_i_glide_esite>
-0.056371368567651

> <r_i_glide_emodel>
-71.4520838383513

> <r_i_glide_energy>
-48.5270690917969

> <r_i_glide_einternal>
4.79398632049561

> <i_i_glide_confnum>
5

> <i_i_glide_posenum>
120

> <r_i_glide_eff_state_penalty>
0

> <s_user_duplicate_titles>
CHEMBL3231_lig666

> <i_f3d_flags>
0

> <s_m_subgroup_title>
dock_pv

> <s_m_subgroupid>
dock_pv

> <b_m_subgroup_collapsed>
1

$$$$
CHEMBL3231_lig512
                    3D
 Schrodinger Suite 2021-1.
 46 49  0  0  1  0            999 V2000
   52.8538  101.7877   33.8201 C   0  0  1  0  0  0
   52.9744  101.9051   32.2761 C   0  0  0  0  0  0
   53.6252  103.0023   31.7890 C   0  0  0  0  0  0
   54.2732  103.8649   32.6268 N   0  0  0  0  0  0
   54.5879  103.6176   33.9198 C   0  0  0  0  0  0
   54.0113  102.4978   34.4319 N   0  0  0  0  0  0
   55.3522  104.3214   34.5725 O   0  0  0  0  0  0
   53.9160  103.3461   30.3285 C   0  0  0  0  0  0
   52.2951  100.8671   31.4871 C   0  0  0  0  0  0
   52.0512  101.1722   30.1958 N   0  0  0  0  0  0
   51.9347   99.8057   31.9977 O   0  0  0  0  0  0
   51.5661  100.3820   29.1407 C   0  0  0  0  0  0
   51.0637  101.0831   28.0423 C   0  0  0  0  0  0
   51.1809   98.2534   28.0152 C   0  0  0  0  0  0
   51.6297   98.9819   29.1194 C   0  0  0  0  0  0
   50.6706   98.9438   26.9054 C   0  0  0  0  0  0
   50.6089  100.3706   26.9258 C   0  0  0  0  0  0
   50.0416  100.7042   25.6749 C   0  0  0  0  0  0
   49.8357   99.5094   25.0349 N   0  0  0  0  0  0
   50.1963   98.4177   25.7314 N   0  0  0  0  0  0
   51.4796  102.1914   34.3859 C   0  0  0  0  0  0
   51.1537  103.5341   34.6296 C   0  0  0  0  0  0
   49.9076  103.8927   35.1673 C   0  0  0  0  0  0
   48.9570  102.8885   35.4112 C   0  0  0  0  0  0
   49.2891  101.5501   35.2122 C   0  0  0  0  0  0
   50.5424  101.2030   34.7085 C   0  0  0  0  0  0
   47.6988  103.1937   35.8087 F   0  0  0  0  0  0
   49.5903  105.3435   35.4102 C   0  0  0  0  0  0
   48.8484  105.5921   36.5206 O   0  0  0  0  0  0
   49.9742  106.2348   34.6591 O   0  0  0  0  0  0
   52.9738  100.7457   34.1276 H   0  0  0  0  0  0
   54.7441  104.6719   32.2369 H   0  0  0  0  0  0
   54.1500  102.3735   35.4234 H   0  0  0  0  0  0
   54.0867  102.4660   29.7107 H   0  0  0  0  0  0
   53.1189  103.9507   29.8979 H   0  0  0  0  0  0
   54.8428  103.9031   30.2320 H   0  0  0  0  0  0
   52.2632  102.1230   29.9423 H   0  0  0  0  0  0
   51.0238  102.1618   28.0440 H   0  0  0  0  0  0
   51.2398   97.1764   28.0140 H   0  0  0  0  0  0
   52.0445   98.4376   29.9550 H   0  0  0  0  0  0
   49.7588  101.6343   25.2110 H   0  0  0  0  0  0
   49.4221   99.4368   24.1129 H   0  0  0  0  0  0
   51.8811  104.3026   34.4053 H   0  0  0  0  0  0
   48.5618  100.7828   35.4178 H   0  0  0  0  0  0
   50.7678  100.1594   34.5408 H   0  0  0  0  0  0
   48.7057  106.5371   36.5823 H   0  0  0  0  0  0
  1  2  1  0  0  0
  1  6  1  0  0  0
  1 21  1  0  0  0
  1 31  1  0  0  0
  2  3  2  0  0  0
  2  9  1  0  0  0
  3  4  1  0  0  0
  3  8  1  0  0  0
  4  5  1  0  0  0
  4 32  1  0  0  0
  5  6  1  0  0  0
  5  7  2  0  0  0
  6 33  1  0  0  0
  8 34  1  0  0  0
  8 35  1  0  0  0
  8 36  1  0  0  0
  9 10  1  0  0  0
  9 11  2  0  0  0
 10 37  1  0  0  0
 10 12  1  0  0  0
 12 15  1  0  0  0
 12 13  2  0  0  0
 13 38  1  0  0  0
 13 17  1  0  0  0
 14 16  1  0  0  0
 14 39  1  0  0  0
 14 15  2  0  0  0
 15 40  1  0  0  0
 16 20  2  0  0  0
 16 17  1  0  0  0
 17 18  2  0  0  0
 18 19  1  0  0  0
 18 41  1  0  0  0
 19 42  1  0  0  0
 19 20  1  0  0  0
 21 22  2  0  0  0
 21 26  1  0  0  0
 22 23  1  0  0  0
 22 43  1  0  0  0
 23 24  2  0  0  0
 23 28  1  0  0  0
 24 25  1  0  0  0
 24 27  1  0  0  0
 25 26  2  0  0  0
 25 44  1  0  0  0
 26 45  1  0  0  0
 28 29  1  0  0  0
 28 30  2  0  0  0
 29 46  1  0  0  0
M  END
> <s_m_entry_id>
27914

> <s_m_entry_name>
dock_pv.75

> <s_m_Source_Path>
/home/csk/Desktop/cluster/DUD-E-result/rock1

> <s_m_Source_File>
dock_pv.maegz

> <i_m_Source_File_Index>
75

> <chembl_id>
CHEMBL3810250

> <chembl_pref_name>
None

> <i_lp_mmshare_version>
53161

> <r_lp_tautomer_probability>
0.019607843137214

> <s_lp_Force_Field>
OPLS_2005

> <r_lp_Energy>
63.000021

> <b_lp_Chiralities_Consistent>
1

> <s_lp_Variant>
CHEMBL3231_lig512-4

> <s_i_glide_gridfile>
glide-grid_2etr

> <i_i_glide_lignum>
728

> <i_i_glide_rotatable_bonds>
6

> <r_i_docking_score>
-8.54517161851147

> <r_i_glide_ligand_efficiency>
-0.284839053950382

> <r_i_glide_ligand_efficiency_sa>
-0.88506116639635

> <r_i_glide_ligand_efficiency_ln>
-1.94155609882788

> <r_i_glide_gscore>
-8.54517161851147

> <r_i_glide_lipo>
-2.86444472091272

> <r_i_glide_hbond>
-0.555459955488307

> <r_i_glide_metal>
0

> <r_i_glide_rewards>
-2.17493485562899

> <r_i_glide_evdw>
-50.5944061279297

> <r_i_glide_ecoul>
-6.37832927703857

> <r_i_glide_erotb>
0.587469973002305

> <r_i_glide_esite>
-0.0513323615314873

> <r_i_glide_emodel>
-81.5355069219441

> <r_i_glide_energy>
-56.9727354049683

> <r_i_glide_einternal>
9.97309494018555

> <i_i_glide_confnum>
18

> <i_i_glide_posenum>
345

> <r_i_glide_eff_state_penalty>
0

> <s_user_duplicate_titles>
CHEMBL3231_lig512,CHEMBL3231_lig512

> <i_f3d_flags>
0

> <s_m_subgroup_title>
dock_pv

> <s_m_subgroupid>
dock_pv

> <b_m_subgroup_collapsed>
1

$$$$
CHEMBL3231_lig795
                    3D
 Schrodinger Suite 2021-1.
 49 51  0  0  1  0            999 V2000
   47.2429  104.0101   35.4946 C   0  0  0  0  0  0
   47.9156  102.6884   35.0953 C   0  0  0  0  0  0
   49.3740  102.7473   35.0143 N   0  0  0  0  0  0
   50.2005  102.8773   36.0689 C   0  0  0  0  0  0
   49.8033  103.1035   37.2109 O   0  0  0  0  0  0
   51.6619  102.6547   35.7726 C   0  0  0  0  0  0
   52.4526  101.8598   36.6135 C   0  0  0  0  0  0
   53.7841  101.5957   36.2901 C   0  0  0  0  0  0
   54.3393  102.1086   35.1174 C   0  0  0  0  0  0
   53.5669  102.9076   34.2687 C   0  0  0  0  0  0
   54.1519  103.4559   32.9683 C   0  0  0  0  0  0
   53.6208  102.7832   31.7766 N   0  0  0  0  0  0
   52.4104  103.0258   31.2426 C   0  0  0  0  0  0
   51.6446  103.9030   31.6365 O   0  0  0  0  0  0
   51.9812  102.1614   30.0998 C   0  0  0  0  0  0
   51.3001  102.7424   29.0319 C   0  0  0  0  0  0
   50.8414  101.9540   27.9881 C   0  0  0  0  0  0
   51.0321  100.5651   27.9735 C   0  0  0  0  0  0
   51.6796   99.9742   29.0819 C   0  0  0  0  0  0
   51.8709   98.4763   29.2188 C   0  0  0  0  0  0
   52.1666  100.7770   30.1205 C   0  0  0  0  0  0
   50.5295   99.8478   26.7456 C   0  0  0  0  0  0
   50.5211   98.4783   26.4012 C   0  0  0  0  0  0
   50.0316   98.2292   25.2116 N   0  0  0  0  0  0
   49.6656   99.4215   24.7532 N   0  0  0  0  0  0
   49.9480  100.4312   25.6210 C   0  0  0  0  0  0
   52.2487  103.2107   34.6299 C   0  0  0  0  0  0
   46.1581  103.9030   35.4772 H   0  0  0  0  0  0
   47.5074  104.8159   34.8127 H   0  0  0  0  0  0
   47.5131  104.3132   36.5061 H   0  0  0  0  0  0
   47.6439  101.9032   35.7994 H   0  0  0  0  0  0
   47.5265  102.3653   34.1299 H   0  0  0  0  0  0
   49.7937  102.5736   34.1122 H   0  0  0  0  0  0
   52.0428  101.4143   37.5085 H   0  0  0  0  0  0
   54.3813  100.9726   36.9400 H   0  0  0  0  0  0
   55.3641  101.8696   34.8669 H   0  0  0  0  0  0
   53.9536  104.5301   32.9128 H   0  0  0  0  0  0
   55.2381  103.3561   32.9710 H   0  0  0  0  0  0
   54.1998  102.0661   31.3619 H   0  0  0  0  0  0
   51.1284  103.8094   28.9980 H   0  0  0  0  0  0
   50.3386  102.4617   27.1806 H   0  0  0  0  0  0
   50.9074   97.9659   29.2405 H   0  0  0  0  0  0
   52.4427   98.1135   28.3700 H   0  0  0  0  0  0
   52.4135   98.2003   30.1261 H   0  0  0  0  0  0
   52.6584  100.3144   30.9656 H   0  0  0  0  0  0
   50.8759   97.6465   26.9869 H   0  0  0  0  0  0
   49.2437   99.5465   23.8378 H   0  0  0  0  0  0
   49.7159  101.4512   25.3558 H   0  0  0  0  0  0
   51.6630  103.8666   34.0033 H   0  0  0  0  0  0
  1  2  1  0  0  0
  1 28  1  0  0  0
  1 29  1  0  0  0
  1 30  1  0  0  0
  2  3  1  0  0  0
  2 31  1  0  0  0
  2 32  1  0  0  0
  3  4  1  0  0  0
  3 33  1  0  0  0
  4  5  2  0  0  0
  4  6  1  0  0  0
  6  7  2  0  0  0
  6 27  1  0  0  0
  7  8  1  0  0  0
  7 34  1  0  0  0
  8  9  2  0  0  0
  8 35  1  0  0  0
  9 10  1  0  0  0
  9 36  1  0  0  0
 10 11  1  0  0  0
 10 27  2  0  0  0
 11 12  1  0  0  0
 11 37  1  0  0  0
 11 38  1  0  0  0
 12 13  1  0  0  0
 12 39  1  0  0  0
 13 14  2  0  0  0
 13 15  1  0  0  0
 15 16  2  0  0  0
 15 21  1  0  0  0
 16 17  1  0  0  0
 16 40  1  0  0  0
 17 18  2  0  0  0
 17 41  1  0  0  0
 18 19  1  0  0  0
 18 22  1  0  0  0
 19 20  1  0  0  0
 19 21  2  0  0  0
 20 42  1  0  0  0
 20 43  1  0  0  0
 20 44  1  0  0  0
 21 45  1  0  0  0
 22 23  1  0  0  0
 22 26  2  0  0  0
 23 24  2  0  0  0
 23 46  1  0  0  0
 24 25  1  0  0  0
 25 26  1  0  0  0
 25 47  1  0  0  0
 26 48  1  0  0  0
 27 49  1  0  0  0
M  END
> <s_m_entry_id>
27915

> <s_m_entry_name>
dock_pv.76

> <s_m_Source_Path>
/home/csk/Desktop/cluster/DUD-E-result/rock1

> <s_m_Source_File>
dock_pv.maegz

> <i_m_Source_File_Index>
76

> <chembl_id>
CHEMBL3986370

> <chembl_pref_name>
None

> <i_lp_mmshare_version>
53161

> <r_lp_tautomer_probability>
0.5

> <s_lp_Force_Field>
OPLS_2005

> <r_lp_Energy>
21.509625

> <b_lp_Chiralities_Consistent>
1

> <s_lp_Variant>
CHEMBL3231_lig795-1

> <s_i_glide_gridfile>
glide-grid_2etr

> <i_i_glide_lignum>
1122

> <i_i_glide_rotatable_bonds>
8

> <r_i_docking_score>
-8.54065647361219

> <r_i_glide_ligand_efficiency>
-0.316320610133785

> <r_i_glide_ligand_efficiency_sa>
-0.948961829358813

> <r_i_glide_ligand_efficiency_ln>
-1.98812402333054

> <r_i_glide_gscore>
-8.54065647361219

> <r_i_glide_lipo>
-2.68859087668134

> <r_i_glide_hbond>
-0.707173623690162

> <r_i_glide_metal>
0

> <r_i_glide_rewards>
-2.16723707737201

> <r_i_glide_evdw>
-43.4155197143555

> <r_i_glide_ecoul>
-9.61907291412354

> <r_i_glide_erotb>
0.716312870212697

> <r_i_glide_esite>
-0.0803308432450754

> <r_i_glide_emodel>
-77.4321034370507

> <r_i_glide_energy>
-53.034592628479

> <r_i_glide_einternal>
6.20320749282837

> <i_i_glide_confnum>
58

> <i_i_glide_posenum>
391

> <r_i_glide_eff_state_penalty>
0

> <s_user_duplicate_titles>
CHEMBL3231_lig795

> <i_f3d_flags>
0

> <s_m_subgroup_title>
dock_pv

> <s_m_subgroupid>
dock_pv

> <b_m_subgroup_collapsed>
1

$$$$
CHEMBL3231_lig1270
                    3D
 Schrodinger Suite 2021-1.
 51 53  0  0  1  0            999 V2000
   50.6272  101.5073   25.6491 F   0  0  0  0  0  0
   52.0623  104.0374   31.9091 O   0  0  0  0  0  0
   50.0393  104.0006   35.8659 O   0  0  0  0  0  0
   53.8829  102.7070   32.2293 N   0  0  0  0  0  0
   50.0430   97.9678   25.2109 N   0  0  0  0  0  0
   51.4303  100.6037   28.3070 C   0  0  0  0  0  0
   50.9341   99.7106   27.2249 C   0  0  0  0  0  0
   52.3625  102.2422   30.3894 C   0  0  0  0  0  0
   52.7748  103.0939   31.5625 C   0  0  0  0  0  0
   50.5413  100.1982   25.9645 C   0  0  0  0  0  0
   50.8930  101.8797   28.5001 C   0  0  0  0  0  0
   52.4426  100.1635   29.1642 C   0  0  0  0  0  0
   53.2353  102.7226   34.6312 C   0  0  0  0  0  0
   54.2854  103.1151   33.5789 C   0  0  2  0  0  0
   51.3603  102.6963   29.5218 C   0  0  0  0  0  0
   52.9051  100.9666   30.1942 C   0  0  0  0  0  0
   50.8651   98.3255   27.4416 C   0  0  0  0  0  0
   52.1416  103.5514   34.9160 C   0  0  0  0  0  0
   51.1163  103.1399   35.7682 C   0  0  0  0  0  0
   50.0787   99.3045   25.0036 C   0  0  0  0  0  0
   53.3429  101.4980   35.2974 C   0  0  0  0  0  0
   50.4435   97.4982   26.4096 C   0  0  0  0  0  0
   51.2374  101.8975   36.4105 C   0  0  0  0  0  0
   52.3507  101.0899   36.1865 C   0  0  0  0  0  0
   54.7388  104.5849   33.6347 C   0  0  0  0  0  0
   48.9179  103.7180   36.6984 C   0  0  0  0  0  0
   47.6453  104.1012   35.9268 C   0  0  0  0  0  0
   47.2892  103.1027   34.8114 C   0  0  0  0  0  0
   54.4763  102.0197   31.7882 H   0  0  0  0  0  0
   50.0993  102.2466   27.8663 H   0  0  0  0  0  0
   52.8797   99.1844   29.0445 H   0  0  0  0  0  0
   55.1783  102.5268   33.8039 H   0  0  0  0  0  0
   50.9212  103.6753   29.6426 H   0  0  0  0  0  0
   53.6746  100.5679   30.8403 H   0  0  0  0  0  0
   51.1541   97.8856   28.3851 H   0  0  0  0  0  0
   52.0433  104.5052   34.4199 H   0  0  0  0  0  0
   49.7657   99.6559   24.0304 H   0  0  0  0  0  0
   54.1793  100.8410   35.1067 H   0  0  0  0  0  0
   50.4416   96.4249   26.5226 H   0  0  0  0  0  0
   50.4780  101.5120   37.0660 H   0  0  0  0  0  0
   52.4305  100.1339   36.6828 H   0  0  0  0  0  0
   55.0006  104.8789   34.6506 H   0  0  0  0  0  0
   55.6297  104.7134   33.0253 H   0  0  0  0  0  0
   53.9830  105.2797   33.2726 H   0  0  0  0  0  0
   49.0104  104.3250   37.5988 H   0  0  0  0  0  0
   48.8182  102.6877   37.0311 H   0  0  0  0  0  0
   47.7461  105.1069   35.5160 H   0  0  0  0  0  0
   46.8167  104.1531   36.6286 H   0  0  0  0  0  0
   46.3175  103.3349   34.3776 H   0  0  0  0  0  0
   47.2426  102.0859   35.2005 H   0  0  0  0  0  0
   48.0292  103.1028   34.0125 H   0  0  0  0  0  0
  1 10  1  0  0  0
  2  9  2  0  0  0
  3 19  1  0  0  0
  3 26  1  0  0  0
  4  9  1  0  0  0
  4 14  1  0  0  0
  4 29  1  0  0  0
  5 20  1  0  0  0
  5 22  2  0  0  0
  6  7  1  0  0  0
  6 11  2  0  0  0
  6 12  1  0  0  0
  7 10  1  0  0  0
  7 17  2  0  0  0
  8  9  1  0  0  0
  8 15  2  0  0  0
  8 16  1  0  0  0
 10 20  2  0  0  0
 11 15  1  0  0  0
 11 30  1  0  0  0
 12 16  2  0  0  0
 12 31  1  0  0  0
 13 14  1  0  0  0
 13 18  2  0  0  0
 13 21  1  0  0  0
 14 25  1  0  0  0
 14 32  1  0  0  0
 15 33  1  0  0  0
 16 34  1  0  0  0
 17 22  1  0  0  0
 17 35  1  0  0  0
 18 19  1  0  0  0
 18 36  1  0  0  0
 19 23  2  0  0  0
 20 37  1  0  0  0
 21 24  2  0  0  0
 21 38  1  0  0  0
 22 39  1  0  0  0
 23 24  1  0  0  0
 23 40  1  0  0  0
 24 41  1  0  0  0
 25 42  1  0  0  0
 25 43  1  0  0  0
 25 44  1  0  0  0
 26 27  1  0  0  0
 26 45  1  0  0  0
 26 46  1  0  0  0
 27 28  1  0  0  0
 27 47  1  0  0  0
 27 48  1  0  0  0
 28 49  1  0  0  0
 28 50  1  0  0  0
 28 51  1  0  0  0
M  END
> <s_m_entry_id>
27916

> <s_m_entry_name>
dock_pv.77

> <s_m_Source_Path>
/home/csk/Desktop/cluster/DUD-E-result/rock1

> <s_m_Source_File>
dock_pv.maegz

> <i_m_Source_File_Index>
77

> <chembl_id>
CHEMBL1971606

> <chembl_pref_name>
None

> <i_lp_mmshare_version>
53161

> <r_lp_tautomer_probability>
1

> <s_lp_Force_Field>
OPLS_2005

> <r_lp_Energy>
18.740798

> <b_lp_Chiralities_Consistent>
1

> <s_lp_Variant>
CHEMBL3231_lig1270-1

> <s_i_glide_gridfile>
glide-grid_2etr

> <i_i_glide_lignum>
1767

> <i_i_glide_rotatable_bonds>
8

> <r_i_docking_score>
-8.53108771703601

> <r_i_glide_ligand_efficiency>
-0.304681704179857

> <r_i_glide_ligand_efficiency_sa>
-0.925193101817194

> <r_i_glide_ligand_efficiency_ln>
-1.96922552871148

> <r_i_glide_gscore>
-8.53108771703601

> <r_i_glide_lipo>
-3.38158443768355

> <r_i_glide_hbond>
-0.376663657574302

> <r_i_glide_metal>
0

> <r_i_glide_rewards>
-2.64393730984705

> <r_i_glide_evdw>
-46.0066947937012

> <r_i_glide_ecoul>
-4.73307085037231

> <r_i_glide_erotb>
0.947198497139605

> <r_i_glide_esite>
-0.0658054418297986

> <r_i_glide_emodel>
-75.1813603342447

> <r_i_glide_energy>
-50.7397656440735

> <r_i_glide_einternal>
6.08987522125244

> <i_i_glide_confnum>
23

> <i_i_glide_posenum>
390

> <r_i_glide_eff_state_penalty>
0

> <s_user_duplicate_titles>
CHEMBL3231_lig1270

> <i_f3d_flags>
0

> <s_m_subgroup_title>
dock_pv

> <s_m_subgroupid>
dock_pv

> <b_m_subgroup_collapsed>
1

$$$$
CHEMBL3231_lig610
                    3D
 Schrodinger Suite 2021-1.
 43 45  0  0  1  0            999 V2000
   51.4594   97.7086   30.4134 C   0  0  0  0  0  0
   51.2435   98.4304   29.2033 O   0  0  0  0  0  0
   51.3257   99.8144   29.1876 C   0  0  0  0  0  0
   51.7605  100.5586   30.2969 C   0  0  0  0  0  0
   51.7629  101.9609   30.2794 C   0  0  0  0  0  0
   51.3334  102.6184   29.1244 C   0  0  0  0  0  0
   50.9217  101.8977   28.0142 C   0  0  0  0  0  0
   50.9231  100.4995   28.0209 C   0  0  0  0  0  0
   50.4671   99.8163   26.7677 C   0  0  0  0  0  0
   50.5407   98.4594   26.3996 C   0  0  0  0  0  0
   50.0431   98.2073   25.2128 N   0  0  0  0  0  0
   49.6435   99.3937   24.7697 N   0  0  0  0  0  0
   49.8739  100.4001   25.6539 C   0  0  0  0  0  0
   52.1648  102.7790   31.4787 C   0  0  0  0  0  0
   51.6895  103.9029   31.6258 O   0  0  0  0  0  0
   53.0397  102.2226   32.3373 N   0  0  0  0  0  0
   53.6436  102.8627   33.5157 C   0  0  0  0  0  0
   52.7025  103.6937   34.4363 C   0  0  0  0  0  0
   51.3606  103.0695   34.8510 C   0  0  0  0  0  0
   51.1992  101.6764   34.8859 C   0  0  0  0  0  0
   49.9814  101.1086   35.2577 C   0  0  0  0  0  0
   48.9145  101.9294   35.6112 C   0  0  0  0  0  0
   49.0618  103.3117   35.5956 C   0  0  0  0  0  0
   50.2756  103.8866   35.2215 C   0  0  0  0  0  0
   50.3850  105.6149   35.2227 Cl  0  0  0  0  0  0
   51.2432   96.6546   30.2424 H   0  0  0  0  0  0
   52.4942   97.7883   30.7493 H   0  0  0  0  0  0
   50.7965   98.0466   31.2095 H   0  0  0  0  0  0
   52.0676  100.0472   31.1974 H   0  0  0  0  0  0
   51.3228  103.6994   29.0761 H   0  0  0  0  0  0
   50.6078  102.4513   27.1428 H   0  0  0  0  0  0
   50.9613   97.6562   26.9867 H   0  0  0  0  0  0
   49.2237   99.5167   23.8527 H   0  0  0  0  0  0
   49.5964  101.4165   25.4159 H   0  0  0  0  0  0
   53.4183  101.3216   32.0863 H   0  0  0  0  0  0
   54.4764  103.4794   33.1699 H   0  0  0  0  0  0
   54.0495  102.0287   34.0897 H   0  0  0  0  0  0
   52.5048  104.6280   33.9116 H   0  0  0  0  0  0
   53.2399  103.9857   35.3376 H   0  0  0  0  0  0
   52.0136  101.0156   34.6263 H   0  0  0  0  0  0
   49.8657  100.0355   35.2743 H   0  0  0  0  0  0
   47.9708  101.5028   35.9094 H   0  0  0  0  0  0
   48.2300  103.9402   35.8805 H   0  0  0  0  0  0
  1  2  1  0  0  0
  1 26  1  0  0  0
  1 27  1  0  0  0
  1 28  1  0  0  0
  2  3  1  0  0  0
  3  4  2  0  0  0
  3  8  1  0  0  0
  4  5  1  0  0  0
  4 29  1  0  0  0
  5  6  2  0  0  0
  5 14  1  0  0  0
  6  7  1  0  0  0
  6 30  1  0  0  0
  7  8  2  0  0  0
  7 31  1  0  0  0
  8  9  1  0  0  0
  9 10  1  0  0  0
  9 13  2  0  0  0
 10 11  2  0  0  0
 10 32  1  0  0  0
 11 12  1  0  0  0
 12 13  1  0  0  0
 12 33  1  0  0  0
 13 34  1  0  0  0
 14 15  2  0  0  0
 14 16  1  0  0  0
 16 17  1  0  0  0
 16 35  1  0  0  0
 17 18  1  0  0  0
 17 36  1  0  0  0
 17 37  1  0  0  0
 18 19  1  0  0  0
 18 38  1  0  0  0
 18 39  1  0  0  0
 19 20  2  0  0  0
 19 24  1  0  0  0
 20 21  1  0  0  0
 20 40  1  0  0  0
 21 22  2  0  0  0
 21 41  1  0  0  0
 22 23  1  0  0  0
 22 42  1  0  0  0
 23 24  2  0  0  0
 23 43  1  0  0  0
 24 25  1  0  0  0
M  END
> <s_m_entry_id>
27917

> <s_m_entry_name>
dock_pv.78

> <s_m_Source_Path>
/home/csk/Desktop/cluster/DUD-E-result/rock1

> <s_m_Source_File>
dock_pv.maegz

> <i_m_Source_File_Index>
78

> <chembl_id>
CHEMBL3920786

> <chembl_pref_name>
None

> <i_lp_mmshare_version>
53161

> <r_lp_tautomer_probability>
0.5

> <s_lp_Force_Field>
OPLS_2005

> <r_lp_Energy>
21.598442

> <b_lp_Chiralities_Consistent>
1

> <s_lp_Variant>
CHEMBL3231_lig610-1

> <s_i_glide_gridfile>
glide-grid_2etr

> <i_i_glide_lignum>
896

> <i_i_glide_rotatable_bonds>
7

> <r_i_docking_score>
-8.5276151620118

> <r_i_glide_ligand_efficiency>
-0.341104606480472

> <r_i_glide_ligand_efficiency_sa>
-0.997395918864854

> <r_i_glide_ligand_efficiency_ln>
-2.02130034540142

> <r_i_glide_gscore>
-8.5276151620118

> <r_i_glide_lipo>
-2.97492248970076

> <r_i_glide_hbond>
-0.714798828719124

> <r_i_glide_metal>
0

> <r_i_glide_rewards>
-1.93675805420748

> <r_i_glide_evdw>
-42.3288841247559

> <r_i_glide_ecoul>
-8.35582637786865

> <r_i_glide_erotb>
0.528707090090174

> <r_i_glide_esite>
-0.0600247165565154

> <r_i_glide_emodel>
-75.3962999154209

> <r_i_glide_energy>
-50.6847105026245

> <r_i_glide_einternal>
3.96623182296753

> <i_i_glide_confnum>
34

> <i_i_glide_posenum>
294

> <r_i_glide_eff_state_penalty>
0

> <s_user_duplicate_titles>
CHEMBL3231_lig610

> <i_f3d_flags>
0

> <s_m_subgroup_title>
dock_pv

> <s_m_subgroupid>
dock_pv

> <b_m_subgroup_collapsed>
1

$$$$
CHEMBL3231_lig238
                    3D
 Schrodinger Suite 2021-1.
 42 44  0  0  1  0            999 V2000
   50.0427   98.6365   25.4354 N   0  0  0  0  0  0
   50.6434   97.8167   26.3240 C   0  0  0  0  0  0
   51.1896   98.2551   27.5272 C   0  0  0  0  0  0
   49.9532   99.9495   25.7451 C   0  0  0  0  0  0
   50.4999  100.5240   26.9362 C   0  0  0  0  0  0
   51.1414   99.6318   27.8466 C   0  0  0  0  0  0
   51.7040  100.1388   29.0443 C   0  0  0  0  0  0
   51.6415  101.4994   29.3523 C   0  0  0  0  0  0
   50.9924  102.3671   28.4692 C   0  0  0  0  0  0
   50.4430  101.9034   27.2740 C   0  0  0  0  0  0
   49.2464  100.7030   24.8110 N   0  0  0  0  0  0
   52.2714  101.9686   30.6687 C   0  0  0  0  0  0
   52.5346  103.4086   30.7556 N   0  0  1  0  0  0
   53.3000  103.7531   31.9605 C   0  0  0  0  0  0
   52.5312  103.5845   33.2937 C   0  0  0  0  0  0
   51.6433  104.7028   33.6108 N   0  0  0  0  0  0
   50.7469  104.6509   34.6928 C   0  0  0  0  0  0
   50.3753  103.4550   35.3268 C   0  0  0  0  0  0
   49.4208  103.4672   36.3420 C   0  0  0  0  0  0
   48.8369  104.6716   36.7229 C   0  0  0  0  0  0
   49.2078  105.8648   36.1075 C   0  0  0  0  0  0
   50.1659  105.8539   35.0978 C   0  0  0  0  0  0
   50.6791   96.7693   26.0584 H   0  0  0  0  0  0
   51.6429   97.5577   28.2128 H   0  0  0  0  0  0
   52.1885   99.4506   29.7223 H   0  0  0  0  0  0
   50.9243  103.4209   28.6974 H   0  0  0  0  0  0
   49.9723  102.6026   26.5996 H   0  0  0  0  0  0
   49.2120  101.7053   24.9206 H   0  0  0  0  0  0
   48.9863  100.2832   23.9219 H   0  0  0  0  0  0
   53.2100  101.4255   30.7961 H   0  0  0  0  0  0
   51.5983  101.6620   31.4692 H   0  0  0  0  0  0
   53.1024  103.6774   29.9613 H   0  0  0  0  0  0
   53.6346  104.7881   31.8690 H   0  0  0  0  0  0
   54.2162  103.1601   31.9784 H   0  0  0  0  0  0
   53.2438  103.4980   34.1153 H   0  0  0  0  0  0
   51.9890  102.6414   33.3030 H   0  0  0  0  0  0
   52.0423  105.6198   33.4004 H   0  0  0  0  0  0
   50.8007  102.5076   35.0389 H   0  0  0  0  0  0
   49.1265  102.5448   36.8229 H   0  0  0  0  0  0
   48.0857  104.6776   37.4992 H   0  0  0  0  0  0
   48.7478  106.7952   36.4004 H   0  0  0  0  0  0
   50.4458  106.7843   34.6239 H   0  0  0  0  0  0
  1  2  2  0  0  0
  1  4  1  0  0  0
  2  3  1  0  0  0
  2 23  1  0  0  0
  3  6  2  0  0  0
  3 24  1  0  0  0
  4 11  1  0  0  0
  4  5  2  0  0  0
  5  6  1  0  0  0
  5 10  1  0  0  0
  6  7  1  0  0  0
  7  8  2  0  0  0
  7 25  1  0  0  0
  8 12  1  0  0  0
  8  9  1  0  0  0
  9 10  2  0  0  0
  9 26  1  0  0  0
 10 27  1  0  0  0
 11 28  1  0  0  0
 11 29  1  0  0  0
 12 13  1  0  0  0
 12 30  1  0  0  0
 12 31  1  0  0  0
 13 14  1  0  0  0
 13 32  1  0  0  0
 14 15  1  0  0  0
 14 33  1  0  0  0
 14 34  1  0  0  0
 15 16  1  0  0  0
 15 35  1  0  0  0
 15 36  1  0  0  0
 16 17  1  0  0  0
 16 37  1  0  0  0
 17 18  2  0  0  0
 17 22  1  0  0  0
 18 19  1  0  0  0
 18 38  1  0  0  0
 19 20  2  0  0  0
 19 39  1  0  0  0
 20 21  1  0  0  0
 20 40  1  0  0  0
 21 22  2  0  0  0
 21 41  1  0  0  0
 22 42  1  0  0  0
M  END
> <s_m_entry_id>
27918

> <s_m_entry_name>
dock_pv.79

> <s_m_Source_Path>
/home/csk/Desktop/cluster/DUD-E-result/rock1

> <s_m_Source_File>
dock_pv.maegz

> <i_m_Source_File_Index>
79

> <chembl_id>
CHEMBL1643362

> <chembl_pref_name>
None

> <i_lp_mmshare_version>
53161

> <r_lp_tautomer_probability>
1

> <s_lp_Force_Field>
OPLS_2005

> <r_lp_Energy>
21.822232

> <b_lp_Chiralities_Consistent>
1

> <s_lp_Variant>
CHEMBL3231_lig238-1

> <s_i_glide_gridfile>
glide-grid_2etr

> <i_i_glide_lignum>
382

> <i_i_glide_rotatable_bonds>
6

> <r_i_docking_score>
-8.52732192374784

> <r_i_glide_ligand_efficiency>
-0.387605541988538

> <r_i_glide_ligand_efficiency_sa>
-1.08608597231284

> <r_i_glide_ligand_efficiency_ln>
-2.08438851978859

> <r_i_glide_gscore>
-8.52732192374784

> <r_i_glide_lipo>
-3.08829567858316

> <r_i_glide_hbond>
-0.449143362330921

> <r_i_glide_metal>
0

> <r_i_glide_rewards>
-2.70640719124272

> <r_i_glide_evdw>
-37.600658416748

> <r_i_glide_ecoul>
-9.32372570037842

> <r_i_glide_erotb>
1.06779093612272

> <r_i_glide_esite>
-0.0726748518195865

> <r_i_glide_emodel>
-69.9018696204485

> <r_i_glide_energy>
-46.9243841171265

> <r_i_glide_einternal>
6.15700769424438

> <i_i_glide_confnum>
23

> <i_i_glide_posenum>
37

> <r_i_glide_eff_state_penalty>
0

> <s_user_duplicate_titles>
CHEMBL3231_lig238

> <i_f3d_flags>
0

> <s_m_subgroup_title>
dock_pv

> <s_m_subgroupid>
dock_pv

> <b_m_subgroup_collapsed>
1

$$$$
CHEMBL3231_lig217
                    3D
 Schrodinger Suite 2021-1.
 43 46  0  0  1  0            999 V2000
   52.7300  103.1568   31.2115 C   0  0  0  0  0  0
   52.8237  103.0905   32.5972 C   0  0  0  0  0  0
   52.5644  101.9068   33.2894 C   0  0  0  0  0  0
   52.2284  100.7476   32.5848 C   0  0  0  0  0  0
   52.3242  102.0062   30.5227 C   0  0  0  0  0  0
   52.0771  100.7726   31.1853 C   0  0  0  0  0  0
   51.6666   99.7260   30.2869 C   0  0  0  0  0  0
   51.5690  100.1763   28.9604 C   0  0  0  0  0  0
   52.0414  101.8696   28.8117 S   0  0  0  0  0  0
   51.3602   98.3272   30.8082 C   0  0  0  0  0  0
   51.0972   99.4492   27.7158 C   0  0  0  0  0  0
   50.7930  100.2132   26.6236 N   0  0  0  0  0  0
   50.3152   99.5724   25.5277 C   0  0  0  0  0  0
   50.1005   98.2463   25.4079 N   0  0  0  0  0  0
   50.4431   97.5020   26.4836 C   0  0  0  0  0  0
   50.9547   98.0560   27.6568 C   0  0  0  0  0  0
   50.0431  100.3359   24.4116 N   0  0  0  0  0  0
   52.6108  101.8506   34.8193 C   0  0  2  0  0  0
   51.2981  102.3550   35.4385 C   0  0  0  0  0  0
   50.1495  101.5620   35.3140 C   0  0  0  0  0  0
   48.9284  101.9916   35.8323 C   0  0  0  0  0  0
   48.8447  103.2088   36.5025 C   0  0  0  0  0  0
   49.9798  104.0011   36.6486 C   0  0  0  0  0  0
   51.1995  103.5804   36.1161 C   0  0  0  0  0  0
   49.8687  105.5038   37.4837 Cl  0  0  0  0  0  0
   53.8000  102.5083   35.3492 N   0  0  0  0  0  0
   52.9471  104.0795   30.6919 H   0  0  0  0  0  0
   53.1030  103.9788   33.1454 H   0  0  0  0  0  0
   52.0485   99.8375   33.1333 H   0  0  0  0  0  0
   50.4278   97.9326   30.4078 H   0  0  0  0  0  0
   52.1540   97.6237   30.5583 H   0  0  0  0  0  0
   51.2426   98.2759   31.8872 H   0  0  0  0  0  0
   50.3206   96.4320   26.3900 H   0  0  0  0  0  0
   51.2347   97.4027   28.4639 H   0  0  0  0  0  0
   50.1259  101.3359   24.5014 H   0  0  0  0  0  0
   49.5087   99.9282   23.6492 H   0  0  0  0  0  0
   52.7161  100.8049   35.1132 H   0  0  0  0  0  0
   50.1993  100.6137   34.7991 H   0  0  0  0  0  0
   48.0430  101.3862   35.7200 H   0  0  0  0  0  0
   47.8981  103.5295   36.9109 H   0  0  0  0  0  0
   52.0653  104.2176   36.2212 H   0  0  0  0  0  0
   53.9107  102.2667   36.3244 H   0  0  0  0  0  0
   54.6144  102.1449   34.8723 H   0  0  0  0  0  0
  1  5  2  0  0  0
  1  2  1  0  0  0
  1 27  1  0  0  0
  2  3  2  0  0  0
  2 28  1  0  0  0
  3 18  1  0  0  0
  3  4  1  0  0  0
  4  6  2  0  0  0
  4 29  1  0  0  0
  5  9  1  0  0  0
  5  6  1  0  0  0
  6  7  1  0  0  0
  7  8  2  0  0  0
  7 10  1  0  0  0
  8 11  1  0  0  0
  8  9  1  0  0  0
 10 30  1  0  0  0
 10 31  1  0  0  0
 10 32  1  0  0  0
 11 16  1  0  0  0
 11 12  2  0  0  0
 12 13  1  0  0  0
 13 14  2  0  0  0
 13 17  1  0  0  0
 14 15  1  0  0  0
 15 16  2  0  0  0
 15 33  1  0  0  0
 16 34  1  0  0  0
 17 35  1  0  0  0
 17 36  1  0  0  0
 18 19  1  0  0  0
 18 26  1  0  0  0
 18 37  1  0  0  0
 19 20  2  0  0  0
 19 24  1  0  0  0
 20 21  1  0  0  0
 20 38  1  0  0  0
 21 22  2  0  0  0
 21 39  1  0  0  0
 22 23  1  0  0  0
 22 40  1  0  0  0
 23 24  2  0  0  0
 23 25  1  0  0  0
 24 41  1  0  0  0
 26 42  1  0  0  0
 26 43  1  0  0  0
M  END
> <s_m_entry_id>
27919

> <s_m_entry_name>
dock_pv.80

> <s_m_Source_Path>
/home/csk/Desktop/cluster/DUD-E-result/rock1

> <s_m_Source_File>
dock_pv.maegz

> <i_m_Source_File_Index>
80

> <chembl_id>
CHEMBL1085035

> <chembl_pref_name>
None

> <i_lp_mmshare_version>
53161

> <r_lp_tautomer_probability>
0.999999987636

> <s_lp_Force_Field>
OPLS_2005

> <r_lp_Energy>
5.666379

> <b_lp_Chiralities_Consistent>
1

> <s_lp_Variant>
CHEMBL3231_lig217-1

> <s_i_glide_gridfile>
glide-grid_2etr

> <i_i_glide_lignum>
352

> <i_i_glide_rotatable_bonds>
3

> <r_i_docking_score>
-8.51674883293547

> <r_i_glide_ligand_efficiency>
-0.327567262805211

> <r_i_glide_ligand_efficiency_sa>
-0.970416727145496

> <r_i_glide_ligand_efficiency_ln>
-2.00013051768262

> <r_i_glide_gscore>
-8.51674883293547

> <r_i_glide_lipo>
-2.82513845768413

> <r_i_glide_hbond>
-0.453859403650289

> <r_i_glide_metal>
0

> <r_i_glide_rewards>
-2.41686347359436

> <r_i_glide_evdw>
-46.1023292541504

> <r_i_glide_ecoul>
-5.31105041503906

> <r_i_glide_erotb>
0.280886526956684

> <r_i_glide_esite>
0

> <r_i_glide_emodel>
-77.2089694946058

> <r_i_glide_energy>
-51.4133796691895

> <r_i_glide_einternal>
0.457919269800186

> <i_i_glide_confnum>
23

> <i_i_glide_posenum>
358

> <r_i_glide_eff_state_penalty>
0

> <s_user_duplicate_titles>
CHEMBL3231_lig217,630310

> <i_f3d_flags>
0

> <s_m_subgroup_title>
dock_pv

> <s_m_subgroupid>
dock_pv

> <b_m_subgroup_collapsed>
1

$$$$
CHEMBL3231_lig219
                    3D
 Schrodinger Suite 2021-1.
 43 46  0  0  1  0            999 V2000
   52.7783  103.1343   31.2025 C   0  0  0  0  0  0
   52.8632  103.0767   32.5889 C   0  0  0  0  0  0
   52.5341  101.9187   33.2925 C   0  0  0  0  0  0
   52.1595  100.7637   32.5933 C   0  0  0  0  0  0
   52.3348  101.9933   30.5201 C   0  0  0  0  0  0
   52.0451  100.7731   31.1889 C   0  0  0  0  0  0
   51.6435   99.7234   30.2883 C   0  0  0  0  0  0
   51.5595  100.1703   28.9599 C   0  0  0  0  0  0
   52.0433  101.8598   28.8106 S   0  0  0  0  0  0
   51.3329   98.3234   30.8049 C   0  0  0  0  0  0
   51.0918   99.4440   27.7123 C   0  0  0  0  0  0
   50.7869  100.2126   26.6236 N   0  0  0  0  0  0
   50.3121   99.5776   25.5237 C   0  0  0  0  0  0
   50.0983   98.2511   25.3972 N   0  0  0  0  0  0
   50.4427   97.5015   26.4689 C   0  0  0  0  0  0
   50.9511   98.0507   27.6470 C   0  0  0  0  0  0
   50.0429  100.3505   24.4119 N   0  0  0  0  0  0
   52.5646  101.9495   34.8268 C   0  0  1  0  0  0
   51.2427  102.4705   35.3973 C   0  0  0  0  0  0
   51.1602  103.7934   35.8465 C   0  0  0  0  0  0
   49.9610  104.2879   36.3552 C   0  0  0  0  0  0
   48.8420  103.4603   36.4111 C   0  0  0  0  0  0
   48.9137  102.1428   35.9653 C   0  0  0  0  0  0
   50.1136  101.6444   35.4674 C   0  0  0  0  0  0
   52.9264  100.6641   35.4166 N   0  0  0  0  0  0
   53.0321  104.0440   30.6749 H   0  0  0  0  0  0
   53.1764  103.9620   33.1257 H   0  0  0  0  0  0
   51.9252   99.8731   33.1529 H   0  0  0  0  0  0
   52.1206   97.6180   30.5369 H   0  0  0  0  0  0
   51.2407   98.2645   31.8869 H   0  0  0  0  0  0
   50.3945   97.9313   30.4138 H   0  0  0  0  0  0
   50.3195   96.4329   26.3710 H   0  0  0  0  0  0
   51.2258   97.3951   28.4545 H   0  0  0  0  0  0
   50.1247  101.3496   24.5123 H   0  0  0  0  0  0
   49.5048   99.9519   23.6481 H   0  0  0  0  0  0
   53.3588  102.6355   35.1275 H   0  0  0  0  0  0
   52.0229  104.4422   35.7964 H   0  0  0  0  0  0
   49.8999  105.3094   36.7014 H   0  0  0  0  0  0
   47.9093  103.8396   36.8032 H   0  0  0  0  0  0
   48.0433  101.5068   36.0109 H   0  0  0  0  0  0
   50.1677  100.6214   35.1234 H   0  0  0  0  0  0
   53.8290  100.3799   35.0610 H   0  0  0  0  0  0
   53.0348  100.7696   36.4148 H   0  0  0  0  0  0
  1  5  2  0  0  0
  1  2  1  0  0  0
  1 26  1  0  0  0
  2  3  2  0  0  0
  2 27  1  0  0  0
  3 18  1  0  0  0
  3  4  1  0  0  0
  4  6  2  0  0  0
  4 28  1  0  0  0
  5  9  1  0  0  0
  5  6  1  0  0  0
  6  7  1  0  0  0
  7  8  2  0  0  0
  7 10  1  0  0  0
  8 11  1  0  0  0
  8  9  1  0  0  0
 10 29  1  0  0  0
 10 30  1  0  0  0
 10 31  1  0  0  0
 11 16  1  0  0  0
 11 12  2  0  0  0
 12 13  1  0  0  0
 13 14  2  0  0  0
 13 17  1  0  0  0
 14 15  1  0  0  0
 15 16  2  0  0  0
 15 32  1  0  0  0
 16 33  1  0  0  0
 17 34  1  0  0  0
 17 35  1  0  0  0
 18 19  1  0  0  0
 18 25  1  0  0  0
 18 36  1  0  0  0
 19 20  2  0  0  0
 19 24  1  0  0  0
 20 21  1  0  0  0
 20 37  1  0  0  0
 21 22  2  0  0  0
 21 38  1  0  0  0
 22 23  1  0  0  0
 22 39  1  0  0  0
 23 24  2  0  0  0
 23 40  1  0  0  0
 24 41  1  0  0  0
 25 42  1  0  0  0
 25 43  1  0  0  0
M  END
> <s_m_entry_id>
27920

> <s_m_entry_name>
dock_pv.81

> <s_m_Source_Path>
/home/csk/Desktop/cluster/DUD-E-result/rock1

> <s_m_Source_File>
dock_pv.maegz

> <i_m_Source_File_Index>
81

> <chembl_id>
CHEMBL1083352

> <chembl_pref_name>
None

> <i_lp_mmshare_version>
53161

> <r_lp_tautomer_probability>
0.999999987636

> <s_lp_Force_Field>
OPLS_2005

> <r_lp_Energy>
2.645631

> <b_lp_Chiralities_Consistent>
1

> <s_lp_Variant>
CHEMBL3231_lig219-2

> <s_i_glide_gridfile>
glide-grid_2etr

> <i_i_glide_lignum>
357

> <i_i_glide_rotatable_bonds>
3

> <r_i_docking_score>
-8.51460590593899

> <r_i_glide_ligand_efficiency>
-0.34058423623756

> <r_i_glide_ligand_efficiency_sa>
-0.995874347045774

> <r_i_glide_ligand_efficiency_ln>
-2.01821676185622

> <r_i_glide_gscore>
-8.51460590593899

> <r_i_glide_lipo>
-2.7796528220377

> <r_i_glide_hbond>
-0.459065559397208

> <r_i_glide_metal>
0

> <r_i_glide_rewards>
-2.65158313436899

> <r_i_glide_evdw>
-43.7544708251953

> <r_i_glide_ecoul>
-5.12812948226929

> <r_i_glide_erotb>
0.332638573465064

> <r_i_glide_esite>
0

> <r_i_glide_emodel>
-72.2695796679808

> <r_i_glide_energy>
-48.8826003074646

> <r_i_glide_einternal>
1.00206589698792

> <i_i_glide_confnum>
14

> <i_i_glide_posenum>
344

> <r_i_glide_eff_state_penalty>
0

> <s_user_duplicate_titles>
CHEMBL3231_lig219,630362

> <i_f3d_flags>
0

> <s_m_subgroup_title>
dock_pv

> <s_m_subgroupid>
dock_pv

> <b_m_subgroup_collapsed>
1

$$$$
CHEMBL3231_lig819
                    3D
 Schrodinger Suite 2021-1.
 46 48  0  0  1  0            999 V2000
   55.2420  101.5662   34.1879 C   0  0  0  0  0  0
   53.8555  101.6448   34.8521 C   0  0  0  0  0  0
   52.8181  102.4770   34.0645 C   0  0  1  0  0  0
   52.6617  101.9920   32.6881 N   0  0  0  0  0  0
   52.0305  102.6515   31.7008 C   0  0  0  0  0  0
   51.6431  103.8145   31.8221 O   0  0  0  0  0  0
   51.7575  101.8844   30.4266 C   0  0  0  0  0  0
   51.4556  102.5801   29.2540 C   0  0  0  0  0  0
   51.0874  101.8975   28.1015 C   0  0  0  0  0  0
   51.0164  100.4995   28.0770 C   0  0  0  0  0  0
   51.3453   99.7744   29.2415 C   0  0  0  0  0  0
   51.2431   98.3929   29.2133 O   0  0  0  0  0  0
   51.4156   97.6349   30.4090 C   0  0  0  0  0  0
   51.7207  100.4809   30.3992 C   0  0  0  0  0  0
   50.5391   99.8628   26.8015 C   0  0  0  0  0  0
   49.9220  100.4853   25.7205 C   0  0  0  0  0  0
   49.6436   99.5084   24.8109 N   0  0  0  0  0  0
   50.0432   98.3030   25.2112 N   0  0  0  0  0  0
   50.5818   98.5155   26.3892 C   0  0  0  0  0  0
   51.4820  102.5730   34.8219 C   0  0  0  0  0  0
   50.6331  101.4596   34.9274 C   0  0  0  0  0  0
   50.9744  100.2761   34.3695 F   0  0  0  0  0  0
   49.4209  101.5566   35.6103 C   0  0  0  0  0  0
   49.0369  102.7620   36.1921 C   0  0  0  0  0  0
   49.8727  103.8722   36.0966 C   0  0  0  0  0  0
   51.0891  103.7791   35.4201 C   0  0  0  0  0  0
   51.8804  104.8733   35.3507 F   0  0  0  0  0  0
   55.9531  101.0384   34.8246 H   0  0  0  0  0  0
   55.2066  101.0361   33.2353 H   0  0  0  0  0  0
   55.6442  102.5627   34.0002 H   0  0  0  0  0  0
   53.9813  102.0796   35.8445 H   0  0  0  0  0  0
   53.4845  100.6310   35.0106 H   0  0  0  0  0  0
   53.2458  103.4805   33.9912 H   0  0  0  0  0  0
   53.1312  101.1286   32.4617 H   0  0  0  0  0  0
   51.4830  103.6613   29.2323 H   0  0  0  0  0  0
   50.8399  102.4772   27.2262 H   0  0  0  0  0  0
   51.2421   96.5798   30.1958 H   0  0  0  0  0  0
   52.4295   97.7270   30.8002 H   0  0  0  0  0  0
   50.7030   97.9317   31.1802 H   0  0  0  0  0  0
   51.9413   99.9356   31.3037 H   0  0  0  0  0  0
   49.6466  101.5111   25.5263 H   0  0  0  0  0  0
   49.2029   99.6623   23.9077 H   0  0  0  0  0  0
   51.0015   97.6918   26.9473 H   0  0  0  0  0  0
   48.7771  100.6942   35.6827 H   0  0  0  0  0  0
   48.0940  102.8333   36.7162 H   0  0  0  0  0  0
   49.5833  104.8096   36.5474 H   0  0  0  0  0  0
  1  2  1  0  0  0
  1 28  1  0  0  0
  1 29  1  0  0  0
  1 30  1  0  0  0
  2  3  1  0  0  0
  2 31  1  0  0  0
  2 32  1  0  0  0
  3  4  1  0  0  0
  3 20  1  0  0  0
  3 33  1  0  0  0
  4  5  1  0  0  0
  4 34  1  0  0  0
  5  6  2  0  0  0
  5  7  1  0  0  0
  7  8  2  0  0  0
  7 14  1  0  0  0
  8  9  1  0  0  0
  8 35  1  0  0  0
  9 10  2  0  0  0
  9 36  1  0  0  0
 10 11  1  0  0  0
 10 15  1  0  0  0
 11 12  1  0  0  0
 11 14  2  0  0  0
 12 13  1  0  0  0
 13 37  1  0  0  0
 13 38  1  0  0  0
 13 39  1  0  0  0
 14 40  1  0  0  0
 15 16  2  0  0  0
 15 19  1  0  0  0
 16 17  1  0  0  0
 16 41  1  0  0  0
 17 18  1  0  0  0
 17 42  1  0  0  0
 18 19  2  0  0  0
 19 43  1  0  0  0
 20 21  2  0  0  0
 20 26  1  0  0  0
 21 22  1  0  0  0
 21 23  1  0  0  0
 23 24  2  0  0  0
 23 44  1  0  0  0
 24 25  1  0  0  0
 24 45  1  0  0  0
 25 26  2  0  0  0
 25 46  1  0  0  0
 26 27  1  0  0  0
M  END
> <s_m_entry_id>
27921

> <s_m_entry_name>
dock_pv.82

> <s_m_Source_Path>
/home/csk/Desktop/cluster/DUD-E-result/rock1

> <s_m_Source_File>
dock_pv.maegz

> <i_m_Source_File_Index>
82

> <chembl_id>
CHEMBL4115593

> <chembl_pref_name>
None

> <i_lp_mmshare_version>
53161

> <r_lp_tautomer_probability>
0.5

> <s_lp_Force_Field>
OPLS_2005

> <r_lp_Energy>
22.863203

> <b_lp_Chiralities_Consistent>
1

> <s_lp_Variant>
CHEMBL3231_lig819-1

> <s_i_glide_gridfile>
glide-grid_2etr

> <i_i_glide_lignum>
1147

> <i_i_glide_rotatable_bonds>
7

> <r_i_docking_score>
-8.51338863950022

> <r_i_glide_ligand_efficiency>
-0.31531069035186

> <r_i_glide_ligand_efficiency_sa>
-0.945932070016367

> <r_i_glide_ligand_efficiency_ln>
-1.98177652109465

> <r_i_glide_gscore>
-8.51338863950022

> <r_i_glide_lipo>
-2.88972920213824

> <r_i_glide_hbond>
-0.675576206887861

> <r_i_glide_metal>
0

> <r_i_glide_rewards>
-2.15024512661351

> <r_i_glide_evdw>
-42.0911674499512

> <r_i_glide_ecoul>
-6.77271699905396

> <r_i_glide_erotb>
0.391862106182413

> <r_i_glide_esite>
-0.0692342876873669

> <r_i_glide_emodel>
-72.8078464571678

> <r_i_glide_energy>
-48.8638844490051

> <r_i_glide_einternal>
2.35527110099792

> <i_i_glide_confnum>
3

> <i_i_glide_posenum>
179

> <r_i_glide_eff_state_penalty>
0

> <s_user_duplicate_titles>
CHEMBL3231_lig819

> <i_f3d_flags>
0

> <s_m_subgroup_title>
dock_pv

> <s_m_subgroupid>
dock_pv

> <b_m_subgroup_collapsed>
1

$$$$
CHEMBL3231_lig578
                    3D
 Schrodinger Suite 2021-1.
 40 42  0  0  1  0            999 V2000
   51.4050   97.6365   30.4129 C   0  0  0  0  0  0
   51.2428   98.3972   29.2185 O   0  0  0  0  0  0
   51.3162   99.7801   29.2539 C   0  0  0  0  0  0
   51.6438  100.4931   30.4233 C   0  0  0  0  0  0
   51.6436  101.8985   30.4559 C   0  0  0  0  0  0
   51.3809  102.5841   29.2657 C   0  0  0  0  0  0
   51.0639  101.8950   28.1033 C   0  0  0  0  0  0
   51.0018  100.4983   28.0819 C   0  0  0  0  0  0
   50.5392   99.8606   26.8021 C   0  0  0  0  0  0
   50.5833   98.5139   26.3898 C   0  0  0  0  0  0
   50.0435   98.3025   25.2121 N   0  0  0  0  0  0
   49.6462   99.5080   24.8109 N   0  0  0  0  0  0
   49.9264  100.4847   25.7196 C   0  0  0  0  0  0
   51.8341  102.6863   31.7365 C   0  0  0  0  0  0
   51.6430  103.9029   31.7454 O   0  0  0  0  0  0
   52.1580  102.0050   32.8518 N   0  0  0  0  0  0
   52.3019  102.5981   34.1864 C   0  0  0  0  0  0
   51.0261  103.2216   34.7655 C   0  0  0  0  0  0
   50.9322  104.6159   34.8679 C   0  0  0  0  0  0
   49.8027  105.2124   35.4307 C   0  0  0  0  0  0
   48.7580  104.4206   35.9058 C   0  0  0  0  0  0
   48.8467  103.0321   35.8208 C   0  0  0  0  0  0
   49.9753  102.4295   35.2609 C   0  0  0  0  0  0
   50.0421  100.7035   35.2095 Cl  0  0  0  0  0  0
   51.2435   96.5812   30.1918 H   0  0  0  0  0  0
   52.4126   97.7373   30.8177 H   0  0  0  0  0  0
   50.6789   97.9204   31.1763 H   0  0  0  0  0  0
   51.8522   99.9467   31.3288 H   0  0  0  0  0  0
   51.3900  103.6650   29.2337 H   0  0  0  0  0  0
   50.8416  102.4707   27.2185 H   0  0  0  0  0  0
   51.0011   97.6901   26.9494 H   0  0  0  0  0  0
   49.2014   99.6615   23.9099 H   0  0  0  0  0  0
   49.6502  101.5104   25.5249 H   0  0  0  0  0  0
   52.3934  101.0284   32.7639 H   0  0  0  0  0  0
   53.1102  103.3329   34.1622 H   0  0  0  0  0  0
   52.6508  101.8239   34.8716 H   0  0  0  0  0  0
   51.7355  105.2435   34.5037 H   0  0  0  0  0  0
   49.7420  106.2887   35.5015 H   0  0  0  0  0  0
   47.8822  104.8787   36.3427 H   0  0  0  0  0  0
   48.0420  102.4185   36.1995 H   0  0  0  0  0  0
  1  2  1  0  0  0
  1 25  1  0  0  0
  1 26  1  0  0  0
  1 27  1  0  0  0
  2  3  1  0  0  0
  3  4  2  0  0  0
  3  8  1  0  0  0
  4  5  1  0  0  0
  4 28  1  0  0  0
  5  6  2  0  0  0
  5 14  1  0  0  0
  6  7  1  0  0  0
  6 29  1  0  0  0
  7  8  2  0  0  0
  7 30  1  0  0  0
  8  9  1  0  0  0
  9 10  1  0  0  0
  9 13  2  0  0  0
 10 11  2  0  0  0
 10 31  1  0  0  0
 11 12  1  0  0  0
 12 13  1  0  0  0
 12 32  1  0  0  0
 13 33  1  0  0  0
 14 15  2  0  0  0
 14 16  1  0  0  0
 16 17  1  0  0  0
 16 34  1  0  0  0
 17 18  1  0  0  0
 17 35  1  0  0  0
 17 36  1  0  0  0
 18 19  2  0  0  0
 18 23  1  0  0  0
 19 20  1  0  0  0
 19 37  1  0  0  0
 20 21  2  0  0  0
 20 38  1  0  0  0
 21 22  1  0  0  0
 21 39  1  0  0  0
 22 23  2  0  0  0
 22 40  1  0  0  0
 23 24  1  0  0  0
M  END
> <s_m_entry_id>
27922

> <s_m_entry_name>
dock_pv.83

> <s_m_Source_Path>
/home/csk/Desktop/cluster/DUD-E-result/rock1

> <s_m_Source_File>
dock_pv.maegz

> <i_m_Source_File_Index>
83

> <chembl_id>
CHEMBL3960736

> <chembl_pref_name>
None

> <i_lp_mmshare_version>
53161

> <r_lp_tautomer_probability>
0.5

> <s_lp_Force_Field>
OPLS_2005

> <r_lp_Energy>
21.515714

> <b_lp_Chiralities_Consistent>
1

> <s_lp_Variant>
CHEMBL3231_lig578-1

> <s_i_glide_gridfile>
glide-grid_2etr

> <i_i_glide_lignum>
857

> <i_i_glide_rotatable_bonds>
6

> <r_i_docking_score>
-8.51240034481062

> <r_i_glide_ligand_efficiency>
-0.354683347700443

> <r_i_glide_ligand_efficiency_sa>
-1.02308381054851

> <r_i_glide_ligand_efficiency_ln>
-2.03740801111261

> <r_i_glide_gscore>
-8.51240034481062

> <r_i_glide_lipo>
-2.93829902260943

> <r_i_glide_hbond>
-0.674703430958224

> <r_i_glide_metal>
0

> <r_i_glide_rewards>
-2.05209304071123

> <r_i_glide_evdw>
-42.0962524414062

> <r_i_glide_ecoul>
-7.60450887680054

> <r_i_glide_erotb>
0.4543035052958

> <r_i_glide_esite>
-0.056119402237145

> <r_i_glide_emodel>
-73.7419357555814

> <r_i_glide_energy>
-49.7007613182068

> <r_i_glide_einternal>
2.81457734107971

> <i_i_glide_confnum>
13

> <i_i_glide_posenum>
248

> <r_i_glide_eff_state_penalty>
0

> <s_user_duplicate_titles>
CHEMBL3231_lig578

> <i_f3d_flags>
0

> <s_m_subgroup_title>
dock_pv

> <s_m_subgroupid>
dock_pv

> <b_m_subgroup_collapsed>
1

$$$$
CHEMBL3231_lig686
                    3D
 Schrodinger Suite 2021-1.
 46 48  0  0  1  0            999 V2000
   51.4242   97.5222   30.3658 C   0  0  0  0  0  0
   51.2433   98.3103   29.1907 O   0  0  0  0  0  0
   51.3578   99.6909   29.2493 C   0  0  0  0  0  0
   51.7693  100.3640   30.4150 C   0  0  0  0  0  0
   51.8094  101.7647   30.4750 C   0  0  0  0  0  0
   51.4651  102.4966   29.3365 C   0  0  0  0  0  0
   51.0735  101.8444   28.1727 C   0  0  0  0  0  0
   51.0099  100.4480   28.1089 C   0  0  0  0  0  0
   50.5311   99.8406   26.8188 C   0  0  0  0  0  0
   50.5745   98.4995   26.3934 C   0  0  0  0  0  0
   50.0426   98.3020   25.2107 N   0  0  0  0  0  0
   49.6544   99.5145   24.8110 N   0  0  0  0  0  0
   49.9301  100.4810   25.7363 C   0  0  0  0  0  0
   52.1608  102.4951   31.7484 C   0  0  0  0  0  0
   51.6431  103.5834   32.0045 O   0  0  0  0  0  0
   53.0573  101.8927   32.5504 N   0  0  0  0  0  0
   53.5784  102.4259   33.8111 C   0  0  2  0  0  0
   55.0731  102.0855   33.9209 C   0  0  0  0  0  0
   52.7870  101.9214   35.0492 C   0  0  0  0  0  0
   51.3802  102.4962   35.2226 C   0  0  0  0  0  0
   51.1937  103.8815   35.3007 C   0  0  0  0  0  0
   49.9209  104.4051   35.5124 C   0  0  0  0  0  0
   48.8340  103.5450   35.6516 C   0  0  0  0  0  0
   47.6012  104.0586   35.8616 F   0  0  0  0  0  0
   49.0082  102.1648   35.5763 C   0  0  0  0  0  0
   50.2819  101.6389   35.3597 C   0  0  0  0  0  0
   51.2422   96.4761   30.1246 H   0  0  0  0  0  0
   52.4430   97.5968   30.7510 H   0  0  0  0  0  0
   50.7201   97.8032   31.1508 H   0  0  0  0  0  0
   52.0218   99.7990   31.3005 H   0  0  0  0  0  0
   51.4939  103.5760   29.3455 H   0  0  0  0  0  0
   50.8127  102.4476   27.3161 H   0  0  0  0  0  0
   50.9901   97.6662   26.9411 H   0  0  0  0  0  0
   49.2198   99.6769   23.9058 H   0  0  0  0  0  0
   49.6638  101.5104   25.5505 H   0  0  0  0  0  0
   53.5270  101.0740   32.1918 H   0  0  0  0  0  0
   53.5272  103.5191   33.7829 H   0  0  0  0  0  0
   55.4909  102.4482   34.8611 H   0  0  0  0  0  0
   55.2484  101.0082   33.8994 H   0  0  0  0  0  0
   55.6430  102.5544   33.1177 H   0  0  0  0  0  0
   53.3325  102.1834   35.9586 H   0  0  0  0  0  0
   52.7465  100.8313   35.0372 H   0  0  0  0  0  0
   52.0351  104.5528   35.2055 H   0  0  0  0  0  0
   49.7794  105.4726   35.5786 H   0  0  0  0  0  0
   48.1596  101.5069   35.6931 H   0  0  0  0  0  0
   50.4134  100.5665   35.3120 H   0  0  0  0  0  0
  1  2  1  0  0  0
  1 27  1  0  0  0
  1 28  1  0  0  0
  1 29  1  0  0  0
  2  3  1  0  0  0
  3  4  2  0  0  0
  3  8  1  0  0  0
  4  5  1  0  0  0
  4 30  1  0  0  0
  5  6  2  0  0  0
  5 14  1  0  0  0
  6  7  1  0  0  0
  6 31  1  0  0  0
  7  8  2  0  0  0
  7 32  1  0  0  0
  8  9  1  0  0  0
  9 10  1  0  0  0
  9 13  2  0  0  0
 10 11  2  0  0  0
 10 33  1  0  0  0
 11 12  1  0  0  0
 12 13  1  0  0  0
 12 34  1  0  0  0
 13 35  1  0  0  0
 14 15  2  0  0  0
 14 16  1  0  0  0
 16 17  1  0  0  0
 16 36  1  0  0  0
 17 18  1  0  0  0
 17 19  1  0  0  0
 17 37  1  0  0  0
 18 38  1  0  0  0
 18 39  1  0  0  0
 18 40  1  0  0  0
 19 20  1  0  0  0
 19 41  1  0  0  0
 19 42  1  0  0  0
 20 21  2  0  0  0
 20 26  1  0  0  0
 21 22  1  0  0  0
 21 43  1  0  0  0
 22 23  2  0  0  0
 22 44  1  0  0  0
 23 24  1  0  0  0
 23 25  1  0  0  0
 25 26  2  0  0  0
 25 45  1  0  0  0
 26 46  1  0  0  0
M  END
> <s_m_entry_id>
27923

> <s_m_entry_name>
dock_pv.84

> <s_m_Source_Path>
/home/csk/Desktop/cluster/DUD-E-result/rock1

> <s_m_Source_File>
dock_pv.maegz

> <i_m_Source_File_Index>
84

> <chembl_id>
CHEMBL3969281

> <chembl_pref_name>
None

> <i_lp_mmshare_version>
53161

> <r_lp_tautomer_probability>
0.5

> <s_lp_Force_Field>
OPLS_2005

> <r_lp_Energy>
22.465105

> <b_lp_Chiralities_Consistent>
1

> <s_lp_Variant>
CHEMBL3231_lig686-1

> <s_i_glide_gridfile>
glide-grid_2etr

> <i_i_glide_lignum>
979

> <i_i_glide_rotatable_bonds>
7

> <r_i_docking_score>
-8.50799977094118

> <r_i_glide_ligand_efficiency>
-0.327230760420815

> <r_i_glide_ligand_efficiency_sa>
-0.969419840155796

> <r_i_glide_ligand_efficiency_ln>
-1.99807582918127

> <r_i_glide_gscore>
-8.50799977094118

> <r_i_glide_lipo>
-2.73125659944756

> <r_i_glide_hbond>
-0.641444282201535

> <r_i_glide_metal>
0

> <r_i_glide_rewards>
-2.40057413605868

> <r_i_glide_evdw>
-43.0740432739258

> <r_i_glide_ecoul>
-7.12888050079346

> <r_i_glide_erotb>
0.535189655416469

> <r_i_glide_esite>
-0.0468801698345592

> <r_i_glide_emodel>
-74.4427120296403

> <r_i_glide_energy>
-50.2029237747192

> <r_i_glide_einternal>
4.58101081848145

> <i_i_glide_confnum>
67

> <i_i_glide_posenum>
347

> <r_i_glide_eff_state_penalty>
0

> <s_user_duplicate_titles>
CHEMBL3231_lig686

> <i_f3d_flags>
0

> <s_m_subgroup_title>
dock_pv

> <s_m_subgroupid>
dock_pv

> <b_m_subgroup_collapsed>
1

$$$$
CHEMBL3231_lig784
                    3D
 Schrodinger Suite 2021-1.
 43 45  0  0  1  0            999 V2000
   50.2445  104.6668   28.5068 C   0  0  0  0  0  0
   50.8454  103.9025   29.5530 O   0  0  0  0  0  0
   51.1191  102.5561   29.3693 C   0  0  0  0  0  0
   50.7615  101.8921   28.1863 C   0  0  0  0  0  0
   51.0207  100.5355   27.9908 C   0  0  0  0  0  0
   51.6784   99.8255   28.9919 C   0  0  0  0  0  0
   52.0399  100.4585   30.1761 C   0  0  0  0  0  0
   51.7610  101.8224   30.3967 C   0  0  0  0  0  0
   52.0870  102.4566   31.7401 C   0  0  0  0  0  0
   51.6255  103.5490   32.0646 O   0  0  0  0  0  0
   52.8456  101.7373   32.5917 N   0  0  0  0  0  0
   53.1182  102.0805   33.9943 C   0  0  2  0  0  0
   54.0686  101.0459   34.6168 C   0  0  0  0  0  0
   51.8543  102.2689   34.8529 C   0  0  0  0  0  0
   50.8370  101.2989   34.8624 C   0  0  0  0  0  0
   50.9593  100.1620   34.1394 F   0  0  0  0  0  0
   49.6770  101.4966   35.6111 C   0  0  0  0  0  0
   49.5196  102.6562   36.3700 C   0  0  0  0  0  0
   50.5306  103.6163   36.3826 C   0  0  0  0  0  0
   51.6925  103.4264   35.6310 C   0  0  0  0  0  0
   52.6592  104.3731   35.6674 F   0  0  0  0  0  0
   50.5665   99.8710   26.7362 C   0  0  0  0  0  0
   50.0318  100.4754   25.6061 C   0  0  0  0  0  0
   49.7219   99.4640   24.7464 N   0  0  0  0  0  0
   50.0456   98.2587   25.2168 N   0  0  0  0  0  0
   50.5549   98.5020   26.4025 C   0  0  0  0  0  0
   50.1492  105.7079   28.8131 H   0  0  0  0  0  0
   50.8430  104.6543   27.5969 H   0  0  0  0  0  0
   49.2420  104.3063   28.2802 H   0  0  0  0  0  0
   50.2479  102.4238   27.4025 H   0  0  0  0  0  0
   51.8929   98.7751   28.8732 H   0  0  0  0  0  0
   52.5200   99.8517   30.9328 H   0  0  0  0  0  0
   53.3989  100.9868   32.2072 H   0  0  0  0  0  0
   53.6684  103.0252   33.9653 H   0  0  0  0  0  0
   54.3526  101.3312   35.6326 H   0  0  0  0  0  0
   53.6106  100.0561   34.6662 H   0  0  0  0  0  0
   54.9905  100.9536   34.0401 H   0  0  0  0  0  0
   48.9018  100.7458   35.6035 H   0  0  0  0  0  0
   48.6190  102.8033   36.9499 H   0  0  0  0  0  0
   50.4194  104.5144   36.9734 H   0  0  0  0  0  0
   49.8199  101.5046   25.3506 H   0  0  0  0  0  0
   49.2910   99.5909   23.8346 H   0  0  0  0  0  0
   50.9026   97.6939   27.0270 H   0  0  0  0  0  0
  1  2  1  0  0  0
  1 27  1  0  0  0
  1 28  1  0  0  0
  1 29  1  0  0  0
  2  3  1  0  0  0
  3  4  2  0  0  0
  3  8  1  0  0  0
  4  5  1  0  0  0
  4 30  1  0  0  0
  5  6  2  0  0  0
  5 22  1  0  0  0
  6  7  1  0  0  0
  6 31  1  0  0  0
  7  8  2  0  0  0
  7 32  1  0  0  0
  8  9  1  0  0  0
  9 10  2  0  0  0
  9 11  1  0  0  0
 11 12  1  0  0  0
 11 33  1  0  0  0
 12 13  1  0  0  0
 12 14  1  0  0  0
 12 34  1  0  0  0
 13 35  1  0  0  0
 13 36  1  0  0  0
 13 37  1  0  0  0
 14 15  2  0  0  0
 14 20  1  0  0  0
 15 16  1  0  0  0
 15 17  1  0  0  0
 17 18  2  0  0  0
 17 38  1  0  0  0
 18 19  1  0  0  0
 18 39  1  0  0  0
 19 20  2  0  0  0
 19 40  1  0  0  0
 20 21  1  0  0  0
 22 23  2  0  0  0
 22 26  1  0  0  0
 23 24  1  0  0  0
 23 41  1  0  0  0
 24 25  1  0  0  0
 24 42  1  0  0  0
 25 26  2  0  0  0
 26 43  1  0  0  0
M  END
> <s_m_entry_id>
27924

> <s_m_entry_name>
dock_pv.85

> <s_m_Source_Path>
/home/csk/Desktop/cluster/DUD-E-result/rock1

> <s_m_Source_File>
dock_pv.maegz

> <i_m_Source_File_Index>
85

> <chembl_id>
CHEMBL3894616

> <chembl_pref_name>
None

> <i_lp_mmshare_version>
53161

> <r_lp_tautomer_probability>
0.5

> <s_lp_Force_Field>
OPLS_2005

> <r_lp_Energy>
23.2645

> <b_lp_Chiralities_Consistent>
1

> <s_lp_Variant>
CHEMBL3231_lig784-1

> <s_i_glide_gridfile>
glide-grid_2etr

> <i_i_glide_lignum>
1108

> <i_i_glide_rotatable_bonds>
6

> <r_i_docking_score>
-8.50083871854256

> <r_i_glide_ligand_efficiency>
-0.32695533532856

> <r_i_glide_ligand_efficiency_sa>
-0.968603894403738

> <r_i_glide_ligand_efficiency_ln>
-1.99639407952279

> <r_i_glide_gscore>
-8.50083871854256

> <r_i_glide_lipo>
-2.75356424990894

> <r_i_glide_hbond>
-0.721164327533795

> <r_i_glide_metal>
0

> <r_i_glide_rewards>
-2.19210987513853

> <r_i_glide_evdw>
-42.013557434082

> <r_i_glide_ecoul>
-7.36585712432861

> <r_i_glide_erotb>
0.419732904482184

> <r_i_glide_esite>
-0.0481767300900855

> <r_i_glide_emodel>
-74.6703831575753

> <r_i_glide_energy>
-49.3794145584106

> <r_i_glide_einternal>
0.789998710155487

> <i_i_glide_confnum>
12

> <i_i_glide_posenum>
252

> <r_i_glide_eff_state_penalty>
0

> <s_user_duplicate_titles>
CHEMBL3231_lig784

> <i_f3d_flags>
0

> <s_m_subgroup_title>
dock_pv

> <s_m_subgroupid>
dock_pv

> <b_m_subgroup_collapsed>
1

$$$$
CHEMBL3231_lig2029
                    3D
 Schrodinger Suite 2021-1.
 49 51  0  0  1  0            999 V2000
   50.8460  101.5078   25.6112 F   0  0  0  0  0  0
   50.8429  104.0936   29.5237 O   0  0  0  0  0  0
   51.6429  103.9031   32.1186 O   0  0  0  0  0  0
   50.8483  102.0933   36.4098 O   0  0  0  0  0  0
   53.7776  103.1709   32.1411 N   0  0  0  0  0  0
   50.0430   98.0050   25.2116 N   0  0  0  0  0  0
   52.2389  102.3564   30.4237 C   0  0  0  0  0  0
   51.4931  100.6381   28.3057 C   0  0  0  0  0  0
   51.3386  102.8043   29.4380 C   0  0  0  0  0  0
   51.0378   99.7235   27.2148 C   0  0  0  0  0  0
   50.9529  101.9230   28.4224 C   0  0  0  0  0  0
   52.5362  103.2167   31.6269 C   0  0  0  0  0  0
   52.8034  101.0773   30.3057 C   0  0  0  0  0  0
   52.4409  100.2375   29.2552 C   0  0  0  0  0  0
   50.6882  100.2092   25.9409 C   0  0  0  0  0  0
   54.2596  104.0186   33.2439 C   0  0  1  0  0  0
   50.9188   98.3424   27.4365 C   0  0  0  0  0  0
   53.3935  104.0654   34.5178 C   0  0  0  0  0  0
   50.1764   99.3334   24.9884 C   0  0  0  0  0  0
   52.5872  102.9855   34.9066 C   0  0  0  0  0  0
   50.4420   97.5242   26.4108 C   0  0  0  0  0  0
   51.7244  103.0839   36.0105 C   0  0  0  0  0  0
   53.3572  105.2416   35.2758 C   0  0  0  0  0  0
   51.7191  104.2639   36.7550 C   0  0  0  0  0  0
   52.5337  105.3377   36.3955 C   0  0  0  0  0  0
   55.6993  103.6363   33.5968 C   0  0  0  0  0  0
   50.1958  104.6919   28.4076 C   0  0  0  0  0  0
   50.7163  100.9229   35.6090 C   0  0  0  0  0  0
   54.4968  102.7459   31.5754 H   0  0  0  0  0  0
   50.2053  102.2417   27.7136 H   0  0  0  0  0  0
   53.5068  100.7096   31.0410 H   0  0  0  0  0  0
   52.8911   99.2577   29.2007 H   0  0  0  0  0  0
   54.2792  105.0346   32.8369 H   0  0  0  0  0  0
   51.1850   97.9027   28.3861 H   0  0  0  0  0  0
   49.8851   99.6948   24.0119 H   0  0  0  0  0  0
   52.6167  102.0846   34.3165 H   0  0  0  0  0  0
   50.3774   96.4542   26.5332 H   0  0  0  0  0  0
   53.9549  106.0945   34.9849 H   0  0  0  0  0  0
   51.0646  104.3543   37.6095 H   0  0  0  0  0  0
   52.5089  106.2536   36.9707 H   0  0  0  0  0  0
   56.1137  104.3068   34.3474 H   0  0  0  0  0  0
   55.7488  102.6217   33.9936 H   0  0  0  0  0  0
   56.3405  103.6943   32.7166 H   0  0  0  0  0  0
   49.9944  105.7405   28.6315 H   0  0  0  0  0  0
   50.8204  104.6619   27.5146 H   0  0  0  0  0  0
   49.2428  104.2134   28.1966 H   0  0  0  0  0  0
   49.9169  100.3030   36.0110 H   0  0  0  0  0  0
   50.4521  101.1656   34.5794 H   0  0  0  0  0  0
   51.6328  100.3296   35.6152 H   0  0  0  0  0  0
  1 15  1  0  0  0
  2  9  1  0  0  0
  2 27  1  0  0  0
  3 12  2  0  0  0
  4 22  1  0  0  0
  4 28  1  0  0  0
  5 12  1  0  0  0
  5 16  1  0  0  0
  5 29  1  0  0  0
  6 19  1  0  0  0
  6 21  2  0  0  0
  7  9  1  0  0  0
  7 12  1  0  0  0
  7 13  2  0  0  0
  8 10  1  0  0  0
  8 11  1  0  0  0
  8 14  2  0  0  0
  9 11  2  0  0  0
 10 15  1  0  0  0
 10 17  2  0  0  0
 11 30  1  0  0  0
 13 14  1  0  0  0
 13 31  1  0  0  0
 14 32  1  0  0  0
 15 19  2  0  0  0
 16 18  1  0  0  0
 16 26  1  0  0  0
 16 33  1  0  0  0
 17 21  1  0  0  0
 17 34  1  0  0  0
 18 20  2  0  0  0
 18 23  1  0  0  0
 19 35  1  0  0  0
 20 22  1  0  0  0
 20 36  1  0  0  0
 21 37  1  0  0  0
 22 24  2  0  0  0
 23 25  2  0  0  0
 23 38  1  0  0  0
 24 25  1  0  0  0
 24 39  1  0  0  0
 25 40  1  0  0  0
 26 41  1  0  0  0
 26 42  1  0  0  0
 26 43  1  0  0  0
 27 44  1  0  0  0
 27 45  1  0  0  0
 27 46  1  0  0  0
 28 47  1  0  0  0
 28 48  1  0  0  0
 28 49  1  0  0  0
M  END
> <s_m_entry_id>
27925

> <s_m_entry_name>
dock_pv.86

> <s_m_Source_Path>
/home/csk/Desktop/cluster/DUD-E-result/rock1

> <s_m_Source_File>
dock_pv.maegz

> <i_m_Source_File_Index>
86

> <chembl_id>
CHEMBL1991188

> <chembl_pref_name>
None

> <i_lp_mmshare_version>
53161

> <r_lp_tautomer_probability>
1

> <s_lp_Force_Field>
OPLS_2005

> <r_lp_Energy>
24.543182

> <b_lp_Chiralities_Consistent>
1

> <s_lp_Variant>
CHEMBL3231_lig2029-2

> <s_i_glide_gridfile>
glide-grid_2etr

> <i_i_glide_lignum>
2950

> <i_i_glide_rotatable_bonds>
7

> <r_i_docking_score>
-8.49271750623616

> <r_i_glide_ligand_efficiency>
-0.303311339508434

> <r_i_glide_ligand_efficiency_sa>
-0.921031867573124

> <r_i_glide_ligand_efficiency_ln>
-1.96036855746053

> <r_i_glide_gscore>
-8.49271750623616

> <r_i_glide_lipo>
-2.60039819849341

> <r_i_glide_hbond>
-0.526263307211612

> <r_i_glide_metal>
0

> <r_i_glide_rewards>
-2.61102367294208

> <r_i_glide_evdw>
-42.6579895019531

> <r_i_glide_ecoul>
-8.0910758972168

> <r_i_glide_erotb>
0.670297718318091

> <r_i_glide_esite>
-0.0787691862269762

> <r_i_glide_emodel>
-75.6983676152654

> <r_i_glide_energy>
-50.7490653991699

> <r_i_glide_einternal>
2.19516825675964

> <i_i_glide_confnum>
167

> <i_i_glide_posenum>
88

> <r_i_glide_eff_state_penalty>
0

> <s_user_duplicate_titles>
CHEMBL3231_lig2029

> <i_f3d_flags>
0

> <s_m_subgroup_title>
dock_pv

> <s_m_subgroupid>
dock_pv

> <b_m_subgroup_collapsed>
1

$$$$
CHEMBL3231_lig680
                    3D
 Schrodinger Suite 2021-1.
 40 42  0  0  1  0            999 V2000
   51.4138   97.6265   30.3995 C   0  0  0  0  0  0
   51.2430   98.3872   29.2056 O   0  0  0  0  0  0
   51.3525   99.7687   29.2349 C   0  0  0  0  0  0
   51.7347  100.4711   30.3924 C   0  0  0  0  0  0
   51.7688  101.8747   30.4262 C   0  0  0  0  0  0
   51.4614  102.5739   29.2563 C   0  0  0  0  0  0
   51.0928  101.8946   28.1021 C   0  0  0  0  0  0
   51.0224  100.4968   28.0736 C   0  0  0  0  0  0
   50.5425   99.8623   26.7988 C   0  0  0  0  0  0
   50.5856   98.5151   26.3865 C   0  0  0  0  0  0
   50.0431   98.3030   25.2113 N   0  0  0  0  0  0
   49.6462   99.5090   24.8111 N   0  0  0  0  0  0
   49.9236  100.4861   25.7201 C   0  0  0  0  0  0
   52.0428  102.6372   31.7027 C   0  0  0  0  0  0
   51.6431  103.7959   31.8327 O   0  0  0  0  0  0
   52.6781  101.9704   32.6839 N   0  0  0  0  0  0
   52.8087  102.4347   34.0664 C   0  0  0  0  0  0
   51.4697  102.5579   34.8071 C   0  0  0  0  0  0
   50.6697  101.4155   34.9612 C   0  0  0  0  0  0
   51.0780  100.2200   34.4779 F   0  0  0  0  0  0
   49.4405  101.4946   35.6108 C   0  0  0  0  0  0
   48.9928  102.7094   36.1208 C   0  0  0  0  0  0
   49.7799  103.8487   35.9829 C   0  0  0  0  0  0
   51.0140  103.7817   35.3332 C   0  0  0  0  0  0
   51.9350  105.2395   35.2081 Cl  0  0  0  0  0  0
   51.2416   96.5726   30.1812 H   0  0  0  0  0  0
   52.4274   97.7191   30.7932 H   0  0  0  0  0  0
   50.6992   97.9204   31.1708 H   0  0  0  0  0  0
   51.9589   99.9204   31.2927 H   0  0  0  0  0  0
   51.4837  103.6556   29.2365 H   0  0  0  0  0  0
   50.8422  102.4771   27.2291 H   0  0  0  0  0  0
   51.0053   97.6913   26.9438 H   0  0  0  0  0  0
   49.2012   99.6617   23.9102 H   0  0  0  0  0  0
   49.6467  101.5120   25.5279 H   0  0  0  0  0  0
   53.0880  101.0751   32.4649 H   0  0  0  0  0  0
   53.3803  103.3632   34.0755 H   0  0  0  0  0  0
   53.4276  101.7200   34.6102 H   0  0  0  0  0  0
   48.8401  100.6054   35.7223 H   0  0  0  0  0  0
   48.0431  102.7636   36.6309 H   0  0  0  0  0  0
   49.4328  104.7911   36.3817 H   0  0  0  0  0  0
  1  2  1  0  0  0
  1 26  1  0  0  0
  1 27  1  0  0  0
  1 28  1  0  0  0
  2  3  1  0  0  0
  3  4  2  0  0  0
  3  8  1  0  0  0
  4  5  1  0  0  0
  4 29  1  0  0  0
  5  6  2  0  0  0
  5 14  1  0  0  0
  6  7  1  0  0  0
  6 30  1  0  0  0
  7  8  2  0  0  0
  7 31  1  0  0  0
  8  9  1  0  0  0
  9 10  1  0  0  0
  9 13  2  0  0  0
 10 11  2  0  0  0
 10 32  1  0  0  0
 11 12  1  0  0  0
 12 13  1  0  0  0
 12 33  1  0  0  0
 13 34  1  0  0  0
 14 15  2  0  0  0
 14 16  1  0  0  0
 16 17  1  0  0  0
 16 35  1  0  0  0
 17 18  1  0  0  0
 17 36  1  0  0  0
 17 37  1  0  0  0
 18 19  2  0  0  0
 18 24  1  0  0  0
 19 20  1  0  0  0
 19 21  1  0  0  0
 21 22  2  0  0  0
 21 38  1  0  0  0
 22 23  1  0  0  0
 22 39  1  0  0  0
 23 24  2  0  0  0
 23 40  1  0  0  0
 24 25  1  0  0  0
M  END
> <s_m_entry_id>
27926

> <s_m_entry_name>
dock_pv.87

> <s_m_Source_Path>
/home/csk/Desktop/cluster/DUD-E-result/rock1

> <s_m_Source_File>
dock_pv.maegz

> <i_m_Source_File_Index>
87

> <chembl_id>
CHEMBL3960608

> <chembl_pref_name>
None

> <i_lp_mmshare_version>
53161

> <r_lp_tautomer_probability>
0.5

> <s_lp_Force_Field>
OPLS_2005

> <r_lp_Energy>
21.888217

> <b_lp_Chiralities_Consistent>
1

> <s_lp_Variant>
CHEMBL3231_lig680-1

> <s_i_glide_gridfile>
glide-grid_2etr

> <i_i_glide_lignum>
973

> <i_i_glide_rotatable_bonds>
6

> <r_i_docking_score>
-8.48396947229143

> <r_i_glide_ligand_efficiency>
-0.339358778891657

> <r_i_glide_ligand_efficiency_sa>
-0.992291088032777

> <r_i_glide_ligand_efficiency_ln>
-2.01095500898192

> <r_i_glide_gscore>
-8.48396947229143

> <r_i_glide_lipo>
-2.89765386988358

> <r_i_glide_hbond>
-0.675897142724341

> <r_i_glide_metal>
0

> <r_i_glide_rewards>
-2.19065780671474

> <r_i_glide_evdw>
-41.8208961486816

> <r_i_glide_ecoul>
-6.61330413818359

> <r_i_glide_erotb>
0.414699353202597

> <r_i_glide_esite>
-0.051419578009754

> <r_i_glide_emodel>
-71.3504067093226

> <r_i_glide_energy>
-48.4342002868652

> <r_i_glide_einternal>
3.3648989200592

> <i_i_glide_confnum>
15

> <i_i_glide_posenum>
127

> <r_i_glide_eff_state_penalty>
0

> <s_user_duplicate_titles>
CHEMBL3231_lig680

> <i_f3d_flags>
0

> <s_m_subgroup_title>
dock_pv

> <s_m_subgroupid>
dock_pv

> <b_m_subgroup_collapsed>
1

$$$$
CHEMBL3231_lig217
                    3D
 Schrodinger Suite 2021-1.
 43 46  0  0  1  0            999 V2000
   52.8583  103.1726   31.1181 C   0  0  0  0  0  0
   53.0065  103.1343   32.4981 C   0  0  0  0  0  0
   52.7298  101.9809   33.2286 C   0  0  0  0  0  0
   52.3314  100.8145   32.5610 C   0  0  0  0  0  0
   52.3917  102.0209   30.4725 C   0  0  0  0  0  0
   52.1408  100.8069   31.1652 C   0  0  0  0  0  0
   51.7033   99.7466   30.2908 C   0  0  0  0  0  0
   51.5578  100.1803   28.9628 C   0  0  0  0  0  0
   52.0247  101.8699   28.7840 S   0  0  0  0  0  0
   51.4266   98.3515   30.8316 C   0  0  0  0  0  0
   51.0512   99.4450   27.7314 C   0  0  0  0  0  0
   50.7833  100.2041   26.6258 N   0  0  0  0  0  0
   50.3018   99.5684   25.5283 C   0  0  0  0  0  0
   50.0672   98.2441   25.4133 N   0  0  0  0  0  0
   50.3684   97.5023   26.5033 C   0  0  0  0  0  0
   50.8515   98.0561   27.6887 C   0  0  0  0  0  0
   50.0436  100.3358   24.4114 N   0  0  0  0  0  0
   52.8411  102.0232   34.7583 C   0  0  1  0  0  0
   51.4939  102.3524   35.4025 C   0  0  0  0  0  0
   50.4695  101.3979   35.4508 C   0  0  0  0  0  0
   49.2302  101.7195   35.9929 C   0  0  0  0  0  0
   49.0018  102.9936   36.5089 C   0  0  0  0  0  0
   50.0201  103.9433   36.4895 C   0  0  0  0  0  0
   51.2606  103.6286   35.9303 C   0  0  0  0  0  0
   49.7374  105.5028   37.1712 Cl  0  0  0  0  0  0
   53.3989  100.7941   35.3080 N   0  0  0  0  0  0
   53.0770  104.0764   30.5674 H   0  0  0  0  0  0
   53.3328  104.0289   33.0090 H   0  0  0  0  0  0
   52.1480   99.9282   33.1456 H   0  0  0  0  0  0
   52.1630   97.6310   30.4705 H   0  0  0  0  0  0
   51.4634   98.2804   31.9179 H   0  0  0  0  0  0
   50.4367   97.9938   30.5439 H   0  0  0  0  0  0
   50.2216   96.4359   26.4111 H   0  0  0  0  0  0
   51.0788   97.4027   28.5087 H   0  0  0  0  0  0
   50.1430  101.3331   24.5042 H   0  0  0  0  0  0
   49.4935   99.9398   23.6566 H   0  0  0  0  0  0
   53.5518  102.8086   35.0241 H   0  0  0  0  0  0
   50.6316  100.4079   35.0521 H   0  0  0  0  0  0
   48.4446  100.9834   36.0164 H   0  0  0  0  0  0
   48.0372  103.2349   36.9331 H   0  0  0  0  0  0
   52.0369  104.3792   35.9042 H   0  0  0  0  0  0
   54.2585  100.5773   34.8203 H   0  0  0  0  0  0
   53.6524  100.9381   36.2773 H   0  0  0  0  0  0
  1  5  2  0  0  0
  1  2  1  0  0  0
  1 27  1  0  0  0
  2  3  2  0  0  0
  2 28  1  0  0  0
  3 18  1  0  0  0
  3  4  1  0  0  0
  4  6  2  0  0  0
  4 29  1  0  0  0
  5  9  1  0  0  0
  5  6  1  0  0  0
  6  7  1  0  0  0
  7  8  2  0  0  0
  7 10  1  0  0  0
  8 11  1  0  0  0
  8  9  1  0  0  0
 10 30  1  0  0  0
 10 31  1  0  0  0
 10 32  1  0  0  0
 11 16  1  0  0  0
 11 12  2  0  0  0
 12 13  1  0  0  0
 13 14  2  0  0  0
 13 17  1  0  0  0
 14 15  1  0  0  0
 15 16  2  0  0  0
 15 33  1  0  0  0
 16 34  1  0  0  0
 17 35  1  0  0  0
 17 36  1  0  0  0
 18 19  1  0  0  0
 18 26  1  0  0  0
 18 37  1  0  0  0
 19 20  2  0  0  0
 19 24  1  0  0  0
 20 21  1  0  0  0
 20 38  1  0  0  0
 21 22  2  0  0  0
 21 39  1  0  0  0
 22 23  1  0  0  0
 22 40  1  0  0  0
 23 24  2  0  0  0
 23 25  1  0  0  0
 24 41  1  0  0  0
 26 42  1  0  0  0
 26 43  1  0  0  0
M  END
> <s_m_entry_id>
27927

> <s_m_entry_name>
dock_pv.88

> <s_m_Source_Path>
/home/csk/Desktop/cluster/DUD-E-result/rock1

> <s_m_Source_File>
dock_pv.maegz

> <i_m_Source_File_Index>
88

> <chembl_id>
CHEMBL1085035

> <chembl_pref_name>
None

> <i_lp_mmshare_version>
53161

> <r_lp_tautomer_probability>
0.999999987636

> <s_lp_Force_Field>
OPLS_2005

> <r_lp_Energy>
7.939172

> <b_lp_Chiralities_Consistent>
1

> <s_lp_Variant>
CHEMBL3231_lig217-2

> <s_i_glide_gridfile>
glide-grid_2etr

> <i_i_glide_lignum>
353

> <i_i_glide_rotatable_bonds>
3

> <r_i_docking_score>
-8.48363309373093

> <r_i_glide_ligand_efficiency>
-0.326293580528113

> <r_i_glide_ligand_efficiency_sa>
-0.966643448411292

> <r_i_glide_ligand_efficiency_ln>
-1.99235339499203

> <r_i_glide_gscore>
-8.48363309373093

> <r_i_glide_lipo>
-2.73281973336385

> <r_i_glide_hbond>
-0.447821891835504

> <r_i_glide_metal>
0

> <r_i_glide_rewards>
-2.41962998199186

> <r_i_glide_evdw>
-46.0804290771484

> <r_i_glide_ecoul>
-5.73484373092651

> <r_i_glide_erotb>
0.280886526956684

> <r_i_glide_esite>
0

> <r_i_glide_emodel>
-76.7042427489916

> <r_i_glide_energy>
-51.815272808075

> <r_i_glide_einternal>
1.46458911895752

> <i_i_glide_confnum>
13

> <i_i_glide_posenum>
311

> <r_i_glide_eff_state_penalty>
0

> <s_user_duplicate_titles>
CHEMBL3231_lig217

> <i_f3d_flags>
0

> <s_m_subgroup_title>
dock_pv

> <s_m_subgroupid>
dock_pv

> <b_m_subgroup_collapsed>
1

$$$$
CHEMBL3231_lig1118
                    3D
 Schrodinger Suite 2021-1.
 60 64  0  0  1  0            999 V2000
   50.4010  100.7048   35.1870 Cl  0  0  0  0  0  0
   51.5935  104.3032   33.6635 O   0  0  0  0  0  0
   50.0429   98.0208   24.8321 O   0  0  0  0  0  0
   55.6430   97.8064   33.1941 O   0  0  0  0  0  0
   52.0600  103.4574   30.8651 N   0  0  0  0  0  0
   52.6982  101.3365   31.0990 N   0  0  0  0  0  0
   50.4793   99.8687   26.9525 N   0  0  0  0  0  0
   53.4917  104.3257   34.8202 N   0  0  0  0  0  0
   55.2426  101.4213   32.4118 N   0  0  0  0  0  0
   51.5693  102.7091   29.8296 C   0  0  0  0  0  0
   52.7319  102.6105   31.6137 C   0  0  0  0  0  0
   51.9498  101.3540   29.9565 C   0  0  0  0  0  0
   53.4317  102.9522   32.8591 C   0  0  0  0  0  0
   50.8021  103.1108   28.7299 C   0  0  0  0  0  0
   50.8075  100.7813   27.9463 C   0  0  0  0  0  0
   51.5873  100.3735   29.0364 C   0  0  0  0  0  0
   54.6155  102.3542   33.2138 C   0  0  0  0  0  0
   52.7620  103.9224   33.7495 C   0  0  0  0  0  0
   50.4425  102.1276   27.8163 C   0  0  0  0  0  0
   55.2433  102.7522   34.4699 C   0  0  0  0  0  0
   50.4136  104.5414   28.4378 C   0  0  0  0  0  0
   54.6658  103.7339   35.1820 C   0  0  0  0  0  0
   50.1200   98.4642   27.2266 C   0  0  0  0  0  0
   49.8984  100.2740   25.6628 C   0  0  0  0  0  0
   55.8761  100.1643   32.8119 C   0  0  0  0  0  0
   54.8945   99.0051   33.0936 C   0  0  2  0  0  0
   54.0555   99.2777   34.3428 C   0  0  0  0  0  0
   50.5642   97.5480   26.0666 C   0  0  0  0  0  0
   50.4294   99.3640   24.5677 C   0  0  0  0  0  0
   52.7319   99.7206   34.2239 C   0  0  0  0  0  0
   54.6279   99.1759   35.6172 C   0  0  0  0  0  0
   52.0097  100.1014   35.3543 C   0  0  0  0  0  0
   53.8991   99.5355   36.7500 C   0  0  0  0  0  0
   52.5958  100.0107   36.6162 C   0  0  0  0  0  0
   56.3562   97.8231   32.5390 H   0  0  0  0  0  0
   53.2012  100.5739   31.5274 H   0  0  0  0  0  0
   53.0093  104.9793   35.4161 H   0  0  0  0  0  0
   55.4960  101.6987   31.4659 H   0  0  0  0  0  0
   51.9318   99.3577   29.1500 H   0  0  0  0  0  0
   49.8493  102.4498   26.9762 H   0  0  0  0  0  0
   56.1503  102.2779   34.8145 H   0  0  0  0  0  0
   49.9254  104.6665   27.4714 H   0  0  0  0  0  0
   49.7691  104.9509   29.2097 H   0  0  0  0  0  0
   51.3369  105.1040   28.4113 H   0  0  0  0  0  0
   55.0299  104.0836   36.1382 H   0  0  0  0  0  0
   50.5952   98.0970   28.1349 H   0  0  0  0  0  0
   49.0448   98.3842   27.3931 H   0  0  0  0  0  0
   48.8110  100.2725   25.7009 H   0  0  0  0  0  0
   50.2171  101.2741   25.3752 H   0  0  0  0  0  0
   56.5074  100.3029   33.6899 H   0  0  0  0  0  0
   56.5584   99.8939   32.0055 H   0  0  0  0  0  0
   54.2300   98.8748   32.2380 H   0  0  0  0  0  0
   50.2175   96.5292   26.2343 H   0  0  0  0  0  0
   51.6504   97.5031   26.0099 H   0  0  0  0  0  0
   50.0428   99.6774   23.6106 H   0  0  0  0  0  0
   51.5074   99.5042   24.5193 H   0  0  0  0  0  0
   52.2686   99.8051   33.2539 H   0  0  0  0  0  0
   55.6487   98.8368   35.7251 H   0  0  0  0  0  0
   54.3495   99.4608   37.7289 H   0  0  0  0  0  0
   52.0425  100.3030   37.4962 H   0  0  0  0  0  0
  1 32  1  0  0  0
  2 18  2  0  0  0
  3 28  1  0  0  0
  3 29  1  0  0  0
  4 26  1  0  0  0
  4 35  1  0  0  0
  5 10  1  0  0  0
  5 11  2  0  0  0
  6 11  1  0  0  0
  6 12  1  0  0  0
  6 36  1  0  0  0
  7 15  1  0  0  0
  7 23  1  0  0  0
  7 24  1  0  0  0
  8 18  1  0  0  0
  8 22  1  0  0  0
  8 37  1  0  0  0
  9 17  1  0  0  0
  9 25  1  0  0  0
  9 38  1  0  0  0
 10 12  2  0  0  0
 10 14  1  0  0  0
 11 13  1  0  0  0
 12 16  1  0  0  0
 13 17  2  0  0  0
 13 18  1  0  0  0
 14 19  2  0  0  0
 14 21  1  0  0  0
 15 16  2  0  0  0
 15 19  1  0  0  0
 16 39  1  0  0  0
 17 20  1  0  0  0
 19 40  1  0  0  0
 20 22  2  0  0  0
 20 41  1  0  0  0
 21 42  1  0  0  0
 21 43  1  0  0  0
 21 44  1  0  0  0
 22 45  1  0  0  0
 23 28  1  0  0  0
 23 46  1  0  0  0
 23 47  1  0  0  0
 24 29  1  0  0  0
 24 48  1  0  0  0
 24 49  1  0  0  0
 25 26  1  0  0  0
 25 50  1  0  0  0
 25 51  1  0  0  0
 26 27  1  0  0  0
 26 52  1  0  0  0
 27 30  1  0  0  0
 27 31  2  0  0  0
 28 53  1  0  0  0
 28 54  1  0  0  0
 29 55  1  0  0  0
 29 56  1  0  0  0
 30 32  2  0  0  0
 30 57  1  0  0  0
 31 33  1  0  0  0
 31 58  1  0  0  0
 32 34  1  0  0  0
 33 34  2  0  0  0
 33 59  1  0  0  0
 34 60  1  0  0  0
M  END
> <s_m_entry_id>
27928

> <s_m_entry_name>
dock_pv.89

> <s_m_Source_Path>
/home/csk/Desktop/cluster/DUD-E-result/rock1

> <s_m_Source_File>
dock_pv.maegz

> <i_m_Source_File_Index>
89

> <chembl_id>
CHEMBL2005886

> <chembl_pref_name>
None

> <i_lp_mmshare_version>
53161

> <r_lp_tautomer_probability>
0.999206294981429

> <s_lp_Force_Field>
OPLS_2005

> <r_lp_Energy>
47.020338

> <b_lp_Chiralities_Consistent>
1

> <s_lp_Variant>
CHEMBL3231_lig1118-1

> <s_i_glide_gridfile>
glide-grid_2etr

> <i_i_glide_lignum>
1544

> <i_i_glide_rotatable_bonds>
7

> <r_i_docking_score>
-8.48252472204605

> <r_i_glide_ligand_efficiency>
-0.249486021236648

> <r_i_glide_ligand_efficiency_sa>
-0.808237857701965

> <r_i_glide_ligand_efficiency_ln>
-1.87402763785931

> <r_i_glide_gscore>
-8.48252472204605

> <r_i_glide_lipo>
-2.61377264530406

> <r_i_glide_hbond>
-0.681725983168828

> <r_i_glide_metal>
0

> <r_i_glide_rewards>
-1.24498101515151

> <r_i_glide_evdw>
-43.9230346679688

> <r_i_glide_ecoul>
-13.9509916305542

> <r_i_glide_erotb>
0.44008417089498

> <r_i_glide_esite>
-0.0933287713350639

> <r_i_glide_emodel>
-89.1258008828363

> <r_i_glide_energy>
-57.8740262985229

> <r_i_glide_einternal>
2.5097918510437

> <i_i_glide_confnum>
4

> <i_i_glide_posenum>
14

> <r_i_glide_eff_state_penalty>
0

> <s_user_duplicate_titles>
CHEMBL3231_lig1118

> <i_f3d_flags>
0

> <s_m_subgroup_title>
dock_pv

> <s_m_subgroupid>
dock_pv

> <b_m_subgroup_collapsed>
1

$$$$
CHEMBL3231_lig715
                    3D
 Schrodinger Suite 2021-1.
 43 45  0  0  1  0            999 V2000
   51.4315   97.6447   30.4108 C   0  0  0  0  0  0
   51.2431   98.4013   29.2166 O   0  0  0  0  0  0
   51.3540   99.7821   29.2406 C   0  0  0  0  0  0
   51.7394  100.4898   30.3940 C   0  0  0  0  0  0
   51.7795  101.8941   30.4197 C   0  0  0  0  0  0
   51.4681  102.5880   29.2478 C   0  0  0  0  0  0
   51.0936  101.9030   28.0988 C   0  0  0  0  0  0
   51.0208  100.5047   28.0766 C   0  0  0  0  0  0
   50.5396   99.8656   26.8017 C   0  0  0  0  0  0
   49.9221  100.4875   25.7206 C   0  0  0  0  0  0
   49.6470   99.5098   24.8110 N   0  0  0  0  0  0
   50.0449   98.3034   25.2121 N   0  0  0  0  0  0
   50.5820   98.5182   26.3904 C   0  0  0  0  0  0
   52.0597  102.6595   31.6938 C   0  0  0  0  0  0
   51.6430  103.8120   31.8370 O   0  0  0  0  0  0
   52.7287  102.0001   32.6570 N   0  0  0  0  0  0
   52.8965  102.4535   34.0414 C   0  0  2  0  0  0
   53.9220  101.5704   34.7725 C   0  0  0  0  0  0
   51.5725  102.5369   34.8221 C   0  0  0  0  0  0
   50.7009  101.4379   34.8860 C   0  0  0  0  0  0
   51.0019  100.2782   34.2584 F   0  0  0  0  0  0
   49.5037  101.5237   35.5967 C   0  0  0  0  0  0
   49.1619  102.7032   36.2540 C   0  0  0  0  0  0
   50.0192  103.7994   36.1988 C   0  0  0  0  0  0
   51.2184  103.7180   35.4900 C   0  0  0  0  0  0
   52.0323  104.7971   35.4638 F   0  0  0  0  0  0
   51.2440   96.5923   30.2001 H   0  0  0  0  0  0
   52.4533   97.7274   30.7856 H   0  0  0  0  0  0
   50.7342   97.9474   31.1938 H   0  0  0  0  0  0
   51.9637   99.9453   31.2977 H   0  0  0  0  0  0
   51.4928  103.6684   29.2234 H   0  0  0  0  0  0
   50.8423  102.4805   27.2232 H   0  0  0  0  0  0
   49.6465  101.5130   25.5241 H   0  0  0  0  0  0
   49.1997   99.6645   23.9118 H   0  0  0  0  0  0
   51.0000   97.6958   26.9506 H   0  0  0  0  0  0
   53.2315  101.1649   32.3949 H   0  0  0  0  0  0
   53.3436  103.4503   33.9873 H   0  0  0  0  0  0
   54.1096  101.9405   35.7808 H   0  0  0  0  0  0
   53.5854  100.5365   34.8569 H   0  0  0  0  0  0
   54.8801  101.5605   34.2504 H   0  0  0  0  0  0
   48.8420  100.6717   35.6367 H   0  0  0  0  0  0
   48.2352  102.7636   36.8060 H   0  0  0  0  0  0
   49.7613  104.7170   36.7068 H   0  0  0  0  0  0
  1  2  1  0  0  0
  1 27  1  0  0  0
  1 28  1  0  0  0
  1 29  1  0  0  0
  2  3  1  0  0  0
  3  4  2  0  0  0
  3  8  1  0  0  0
  4  5  1  0  0  0
  4 30  1  0  0  0
  5  6  2  0  0  0
  5 14  1  0  0  0
  6  7  1  0  0  0
  6 31  1  0  0  0
  7  8  2  0  0  0
  7 32  1  0  0  0
  8  9  1  0  0  0
  9 10  2  0  0  0
  9 13  1  0  0  0
 10 11  1  0  0  0
 10 33  1  0  0  0
 11 12  1  0  0  0
 11 34  1  0  0  0
 12 13  2  0  0  0
 13 35  1  0  0  0
 14 15  2  0  0  0
 14 16  1  0  0  0
 16 17  1  0  0  0
 16 36  1  0  0  0
 17 18  1  0  0  0
 17 19  1  0  0  0
 17 37  1  0  0  0
 18 38  1  0  0  0
 18 39  1  0  0  0
 18 40  1  0  0  0
 19 20  2  0  0  0
 19 25  1  0  0  0
 20 21  1  0  0  0
 20 22  1  0  0  0
 22 23  2  0  0  0
 22 41  1  0  0  0
 23 24  1  0  0  0
 23 42  1  0  0  0
 24 25  2  0  0  0
 24 43  1  0  0  0
 25 26  1  0  0  0
M  END
> <s_m_entry_id>
27929

> <s_m_entry_name>
dock_pv.90

> <s_m_Source_Path>
/home/csk/Desktop/cluster/DUD-E-result/rock1

> <s_m_Source_File>
dock_pv.maegz

> <i_m_Source_File_Index>
90

> <chembl_id>
CHEMBL3946084

> <chembl_pref_name>
None

> <i_lp_mmshare_version>
53161

> <r_lp_tautomer_probability>
0.5

> <s_lp_Force_Field>
OPLS_2005

> <r_lp_Energy>
21.911694

> <b_lp_Chiralities_Consistent>
1

> <s_lp_Variant>
CHEMBL3231_lig715-1

> <s_i_glide_gridfile>
glide-grid_2etr

> <i_i_glide_lignum>
1016

> <i_i_glide_rotatable_bonds>
6

> <r_i_docking_score>
-8.47618786799632

> <r_i_glide_ligand_efficiency>
-0.326007225692166

> <r_i_glide_ligand_efficiency_sa>
-0.965795123336552

> <r_i_glide_ligand_efficiency_ln>
-1.99060490815804

> <r_i_glide_gscore>
-8.47618786799632

> <r_i_glide_lipo>
-2.85660291356395

> <r_i_glide_hbond>
-0.674287182260943

> <r_i_glide_metal>
0

> <r_i_glide_rewards>
-2.23056617857163

> <r_i_glide_evdw>
-40.9255752563477

> <r_i_glide_ecoul>
-6.81613349914551

> <r_i_glide_erotb>
0.419732904482184

> <r_i_glide_esite>
-0.0657657103927661

> <r_i_glide_emodel>
-70.8441592264215

> <r_i_glide_energy>
-47.7417087554932

> <r_i_glide_einternal>
2.60707378387451

> <i_i_glide_confnum>
10

> <i_i_glide_posenum>
271

> <r_i_glide_eff_state_penalty>
0

> <s_user_duplicate_titles>
CHEMBL3231_lig715

> <i_f3d_flags>
0

> <s_m_subgroup_title>
dock_pv

> <s_m_subgroupid>
dock_pv

> <b_m_subgroup_collapsed>
1

$$$$
CHEMBL3231_lig732
                    3D
 Schrodinger Suite 2021-1.
 44 46  0  0  1  0            999 V2000
   51.3884   97.5127   30.3624 C   0  0  0  0  0  0
   51.2414   98.3066   29.1863 O   0  0  0  0  0  0
   51.3082   99.6875   29.2584 C   0  0  0  0  0  0
   51.6448  100.3632   30.4449 C   0  0  0  0  0  0
   51.6930  101.7644   30.5120 C   0  0  0  0  0  0
   51.4131  102.4923   29.3522 C   0  0  0  0  0  0
   51.0646  101.8422   28.1748 C   0  0  0  0  0  0
   50.9957  100.4447   28.1095 C   0  0  0  0  0  0
   50.5355   99.8379   26.8144 C   0  0  0  0  0  0
   49.9338  100.4779   25.7339 C   0  0  0  0  0  0
   49.6546   99.5091   24.8111 N   0  0  0  0  0  0
   50.0430   98.2985   25.2106 N   0  0  0  0  0  0
   50.5774   98.4962   26.3901 C   0  0  0  0  0  0
   51.9724  102.4902   31.8083 C   0  0  0  0  0  0
   51.6439  103.6693   31.9489 O   0  0  0  0  0  0
   52.5509  101.7725   32.7904 N   0  0  0  0  0  0
   52.7541  102.2159   34.1764 C   0  0  2  0  0  0
   53.7003  101.2613   34.9471 C   0  0  0  0  0  0
   53.2269   99.9296   35.0143 O   0  0  0  0  0  0
   51.4385  102.4864   34.9250 C   0  0  0  0  0  0
   51.2394  103.7315   35.5404 C   0  0  0  0  0  0
   50.0497  104.0131   36.2116 C   0  0  0  0  0  0
   49.0402  103.0522   36.2727 C   0  0  0  0  0  0
   49.2233  101.8134   35.6601 C   0  0  0  0  0  0
   50.4125  101.5268   34.9879 C   0  0  0  0  0  0
   50.5422  100.3170   34.3959 F   0  0  0  0  0  0
   51.2403   96.4640   30.1067 H   0  0  0  0  0  0
   52.3871   97.6082   30.7922 H   0  0  0  0  0  0
   50.6461   97.7683   31.1177 H   0  0  0  0  0  0
   51.8519   99.7903   31.3344 H   0  0  0  0  0  0
   51.4465  103.5742   29.3567 H   0  0  0  0  0  0
   50.8401  102.4435   27.3082 H   0  0  0  0  0  0
   49.6684  101.5078   25.5480 H   0  0  0  0  0  0
   49.2138   99.6713   23.9107 H   0  0  0  0  0  0
   50.9899   97.6639   26.9401 H   0  0  0  0  0  0
   52.9075  100.8557   32.5730 H   0  0  0  0  0  0
   53.2974  103.1646   34.1079 H   0  0  0  0  0  0
   54.6807  101.2412   34.4669 H   0  0  0  0  0  0
   53.8613  101.6255   35.9635 H   0  0  0  0  0  0
   53.8830   99.3886   35.4658 H   0  0  0  0  0  0
   52.0070  104.4907   35.4969 H   0  0  0  0  0  0
   49.9088  104.9756   36.6816 H   0  0  0  0  0  0
   48.1178  103.2627   36.7948 H   0  0  0  0  0  0
   48.4424  101.0708   35.7103 H   0  0  0  0  0  0
  1  2  1  0  0  0
  1 27  1  0  0  0
  1 28  1  0  0  0
  1 29  1  0  0  0
  2  3  1  0  0  0
  3  4  2  0  0  0
  3  8  1  0  0  0
  4  5  1  0  0  0
  4 30  1  0  0  0
  5  6  2  0  0  0
  5 14  1  0  0  0
  6  7  1  0  0  0
  6 31  1  0  0  0
  7  8  2  0  0  0
  7 32  1  0  0  0
  8  9  1  0  0  0
  9 10  2  0  0  0
  9 13  1  0  0  0
 10 11  1  0  0  0
 10 33  1  0  0  0
 11 12  1  0  0  0
 11 34  1  0  0  0
 12 13  2  0  0  0
 13 35  1  0  0  0
 14 15  2  0  0  0
 14 16  1  0  0  0
 16 17  1  0  0  0
 16 36  1  0  0  0
 17 18  1  0  0  0
 17 20  1  0  0  0
 17 37  1  0  0  0
 18 19  1  0  0  0
 18 38  1  0  0  0
 18 39  1  0  0  0
 19 40  1  0  0  0
 20 21  2  0  0  0
 20 25  1  0  0  0
 21 22  1  0  0  0
 21 41  1  0  0  0
 22 23  2  0  0  0
 22 42  1  0  0  0
 23 24  1  0  0  0
 23 43  1  0  0  0
 24 25  2  0  0  0
 24 44  1  0  0  0
 25 26  1  0  0  0
M  END
> <s_m_entry_id>
27930

> <s_m_entry_name>
dock_pv.91

> <s_m_Source_Path>
/home/csk/Desktop/cluster/DUD-E-result/rock1

> <s_m_Source_File>
dock_pv.maegz

> <i_m_Source_File_Index>
91

> <chembl_id>
CHEMBL3947211

> <chembl_pref_name>
None

> <i_lp_mmshare_version>
53161

> <r_lp_tautomer_probability>
0.5

> <s_lp_Force_Field>
OPLS_2005

> <r_lp_Energy>
21.566762

> <b_lp_Chiralities_Consistent>
1

> <s_lp_Variant>
CHEMBL3231_lig732-1

> <s_i_glide_gridfile>
glide-grid_2etr

> <i_i_glide_lignum>
1040

> <i_i_glide_rotatable_bonds>
8

> <r_i_docking_score>
-8.46827837275976

> <r_i_glide_ligand_efficiency>
-0.325703014336914

> <r_i_glide_ligand_efficiency_sa>
-0.964893898393631

> <r_i_glide_ligand_efficiency_ln>
-1.9887473891549

> <r_i_glide_gscore>
-8.46827837275976

> <r_i_glide_lipo>
-2.85998485882672

> <r_i_glide_hbond>
-0.664924757771838

> <r_i_glide_metal>
0

> <r_i_glide_rewards>
-2.25642521220138

> <r_i_glide_evdw>
-41.7904205322266

> <r_i_glide_ecoul>
-7.21228408813477

> <r_i_glide_erotb>
0.529912725680081

> <r_i_glide_esite>
-0.0454926298083578

> <r_i_glide_emodel>
-73.8176379345573

> <r_i_glide_energy>
-49.0027046203613

> <r_i_glide_einternal>
2.16586995124817

> <i_i_glide_confnum>
25

> <i_i_glide_posenum>
102

> <r_i_glide_eff_state_penalty>
0

> <s_user_duplicate_titles>
CHEMBL3231_lig732

> <i_f3d_flags>
0

> <s_m_subgroup_title>
dock_pv

> <s_m_subgroupid>
dock_pv

> <b_m_subgroup_collapsed>
1

$$$$
CHEMBL3231_lig410
                    3D
 Schrodinger Suite 2021-1.
 39 42  0  0  1  0            999 V2000
   51.3634   99.9785   28.1842 C   0  0  0  0  0  0
   51.9435   99.0434   29.0520 C   0  0  0  0  0  0
   52.3846   99.4251   30.3207 C   0  0  0  0  0  0
   51.2281  101.3050   28.5924 C   0  0  0  0  0  0
   51.6424  101.6844   29.8699 C   0  0  0  0  0  0
   52.2193  100.7434   30.7283 C   0  0  0  0  0  0
   52.5638  101.1649   32.0129 N   0  0  0  0  0  0
   52.3201  102.4694   32.4185 C   0  0  0  0  0  0
   51.7835  103.3650   31.6728 N   0  0  0  0  0  0
   51.4039  103.0985   30.3543 C   0  0  0  0  0  0
   50.8432  103.9027   29.6134 O   0  0  0  0  0  0
   50.8423   99.5890   26.8514 C   0  0  0  0  0  0
   52.6129  102.8387   33.8895 C   0  0  2  0  0  0
   53.6781  102.0540   34.5130 N   0  0  0  0  0  0
   50.5176  100.4119   25.7793 C   0  0  0  0  0  0
   50.0353   99.5831   24.8099 N   0  0  0  0  0  0
   50.0431   98.3013   25.1757 N   0  0  0  0  0  0
   50.5328   98.3030   26.3881 C   0  0  0  0  0  0
   51.3513  102.7778   34.7577 C   0  0  0  0  0  0
   50.5958  101.5988   34.8613 C   0  0  0  0  0  0
   49.4203  101.5747   35.6106 C   0  0  0  0  0  0
   48.9982  102.7227   36.2792 C   0  0  0  0  0  0
   49.7548  103.8918   36.2066 C   0  0  0  0  0  0
   50.9240  103.9208   35.4444 C   0  0  0  0  0  0
   49.2431  105.3013   37.0588 Cl  0  0  0  0  0  0
   52.0427   98.0134   28.7467 H   0  0  0  0  0  0
   52.8259   98.6959   30.9831 H   0  0  0  0  0  0
   50.7650  102.0259   27.9315 H   0  0  0  0  0  0
   52.9867  100.5230   32.6651 H   0  0  0  0  0  0
   52.9747  103.8691   33.9021 H   0  0  0  0  0  0
   54.5327  102.1572   33.9817 H   0  0  0  0  0  0
   53.8794  102.4279   35.4290 H   0  0  0  0  0  0
   50.5663  101.4807   25.6292 H   0  0  0  0  0  0
   49.6857   99.8835   23.9064 H   0  0  0  0  0  0
   50.6440   97.3825   26.9419 H   0  0  0  0  0  0
   50.9144  100.7026   34.3486 H   0  0  0  0  0  0
   48.8405  100.6664   35.6748 H   0  0  0  0  0  0
   48.0863  102.7041   36.8577 H   0  0  0  0  0  0
   51.4957  104.8362   35.3825 H   0  0  0  0  0  0
  1  4  2  0  0  0
  1 12  1  0  0  0
  1  2  1  0  0  0
  2 26  1  0  0  0
  2  3  2  0  0  0
  3 27  1  0  0  0
  3  6  1  0  0  0
  4  5  1  0  0  0
  4 28  1  0  0  0
  5 10  1  0  0  0
  5  6  2  0  0  0
  6  7  1  0  0  0
  7 29  1  0  0  0
  7  8  1  0  0  0
  8 13  1  0  0  0
  8  9  2  0  0  0
  9 10  1  0  0  0
 10 11  2  0  0  0
 12 15  2  0  0  0
 12 18  1  0  0  0
 13 14  1  0  0  0
 13 19  1  0  0  0
 13 30  1  0  0  0
 14 31  1  0  0  0
 14 32  1  0  0  0
 15 16  1  0  0  0
 15 33  1  0  0  0
 16 17  1  0  0  0
 16 34  1  0  0  0
 17 18  2  0  0  0
 18 35  1  0  0  0
 19 20  2  0  0  0
 19 24  1  0  0  0
 20 21  1  0  0  0
 20 36  1  0  0  0
 21 22  2  0  0  0
 21 37  1  0  0  0
 22 23  1  0  0  0
 22 38  1  0  0  0
 23 24  2  0  0  0
 23 25  1  0  0  0
 24 39  1  0  0  0
M  END
> <s_m_entry_id>
27931

> <s_m_entry_name>
dock_pv.92

> <s_m_Source_Path>
/home/csk/Desktop/cluster/DUD-E-result/rock1

> <s_m_Source_File>
dock_pv.maegz

> <i_m_Source_File_Index>
92

> <chembl_id>
CHEMBL2333894

> <chembl_pref_name>
None

> <i_lp_mmshare_version>
53161

> <r_lp_tautomer_probability>
0.0616002225126304

> <s_lp_Force_Field>
OPLS_2005

> <r_lp_Energy>
16.867961

> <b_lp_Chiralities_Consistent>
1

> <s_lp_Variant>
CHEMBL3231_lig410-3

> <s_i_glide_gridfile>
glide-grid_2etr

> <i_i_glide_lignum>
585

> <i_i_glide_rotatable_bonds>
3

> <r_i_docking_score>
-8.46667803315504

> <r_i_glide_ligand_efficiency>
-0.338667121326202

> <r_i_glide_ligand_efficiency_sa>
-0.990268669044785

> <r_i_glide_ligand_efficiency_ln>
-2.00685641972398

> <r_i_glide_gscore>
-8.46667803315504

> <r_i_glide_lipo>
-2.78136078904552

> <r_i_glide_hbond>
-0.651565435158187

> <r_i_glide_metal>
0

> <r_i_glide_rewards>
-1.96297580955439

> <r_i_glide_evdw>
-44.533145904541

> <r_i_glide_ecoul>
-7.53996849060059

> <r_i_glide_erotb>
0.32371787469282

> <r_i_glide_esite>
-0.0368413052726315

> <r_i_glide_emodel>
-75.739133925246

> <r_i_glide_energy>
-52.0731143951416

> <r_i_glide_einternal>
4.42975854873657

> <i_i_glide_confnum>
8

> <i_i_glide_posenum>
26

> <r_i_glide_eff_state_penalty>
0

> <s_user_duplicate_titles>
CHEMBL3231_lig410,CHEMBL3231_lig410

> <i_f3d_flags>
0

> <s_m_subgroup_title>
dock_pv

> <s_m_subgroupid>
dock_pv

> <b_m_subgroup_collapsed>
1

$$$$
CHEMBL3231_lig710
                    3D
 Schrodinger Suite 2021-1.
 46 48  0  0  1  0            999 V2000
   47.8431  102.9400   35.5996 C   0  0  0  0  0  0
   48.9697  103.1083   34.7487 O   0  0  0  0  0  0
   50.1704  102.5323   35.1006 C   0  0  0  0  0  0
   50.3644  101.6562   36.1722 C   0  0  0  0  0  0
   51.6433  101.1506   36.4102 C   0  0  0  0  0  0
   52.6954  101.5189   35.5707 C   0  0  0  0  0  0
   52.4339  102.3827   34.4979 C   0  0  0  0  0  0
   51.1877  102.8892   34.2837 N   0  0  0  0  0  0
   53.5036  102.7999   33.4662 C   0  0  1  0  0  0
   54.9424  102.3776   33.8141 C   0  0  0  0  0  0
   53.1866  102.3330   32.1104 N   0  0  0  0  0  0
   52.2272  102.8392   31.3177 C   0  0  0  0  0  0
   51.6519  103.9030   31.5409 O   0  0  0  0  0  0
   51.8169  102.0064   30.1375 C   0  0  0  0  0  0
   51.3099  102.6381   29.0021 C   0  0  0  0  0  0
   50.8605  101.8885   27.9270 C   0  0  0  0  0  0
   50.9083  100.4897   27.9566 C   0  0  0  0  0  0
   51.3681   99.8333   29.1147 C   0  0  0  0  0  0
   51.2989   98.4515   29.1727 O   0  0  0  0  0  0
   51.5000   97.7737   30.4108 C   0  0  0  0  0  0
   51.8422  100.6065   30.1868 C   0  0  0  0  0  0
   50.4493   99.7735   26.7270 C   0  0  0  0  0  0
   49.8597  100.3329   25.6007 C   0  0  0  0  0  0
   49.6436   99.3073   24.7359 N   0  0  0  0  0  0
   50.0432   98.1287   25.2111 N   0  0  0  0  0  0
   50.5263   98.4075   26.3942 C   0  0  0  0  0  0
   47.0119  103.5364   35.2229 H   0  0  0  0  0  0
   47.5235  101.9029   35.6108 H   0  0  0  0  0  0
   48.0514  103.2664   36.6208 H   0  0  0  0  0  0
   49.5459  101.3703   36.8106 H   0  0  0  0  0  0
   51.8183  100.4728   37.2325 H   0  0  0  0  0  0
   53.6795  101.1142   35.7434 H   0  0  0  0  0  0
   53.5170  103.8951   33.4598 H   0  0  0  0  0  0
   55.2547  102.7679   34.7814 H   0  0  0  0  0  0
   55.0576  101.2913   33.8309 H   0  0  0  0  0  0
   55.6411  102.7638   33.0690 H   0  0  0  0  0  0
   53.7159  101.5433   31.7704 H   0  0  0  0  0  0
   51.2649  103.7177   28.9392 H   0  0  0  0  0  0
   50.4957  102.4205   27.0623 H   0  0  0  0  0  0
   51.2623   96.7169   30.2834 H   0  0  0  0  0  0
   52.5349   97.8457   30.7474 H   0  0  0  0  0  0
   50.8403   98.1605   31.1908 H   0  0  0  0  0  0
   52.1972  100.1216   31.0834 H   0  0  0  0  0  0
   49.5835  101.3424   25.3343 H   0  0  0  0  0  0
   49.2309   99.4171   23.8131 H   0  0  0  0  0  0
   50.9386   97.6185   27.0058 H   0  0  0  0  0  0
  1  2  1  0  0  0
  1 27  1  0  0  0
  1 28  1  0  0  0
  1 29  1  0  0  0
  2  3  1  0  0  0
  3  4  2  0  0  0
  3  8  1  0  0  0
  4  5  1  0  0  0
  4 30  1  0  0  0
  5  6  2  0  0  0
  5 31  1  0  0  0
  6  7  1  0  0  0
  6 32  1  0  0  0
  7  8  2  0  0  0
  7  9  1  0  0  0
  9 10  1  0  0  0
  9 11  1  0  0  0
  9 33  1  0  0  0
 10 34  1  0  0  0
 10 35  1  0  0  0
 10 36  1  0  0  0
 11 12  1  0  0  0
 11 37  1  0  0  0
 12 13  2  0  0  0
 12 14  1  0  0  0
 14 15  2  0  0  0
 14 21  1  0  0  0
 15 16  1  0  0  0
 15 38  1  0  0  0
 16 17  2  0  0  0
 16 39  1  0  0  0
 17 18  1  0  0  0
 17 22  1  0  0  0
 18 19  1  0  0  0
 18 21  2  0  0  0
 19 20  1  0  0  0
 20 40  1  0  0  0
 20 41  1  0  0  0
 20 42  1  0  0  0
 21 43  1  0  0  0
 22 23  2  0  0  0
 22 26  1  0  0  0
 23 24  1  0  0  0
 23 44  1  0  0  0
 24 25  1  0  0  0
 24 45  1  0  0  0
 25 26  2  0  0  0
 26 46  1  0  0  0
M  END
> <s_m_entry_id>
27932

> <s_m_entry_name>
dock_pv.93

> <s_m_Source_Path>
/home/csk/Desktop/cluster/DUD-E-result/rock1

> <s_m_Source_File>
dock_pv.maegz

> <i_m_Source_File_Index>
93

> <chembl_id>
CHEMBL3905628

> <chembl_pref_name>
None

> <i_lp_mmshare_version>
53161

> <r_lp_tautomer_probability>
0.5

> <s_lp_Force_Field>
OPLS_2005

> <r_lp_Energy>
14.528213

> <b_lp_Chiralities_Consistent>
1

> <s_lp_Variant>
CHEMBL3231_lig710-2

> <s_i_glide_gridfile>
glide-grid_2etr

> <i_i_glide_lignum>
1010

> <i_i_glide_rotatable_bonds>
7

> <r_i_docking_score>
-8.45849294175622

> <r_i_glide_ligand_efficiency>
-0.325326651606009

> <r_i_glide_ligand_efficiency_sa>
-0.96377892528424

> <r_i_glide_ligand_efficiency_ln>
-1.98644931279234

> <r_i_glide_gscore>
-8.45849294175622

> <r_i_glide_lipo>
-2.81646395213512

> <r_i_glide_hbond>
-0.74829556426715

> <r_i_glide_metal>
0

> <r_i_glide_rewards>
-1.92008855383456

> <r_i_glide_evdw>
-40.5115737915039

> <r_i_glide_ecoul>
-9.46795558929443

> <r_i_glide_erotb>
0.537902935985606

> <r_i_glide_esite>
-0.0657757795356435

> <r_i_glide_emodel>
-72.4486282918373

> <r_i_glide_energy>
-49.9795293807983

> <r_i_glide_einternal>
8.13225936889648

> <i_i_glide_confnum>
24

> <i_i_glide_posenum>
209

> <r_i_glide_eff_state_penalty>
0

> <s_user_duplicate_titles>
CHEMBL3231_lig710

> <i_f3d_flags>
0

> <s_m_subgroup_title>
dock_pv

> <s_m_subgroupid>
dock_pv

> <b_m_subgroup_collapsed>
1

$$$$
CHEMBL3231_lig1195
                    3D
 Schrodinger Suite 2021-1.
 49 53  0  0  1  0            999 V2000
   51.6147  101.1781   28.7083 S   0  0  0  0  0  0
   53.4090  101.6940   33.8356 O   0  0  0  0  0  0
   51.1263  106.7081   35.6098 N   0  0  0  0  0  0
   50.0429   98.8003   25.1945 N   0  0  0  0  0  0
   52.8431   98.2250   32.8869 N   0  0  0  0  0  0
   54.8222  105.1062   33.6114 N   0  0  0  0  0  0
   51.6937   99.6442   29.5691 C   0  0  0  0  0  0
   50.9891  100.3893   27.2727 C   0  0  0  0  0  0
   50.8544   98.9874   27.4695 C   0  0  0  0  0  0
   52.2070   99.5943   30.9804 C   0  0  0  0  0  0
   51.2451   98.5933   28.7775 C   0  0  0  0  0  0
   51.1862  104.4682   35.8302 C   0  0  0  0  0  0
   52.5398  104.9373   35.6492 C   0  0  0  0  0  0
   50.3212  105.6086   35.8034 C   0  0  0  0  0  0
   52.5451  100.7455   31.7181 C   0  0  0  0  0  0
   53.0351  100.6365   33.0304 C   0  0  0  0  0  0
   50.6486  100.9865   26.0504 C   0  0  0  0  0  0
   50.3762   98.2365   26.3821 C   0  0  0  0  0  0
   52.3798   98.3578   31.6202 C   0  0  0  0  0  0
   52.4359  106.3110   35.5233 C   0  0  0  0  0  0
   53.8114  104.1003   35.6268 C   0  0  0  0  0  0
   50.6070  103.2006   36.0186 C   0  0  0  0  0  0
   53.1562   99.3548   33.5668 C   0  0  0  0  0  0
   48.9339  105.5052   35.9522 C   0  0  0  0  0  0
   50.1853  100.1387   25.0462 C   0  0  0  0  0  0
   54.4323  103.8450   34.2275 C   0  0  1  0  0  0
   53.5547  102.9989   33.2758 C   0  0  0  0  0  0
   49.2256  103.0977   36.1800 C   0  0  0  0  0  0
   48.4094  104.2263   36.1446 C   0  0  0  0  0  0
   50.8462  107.6755   35.5272 H   0  0  0  0  0  0
   55.2363  104.9632   32.6925 H   0  0  0  0  0  0
   54.0043  105.6838   33.4445 H   0  0  0  0  0  0
   51.1990   97.5659   29.1055 H   0  0  0  0  0  0
   52.4301  101.7232   31.2759 H   0  0  0  0  0  0
   50.7487  102.0509   25.8988 H   0  0  0  0  0  0
   50.2555   97.1655   26.4517 H   0  0  0  0  0  0
   52.1496   97.4248   31.1257 H   0  0  0  0  0  0
   53.2059  107.0541   35.3629 H   0  0  0  0  0  0
   54.5668  104.5874   36.2477 H   0  0  0  0  0  0
   53.6330  103.1443   36.1197 H   0  0  0  0  0  0
   51.2253  102.3148   36.0422 H   0  0  0  0  0  0
   53.5379   99.2207   34.5670 H   0  0  0  0  0  0
   48.2962  106.3749   35.9282 H   0  0  0  0  0  0
   49.9213  100.5427   24.0800 H   0  0  0  0  0  0
   55.3554  103.2839   34.3845 H   0  0  0  0  0  0
   52.5773  103.4613   33.1249 H   0  0  0  0  0  0
   54.0478  102.9495   32.3028 H   0  0  0  0  0  0
   48.7768  102.1272   36.3338 H   0  0  0  0  0  0
   47.3419  104.1078   36.2677 H   0  0  0  0  0  0
  1  7  1  0  0  0
  1  8  1  0  0  0
  2 16  1  0  0  0
  2 27  1  0  0  0
  3 14  1  0  0  0
  3 20  1  0  0  0
  3 30  1  0  0  0
  4 18  1  0  0  0
  4 25  2  0  0  0
  5 19  2  0  0  0
  5 23  1  0  0  0
  6 26  1  0  0  0
  6 31  1  0  0  0
  6 32  1  0  0  0
  7 10  1  0  0  0
  7 11  2  0  0  0
  8  9  1  0  0  0
  8 17  2  0  0  0
  9 11  1  0  0  0
  9 18  2  0  0  0
 10 15  2  0  0  0
 10 19  1  0  0  0
 11 33  1  0  0  0
 12 13  1  0  0  0
 12 14  1  0  0  0
 12 22  2  0  0  0
 13 20  2  0  0  0
 13 21  1  0  0  0
 14 24  2  0  0  0
 15 16  1  0  0  0
 15 34  1  0  0  0
 16 23  2  0  0  0
 17 25  1  0  0  0
 17 35  1  0  0  0
 18 36  1  0  0  0
 19 37  1  0  0  0
 20 38  1  0  0  0
 21 26  1  0  0  0
 21 39  1  0  0  0
 21 40  1  0  0  0
 22 28  1  0  0  0
 22 41  1  0  0  0
 23 42  1  0  0  0
 24 29  1  0  0  0
 24 43  1  0  0  0
 25 44  1  0  0  0
 26 27  1  0  0  0
 26 45  1  0  0  0
 27 46  1  0  0  0
 27 47  1  0  0  0
 28 29  2  0  0  0
 28 48  1  0  0  0
 29 49  1  0  0  0
M  END
> <s_m_entry_id>
27933

> <s_m_entry_name>
dock_pv.94

> <s_m_Source_Path>
/home/csk/Desktop/cluster/DUD-E-result/rock1

> <s_m_Source_File>
dock_pv.maegz

> <i_m_Source_File_Index>
94

> <chembl_id>
CHEMBL1972840

> <chembl_pref_name>
None

> <i_lp_mmshare_version>
53161

> <r_lp_tautomer_probability>
1

> <s_lp_Force_Field>
OPLS_2005

> <r_lp_Energy>
25.365169

> <b_lp_Chiralities_Consistent>
1

> <s_lp_Variant>
CHEMBL3231_lig1195-2

> <s_i_glide_gridfile>
glide-grid_2etr

> <i_i_glide_lignum>
1657

> <i_i_glide_rotatable_bonds>
6

> <r_i_docking_score>
-8.45678449316037

> <r_i_glide_ligand_efficiency>
-0.29161325838484

> <r_i_glide_ligand_efficiency_sa>
-0.895928319323201

> <r_i_glide_ligand_efficiency_ln>
-1.93638920338185

> <r_i_glide_gscore>
-8.45678449316037

> <r_i_glide_lipo>
-3.27279042222978

> <r_i_glide_hbond>
-0.340663689314169

> <r_i_glide_metal>
0

> <r_i_glide_rewards>
-2.04064447387718

> <r_i_glide_evdw>
-48.2491645812988

> <r_i_glide_ecoul>
-6.42832183837891

> <r_i_glide_erotb>
0.611132172806542

> <r_i_glide_esite>
-0.0371115757240086

> <r_i_glide_emodel>
-82.3203468064605

> <r_i_glide_energy>
-54.6774864196777

> <r_i_glide_einternal>
2.38950800895691

> <i_i_glide_confnum>
28

> <i_i_glide_posenum>
13

> <r_i_glide_eff_state_penalty>
0

> <s_user_duplicate_titles>
CHEMBL3231_lig1195

> <i_f3d_flags>
0

> <s_m_subgroup_title>
dock_pv

> <s_m_subgroupid>
dock_pv

> <b_m_subgroup_collapsed>
1

$$$$
CHEMBL3231_lig411
                    3D
 Schrodinger Suite 2021-1.
 46 49  0  0  1  0            999 V2000
   51.3219  100.0132   28.1174 C   0  0  0  0  0  0
   52.0423   99.0954   28.8912 C   0  0  0  0  0  0
   52.6519   99.4895   30.0833 C   0  0  0  0  0  0
   51.1733  101.3252   28.5648 C   0  0  0  0  0  0
   51.7626  101.7171   29.7694 C   0  0  0  0  0  0
   52.5153  100.8022   30.5115 C   0  0  0  0  0  0
   53.1126  101.2509   31.6903 N   0  0  0  0  0  0
   52.9482  102.5608   32.1111 C   0  0  0  0  0  0
   52.2390  103.4275   31.4773 N   0  0  0  0  0  0
   51.5787  103.1276   30.2829 C   0  0  0  0  0  0
   50.8470  103.9029   29.6664 O   0  0  0  0  0  0
   50.7248   99.6164   26.8191 C   0  0  0  0  0  0
   53.6840  102.9417   33.4224 C   0  0  1  0  0  0
   53.7414  104.3729   33.7221 N   0  0  0  0  0  0
   53.1073  102.1879   34.6622 C   0  0  0  0  0  0
   51.7316  102.6527   35.1510 C   0  0  0  0  0  0
   51.6376  103.4982   36.2597 C   0  0  0  0  0  0
   50.3919  103.9461   36.6918 C   0  0  0  0  0  0
   49.2300  103.5671   36.0208 C   0  0  0  0  0  0
   49.3288  102.7024   34.9193 C   0  0  0  0  0  0
   50.5707  102.2434   34.4917 C   0  0  0  0  0  0
   50.2909  100.4309   25.7806 C   0  0  0  0  0  0
   49.8334   99.5867   24.8111 N   0  0  0  0  0  0
   49.9464   98.3029   25.1559 N   0  0  0  0  0  0
   50.4705   98.3208   26.3506 C   0  0  0  0  0  0
   48.0447  104.0870   36.5011 O   0  0  0  0  0  0
   46.8532  103.9037   35.7472 C   0  0  0  0  0  0
   52.1496   98.0758   28.5560 H   0  0  0  0  0  0
   53.2255   98.7793   30.6581 H   0  0  0  0  0  0
   50.6006  102.0299   27.9759 H   0  0  0  0  0  0
   53.7071  100.6209   32.2056 H   0  0  0  0  0  0
   54.7210  102.6252   33.2982 H   0  0  0  0  0  0
   54.3910  104.5697   34.4681 H   0  0  0  0  0  0
   54.0374  104.9071   32.9106 H   0  0  0  0  0  0
   53.8157  102.2759   35.4878 H   0  0  0  0  0  0
   53.0619  101.1136   34.4754 H   0  0  0  0  0  0
   52.5282  103.8222   36.7781 H   0  0  0  0  0  0
   50.3254  104.6111   37.5395 H   0  0  0  0  0  0
   48.4549  102.3720   34.3835 H   0  0  0  0  0  0
   50.6299  101.5842   33.6381 H   0  0  0  0  0  0
   50.2728  101.5012   25.6462 H   0  0  0  0  0  0
   49.4449   99.8760   23.9169 H   0  0  0  0  0  0
   50.6714   97.4010   26.8786 H   0  0  0  0  0  0
   46.0180  104.3029   36.3182 H   0  0  0  0  0  0
   46.6500  102.8544   35.5388 H   0  0  0  0  0  0
   46.9061  104.4410   34.8035 H   0  0  0  0  0  0
  1  4  2  0  0  0
  1 12  1  0  0  0
  1  2  1  0  0  0
  2 28  1  0  0  0
  2  3  2  0  0  0
  3 29  1  0  0  0
  3  6  1  0  0  0
  4  5  1  0  0  0
  4 30  1  0  0  0
  5 10  1  0  0  0
  5  6  2  0  0  0
  6  7  1  0  0  0
  7 31  1  0  0  0
  7  8  1  0  0  0
  8 13  1  0  0  0
  8  9  2  0  0  0
  9 10  1  0  0  0
 10 11  2  0  0  0
 12 22  2  0  0  0
 12 25  1  0  0  0
 13 14  1  0  0  0
 13 15  1  0  0  0
 13 32  1  0  0  0
 14 33  1  0  0  0
 14 34  1  0  0  0
 15 16  1  0  0  0
 15 35  1  0  0  0
 15 36  1  0  0  0
 16 17  2  0  0  0
 16 21  1  0  0  0
 17 18  1  0  0  0
 17 37  1  0  0  0
 18 19  2  0  0  0
 18 38  1  0  0  0
 19 20  1  0  0  0
 19 26  1  0  0  0
 20 21  2  0  0  0
 20 39  1  0  0  0
 21 40  1  0  0  0
 22 23  1  0  0  0
 22 41  1  0  0  0
 23 24  1  0  0  0
 23 42  1  0  0  0
 24 25  2  0  0  0
 25 43  1  0  0  0
 26 27  1  0  0  0
 27 44  1  0  0  0
 27 45  1  0  0  0
 27 46  1  0  0  0
M  END
> <s_m_entry_id>
27934

> <s_m_entry_name>
dock_pv.95

> <s_m_Source_Path>
/home/csk/Desktop/cluster/DUD-E-result/rock1

> <s_m_Source_File>
dock_pv.maegz

> <i_m_Source_File_Index>
95

> <chembl_id>
CHEMBL2333909

> <chembl_pref_name>
None

> <i_lp_mmshare_version>
53161

> <r_lp_tautomer_probability>
0.0616002225126304

> <s_lp_Force_Field>
OPLS_2005

> <r_lp_Energy>
16.727677

> <b_lp_Chiralities_Consistent>
1

> <s_lp_Variant>
CHEMBL3231_lig411-2

> <s_i_glide_gridfile>
glide-grid_2etr

> <i_i_glide_lignum>
588

> <i_i_glide_rotatable_bonds>
5

> <r_i_docking_score>
-8.45427960223584

> <r_i_glide_ligand_efficiency>
-0.313121466749475

> <r_i_glide_ligand_efficiency_sa>
-0.939364399216429

> <r_i_glide_ligand_efficiency_ln>
-1.96801691170814

> <r_i_glide_gscore>
-8.45427960223584

> <r_i_glide_lipo>
-2.6447712589482

> <r_i_glide_hbond>
-0.663537144555649

> <r_i_glide_metal>
0

> <r_i_glide_rewards>
-1.92564539321059

> <r_i_glide_evdw>
-44.4991111755371

> <r_i_glide_ecoul>
-9.07710456848145

> <r_i_glide_erotb>
0.411400166673767

> <r_i_glide_esite>
-0.0452047281460837

> <r_i_glide_emodel>
-80.3402235196038

> <r_i_glide_energy>
-53.5762157440186

> <r_i_glide_einternal>
1.52262806892395

> <i_i_glide_confnum>
15

> <i_i_glide_posenum>
124

> <r_i_glide_eff_state_penalty>
0

> <s_user_duplicate_titles>
CHEMBL3231_lig411,CHEMBL3231_lig411

> <i_f3d_flags>
0

> <s_m_subgroup_title>
dock_pv

> <s_m_subgroupid>
dock_pv

> <b_m_subgroup_collapsed>
1

$$$$
CHEMBL3231_lig453
                    3D
 Schrodinger Suite 2021-1.
 39 41  0  0  1  0            999 V2000
   52.7504  100.9197   36.1512 C   0  0  0  0  0  0
   52.2643  101.9954   35.1644 C   0  0  1  0  0  0
   52.4219  101.5202   33.7812 N   0  0  0  0  0  0
   52.0329  102.1683   32.6682 C   0  0  0  0  0  0
   51.4821  103.2714   32.6790 O   0  0  0  0  0  0
   52.2653  101.4184   31.5699 N   0  0  0  0  0  0
   51.7812  101.6476   30.2881 C   0  0  0  0  0  0
   51.6372  100.6617   29.4383 N   0  0  0  0  0  0
   51.0996  101.0429   28.2869 C   0  0  0  0  0  0
   50.8429  102.4146   28.2069 C   0  0  0  0  0  0
   51.3373  103.2111   29.6570 S   0  0  0  0  0  0
   50.7805  100.0420   27.2190 C   0  0  0  0  0  0
   50.8213   98.6581   27.4552 C   0  0  0  0  0  0
   50.4420   97.7855   26.4334 C   0  0  0  0  0  0
   50.0432   98.2117   25.2125 N   0  0  0  0  0  0
   50.0381   99.5464   24.9826 C   0  0  0  0  0  0
   50.3919  100.4844   25.9464 C   0  0  0  0  0  0
   50.8562  102.4738   35.5444 C   0  0  0  0  0  0
   49.7134  101.8196   35.0628 C   0  0  0  0  0  0
   48.4426  102.3195   35.3392 C   0  0  0  0  0  0
   48.2971  103.4663   36.1178 C   0  0  0  0  0  0
   49.4247  104.1057   36.6261 C   0  0  0  0  0  0
   49.2433  105.5050   37.6109 Cl  0  0  0  0  0  0
   50.6997  103.6169   36.3370 C   0  0  0  0  0  0
   52.7511  101.2919   37.1769 H   0  0  0  0  0  0
   52.1111  100.0360   36.1248 H   0  0  0  0  0  0
   53.7677  100.6000   35.9231 H   0  0  0  0  0  0
   52.9417  102.8498   35.2553 H   0  0  0  0  0  0
   53.0898  100.7733   33.6661 H   0  0  0  0  0  0
   52.6986  100.5194   31.7071 H   0  0  0  0  0  0
   50.4060  102.9835   27.3984 H   0  0  0  0  0  0
   51.1144   98.2603   28.4165 H   0  0  0  0  0  0
   50.4477   96.7159   26.5885 H   0  0  0  0  0  0
   49.7020   99.8706   24.0110 H   0  0  0  0  0  0
   50.3432  101.5346   25.7009 H   0  0  0  0  0  0
   49.8149  100.9379   34.4498 H   0  0  0  0  0  0
   47.5681  101.8217   34.9466 H   0  0  0  0  0  0
   47.3096  103.8441   36.3381 H   0  0  0  0  0  0
   51.5658  104.1369   36.7184 H   0  0  0  0  0  0
  1  2  1  0  0  0
  1 25  1  0  0  0
  1 26  1  0  0  0
  1 27  1  0  0  0
  2  3  1  0  0  0
  2 18  1  0  0  0
  2 28  1  0  0  0
  3  4  1  0  0  0
  3 29  1  0  0  0
  4  5  2  0  0  0
  4  6  1  0  0  0
  6  7  1  0  0  0
  6 30  1  0  0  0
  7  8  2  0  0  0
  7 11  1  0  0  0
  8  9  1  0  0  0
  9 10  2  0  0  0
  9 12  1  0  0  0
 10 11  1  0  0  0
 10 31  1  0  0  0
 12 13  2  0  0  0
 12 17  1  0  0  0
 13 14  1  0  0  0
 13 32  1  0  0  0
 14 15  2  0  0  0
 14 33  1  0  0  0
 15 16  1  0  0  0
 16 17  2  0  0  0
 16 34  1  0  0  0
 17 35  1  0  0  0
 18 19  2  0  0  0
 18 24  1  0  0  0
 19 20  1  0  0  0
 19 36  1  0  0  0
 20 21  2  0  0  0
 20 37  1  0  0  0
 21 22  1  0  0  0
 21 38  1  0  0  0
 22 23  1  0  0  0
 22 24  2  0  0  0
 24 39  1  0  0  0
M  END
> <s_m_entry_id>
27935

> <s_m_entry_name>
dock_pv.96

> <s_m_Source_Path>
/home/csk/Desktop/cluster/DUD-E-result/rock1

> <s_m_Source_File>
dock_pv.maegz

> <i_m_Source_File_Index>
96

> <chembl_id>
CHEMBL3218284

> <chembl_pref_name>
None

> <i_lp_mmshare_version>
53161

> <r_lp_tautomer_probability>
0.999000488399163

> <s_lp_Force_Field>
OPLS_2005

> <r_lp_Energy>
7.109232

> <b_lp_Chiralities_Consistent>
1

> <s_lp_Variant>
CHEMBL3231_lig453-1

> <s_i_glide_gridfile>
glide-grid_2etr

> <i_i_glide_lignum>
637

> <i_i_glide_rotatable_bonds>
6

> <r_i_docking_score>
-8.45055202743916

> <r_i_glide_ligand_efficiency>
-0.352106334476631

> <r_i_glide_ligand_efficiency_sa>
-1.01565041812695

> <r_i_glide_ligand_efficiency_ln>
-2.02260487073126

> <r_i_glide_gscore>
-8.45055202743916

> <r_i_glide_lipo>
-3.53452140025845

> <r_i_glide_hbond>
-0.274590506986146

> <r_i_glide_metal>
0

> <r_i_glide_rewards>
-2.3017659384102

> <r_i_glide_evdw>
-44.2224769592285

> <r_i_glide_ecoul>
-5.55177640914917

> <r_i_glide_erotb>
0.743979972420949

> <r_i_glide_esite>
-0.0397638448715051

> <r_i_glide_emodel>
-75.4034650146834

> <r_i_glide_energy>
-49.7742533683777

> <r_i_glide_einternal>
1.78832423686981

> <i_i_glide_confnum>
17

> <i_i_glide_posenum>
192

> <r_i_glide_eff_state_penalty>
0

> <s_user_duplicate_titles>
CHEMBL3231_lig453

> <i_f3d_flags>
0

> <s_m_subgroup_title>
dock_pv

> <s_m_subgroupid>
dock_pv

> <b_m_subgroup_collapsed>
1

$$$$
CHEMBL3231_lig397
                    3D
 Schrodinger Suite 2021-1.
 49 51  0  0  1  0            999 V2000
   53.2479  102.4862   31.0342 N   0  0  0  0  0  0
   52.7962  103.4473   31.8573 C   0  0  0  0  0  0
   51.6479  103.9032   31.8467 O   0  0  0  0  0  0
   53.7289  103.7751   32.7636 N   0  0  0  0  0  0
   53.4793  104.4120   34.0640 C   0  0  2  0  0  0
   54.7916  104.5364   34.8823 C   0  0  0  0  0  0
   55.5693  103.2267   35.1423 C   0  0  0  0  0  0
   52.3243  103.7726   34.8584 C   0  0  0  0  0  0
   51.2449  104.5625   35.2739 C   0  0  0  0  0  0
   50.1231  103.9972   35.8858 C   0  0  0  0  0  0
   50.1078  102.6112   36.1209 C   0  0  0  0  0  0
   51.1823  101.8171   35.7277 C   0  0  0  0  0  0
   52.2782  102.3924   35.0884 C   0  0  0  0  0  0
   49.0861  104.8532   36.1985 O   0  0  0  0  0  0
   47.8801  104.3066   36.7156 C   0  0  0  0  0  0
   56.8429  103.5029   35.6877 O   0  0  0  0  0  0
   52.5126  101.8598   30.0232 C   0  0  0  0  0  0
   51.6244  102.5632   29.2006 C   0  0  0  0  0  0
   50.9764  101.9036   28.1641 C   0  0  0  0  0  0
   51.2157  100.5466   27.9346 C   0  0  0  0  0  0
   52.0612   99.8389   28.7932 C   0  0  0  0  0  0
   52.7244  100.4972   29.8239 C   0  0  0  0  0  0
   50.0430   98.2912   25.2286 N   0  0  0  0  0  0
   49.6430   99.4916   24.8109 N   0  0  0  0  0  0
   49.9667  100.4936   25.6759 C   0  0  0  0  0  0
   50.6172   99.8888   26.7405 C   0  0  0  0  0  0
   50.6094   98.5265   26.3888 C   0  0  0  0  0  0
   54.1553  102.0882   31.2304 H   0  0  0  0  0  0
   54.6929  103.7413   32.4647 H   0  0  0  0  0  0
   53.1779  105.4358   33.8248 H   0  0  0  0  0  0
   55.4491  105.2187   34.3385 H   0  0  0  0  0  0
   54.5837  105.0359   35.8294 H   0  0  0  0  0  0
   55.0129  102.5548   35.7947 H   0  0  0  0  0  0
   55.7024  102.6726   34.2132 H   0  0  0  0  0  0
   51.2543  105.6264   35.0821 H   0  0  0  0  0  0
   49.2677  102.1302   36.5967 H   0  0  0  0  0  0
   51.1592  100.7506   35.9013 H   0  0  0  0  0  0
   53.0805  101.7542   34.7478 H   0  0  0  0  0  0
   47.1410  105.0995   36.8112 H   0  0  0  0  0  0
   47.4576  103.5500   36.0521 H   0  0  0  0  0  0
   48.0426  103.8711   37.7021 H   0  0  0  0  0  0
   57.3938  102.7104   35.6134 H   0  0  0  0  0  0
   51.4671  103.6236   29.3309 H   0  0  0  0  0  0
   50.3218  102.4685   27.5171 H   0  0  0  0  0  0
   52.2537   98.7885   28.6371 H   0  0  0  0  0  0
   53.4114   99.9471   30.4523 H   0  0  0  0  0  0
   49.1793   99.6270   23.9168 H   0  0  0  0  0  0
   49.7211  101.5207   25.4523 H   0  0  0  0  0  0
   51.0329   97.7203   26.9688 H   0  0  0  0  0  0
  1  2  1  0  0  0
  1 17  1  0  0  0
  1 28  1  0  0  0
  2  3  2  0  0  0
  2  4  1  0  0  0
  4  5  1  0  0  0
  4 29  1  0  0  0
  5  6  1  0  0  0
  5  8  1  0  0  0
  5 30  1  0  0  0
  6  7  1  0  0  0
  6 31  1  0  0  0
  6 32  1  0  0  0
  7 16  1  0  0  0
  7 33  1  0  0  0
  7 34  1  0  0  0
  8  9  1  0  0  0
  8 13  2  0  0  0
  9 10  2  0  0  0
  9 35  1  0  0  0
 10 11  1  0  0  0
 10 14  1  0  0  0
 11 12  2  0  0  0
 11 36  1  0  0  0
 12 13  1  0  0  0
 12 37  1  0  0  0
 13 38  1  0  0  0
 14 15  1  0  0  0
 15 39  1  0  0  0
 15 40  1  0  0  0
 15 41  1  0  0  0
 16 42  1  0  0  0
 17 18  1  0  0  0
 17 22  2  0  0  0
 18 19  2  0  0  0
 18 43  1  0  0  0
 19 20  1  0  0  0
 19 44  1  0  0  0
 20 21  2  0  0  0
 20 26  1  0  0  0
 21 22  1  0  0  0
 21 45  1  0  0  0
 22 46  1  0  0  0
 23 27  2  0  0  0
 23 24  1  0  0  0
 24 47  1  0  0  0
 24 25  1  0  0  0
 25 48  1  0  0  0
 25 26  2  0  0  0
 26 27  1  0  0  0
 27 49  1  0  0  0
M  END
> <s_m_entry_id>
27936

> <s_m_entry_name>
dock_pv.97

> <s_m_Source_Path>
/home/csk/Desktop/cluster/DUD-E-result/rock1

> <s_m_Source_File>
dock_pv.maegz

> <i_m_Source_File_Index>
97

> <chembl_id>
CHEMBL2332076

> <chembl_pref_name>
None

> <i_lp_mmshare_version>
53161

> <r_lp_tautomer_probability>
0.5

> <s_lp_Force_Field>
OPLS_2005

> <r_lp_Energy>
19.173754

> <b_lp_Chiralities_Consistent>
1

> <s_lp_Variant>
CHEMBL3231_lig397-1

> <s_i_glide_gridfile>
glide-grid_2etr

> <i_i_glide_lignum>
556

> <i_i_glide_rotatable_bonds>
10

> <r_i_docking_score>
-8.44955030625612

> <r_i_glide_ligand_efficiency>
-0.312946307639116

> <r_i_glide_ligand_efficiency_sa>
-0.938838921885927

> <r_i_glide_ligand_efficiency_ln>
-1.96691600957261

> <r_i_glide_gscore>
-8.44955030625612

> <r_i_glide_lipo>
-2.63540064097954

> <r_i_glide_hbond>
-0.724238733856272

> <r_i_glide_metal>
0

> <r_i_glide_rewards>
-1.69486379489916

> <r_i_glide_evdw>
-42.9148902893066

> <r_i_glide_ecoul>
-12.8536558151245

> <r_i_glide_erotb>
0.802807002320185

> <r_i_glide_esite>
-0.124061252107322

> <r_i_glide_emodel>
-84.2501650892668

> <r_i_glide_energy>
-55.7685461044312

> <r_i_glide_einternal>
3.81171488761902

> <i_i_glide_confnum>
105

> <i_i_glide_posenum>
165

> <r_i_glide_eff_state_penalty>
0

> <s_user_duplicate_titles>
CHEMBL3231_lig397

> <i_f3d_flags>
0

> <s_m_subgroup_title>
dock_pv

> <s_m_subgroupid>
dock_pv

> <b_m_subgroup_collapsed>
1

$$$$
CHEMBL3231_lig741
                    3D
 Schrodinger Suite 2021-1.
 48 50  0  0  1  0            999 V2000
   51.4073   97.5060   30.3900 C   0  0  0  0  0  0
   51.2431   98.2950   29.2121 O   0  0  0  0  0  0
   51.3499   99.6751   29.2721 C   0  0  0  0  0  0
   51.7210  100.3506   30.4489 C   0  0  0  0  0  0
   51.7551  101.7524   30.5152 C   0  0  0  0  0  0
   51.4554  102.4780   29.3589 C   0  0  0  0  0  0
   51.0941  101.8260   28.1872 C   0  0  0  0  0  0
   51.0262  100.4293   28.1238 C   0  0  0  0  0  0
   50.5568   99.8281   26.8261 C   0  0  0  0  0  0
   50.5709   98.4870   26.3976 C   0  0  0  0  0  0
   50.0429   98.3028   25.2110 N   0  0  0  0  0  0
   49.6893   99.5232   24.8110 N   0  0  0  0  0  0
   49.9800  100.4816   25.7395 C   0  0  0  0  0  0
   52.0129  102.4862   31.8124 C   0  0  0  0  0  0
   51.6432  103.6540   31.9477 O   0  0  0  0  0  0
   52.6117  101.7987   32.8033 N   0  0  0  0  0  0
   52.7765  102.2675   34.1891 C   0  0  2  0  0  0
   53.7800  101.4018   35.0073 C   0  0  1  0  0  0
   53.4223  100.0282   34.9801 O   0  0  0  0  0  0
   55.2443  101.5174   34.5204 C   0  0  0  0  0  0
   56.1184  100.9214   35.4671 O   0  0  0  0  0  0
   51.4397  102.4613   34.9344 C   0  0  0  0  0  0
   51.2009  103.6498   35.6414 C   0  0  0  0  0  0
   52.1383  104.6241   35.6880 F   0  0  0  0  0  0
   49.9945  103.8467   36.3136 C   0  0  0  0  0  0
   49.0125  102.8595   36.2956 C   0  0  0  0  0  0
   49.2432  101.6696   35.6105 C   0  0  0  0  0  0
   50.4453  101.4672   34.9328 C   0  0  0  0  0  0
   50.6222  100.3028   34.2680 F   0  0  0  0  0  0
   51.2419   96.4567   30.1463 H   0  0  0  0  0  0
   52.4162   97.5931   30.7958 H   0  0  0  0  0  0
   50.6866   97.7786   31.1622 H   0  0  0  0  0  0
   51.9354   99.7814   31.3397 H   0  0  0  0  0  0
   51.4791  103.5588   29.3636 H   0  0  0  0  0  0
   50.8429  102.4290   27.3278 H   0  0  0  0  0  0
   50.9551   97.6443   26.9514 H   0  0  0  0  0  0
   49.2490   99.6953   23.9111 H   0  0  0  0  0  0
   49.7325  101.5165   25.5555 H   0  0  0  0  0  0
   52.9580  100.8705   32.6127 H   0  0  0  0  0  0
   53.2468  103.2513   34.1070 H   0  0  0  0  0  0
   53.7395  101.7195   36.0519 H   0  0  0  0  0  0
   54.1454   99.5401   35.3871 H   0  0  0  0  0  0
   55.3804  101.0428   33.5463 H   0  0  0  0  0  0
   55.5298  102.5644   34.4070 H   0  0  0  0  0  0
   57.0396  101.0758   35.2107 H   0  0  0  0  0  0
   49.8261  104.7689   36.8491 H   0  0  0  0  0  0
   48.0762  103.0112   36.8142 H   0  0  0  0  0  0
   48.4852  100.9016   35.5945 H   0  0  0  0  0  0
  1  2  1  0  0  0
  1 30  1  0  0  0
  1 31  1  0  0  0
  1 32  1  0  0  0
  2  3  1  0  0  0
  3  4  2  0  0  0
  3  8  1  0  0  0
  4  5  1  0  0  0
  4 33  1  0  0  0
  5  6  2  0  0  0
  5 14  1  0  0  0
  6  7  1  0  0  0
  6 34  1  0  0  0
  7  8  2  0  0  0
  7 35  1  0  0  0
  8  9  1  0  0  0
  9 10  1  0  0  0
  9 13  2  0  0  0
 10 11  2  0  0  0
 10 36  1  0  0  0
 11 12  1  0  0  0
 12 13  1  0  0  0
 12 37  1  0  0  0
 13 38  1  0  0  0
 14 15  2  0  0  0
 14 16  1  0  0  0
 16 17  1  0  0  0
 16 39  1  0  0  0
 17 18  1  0  0  0
 17 22  1  0  0  0
 17 40  1  0  0  0
 18 19  1  0  0  0
 18 20  1  0  0  0
 18 41  1  0  0  0
 19 42  1  0  0  0
 20 21  1  0  0  0
 20 43  1  0  0  0
 20 44  1  0  0  0
 21 45  1  0  0  0
 22 23  2  0  0  0
 22 28  1  0  0  0
 23 24  1  0  0  0
 23 25  1  0  0  0
 25 26  2  0  0  0
 25 46  1  0  0  0
 26 27  1  0  0  0
 26 47  1  0  0  0
 27 28  2  0  0  0
 27 48  1  0  0  0
 28 29  1  0  0  0
M  END
> <s_m_entry_id>
27937

> <s_m_entry_name>
dock_pv.98

> <s_m_Source_Path>
/home/csk/Desktop/cluster/DUD-E-result/rock1

> <s_m_Source_File>
dock_pv.maegz

> <i_m_Source_File_Index>
98

> <chembl_id>
CHEMBL4115278

> <chembl_pref_name>
None

> <i_lp_mmshare_version>
53161

> <r_lp_tautomer_probability>
0.5

> <s_lp_Force_Field>
OPLS_2005

> <r_lp_Energy>
30.028461

> <b_lp_Chiralities_Consistent>
1

> <s_lp_Variant>
CHEMBL3231_lig741-2

> <s_i_glide_gridfile>
glide-grid_2etr

> <i_i_glide_lignum>
1056

> <i_i_glide_rotatable_bonds>
10

> <r_i_docking_score>
-8.43757809230053

> <r_i_glide_ligand_efficiency>
-0.290950968700018

> <r_i_glide_ligand_efficiency_sa>
-0.893893555583328

> <r_i_glide_ligand_efficiency_ln>
-1.93199142461725

> <r_i_glide_gscore>
-8.43757809230053

> <r_i_glide_lipo>
-2.88107250430396

> <r_i_glide_hbond>
-0.638731300016904

> <r_i_glide_metal>
0

> <r_i_glide_rewards>
-1.92203204160357

> <r_i_glide_evdw>
-43.7536811828613

> <r_i_glide_ecoul>
-8.41953563690186

> <r_i_glide_erotb>
0.506764619388513

> <r_i_glide_esite>
-0.0518924610862669

> <r_i_glide_emodel>
-79.7992743330685

> <r_i_glide_energy>
-52.1732168197632

> <r_i_glide_einternal>
3.20762276649475

> <i_i_glide_confnum>
25

> <i_i_glide_posenum>
250

> <r_i_glide_eff_state_penalty>
0

> <s_user_duplicate_titles>
CHEMBL3231_lig741

> <i_f3d_flags>
0

> <s_m_subgroup_title>
dock_pv

> <s_m_subgroupid>
dock_pv

> <b_m_subgroup_collapsed>
1

$$$$
CHEMBL3231_lig850
                    3D
 Schrodinger Suite 2021-1.
 51 53  0  0  1  0            999 V2000
   50.0878  106.6168   35.6022 C   0  0  0  0  0  0
   49.2453  105.5018   35.8831 O   0  0  0  0  0  0
   49.7028  104.2300   35.5946 C   0  0  0  0  0  0
   48.8420  103.1718   35.8898 C   0  0  0  0  0  0
   49.2092  101.8567   35.6114 C   0  0  0  0  0  0
   50.4457  101.5851   35.0290 C   0  0  0  0  0  0
   51.3327  102.6257   34.7279 C   0  0  0  0  0  0
   50.9559  103.9422   35.0244 C   0  0  0  0  0  0
   52.7032  102.3445   34.0789 C   0  0  1  0  0  0
   53.5056  101.2713   34.8362 C   0  0  0  0  0  0
   52.6143  102.0006   32.6537 N   0  0  0  0  0  0
   52.0751  102.7791   31.6922 C   0  0  0  0  0  0
   51.6554  103.9030   31.9523 O   0  0  0  0  0  0
   51.8954  102.1691   30.3092 C   0  0  0  0  0  0
   52.3736  100.8751   30.0385 C   0  0  0  0  0  0
   52.0613  100.2288   28.8495 C   0  0  0  0  0  0
   51.2245  100.8253   27.9072 C   0  0  0  0  0  0
   50.8409  102.1473   28.1221 C   0  0  0  0  0  0
   51.1911  102.8465   29.2858 C   0  0  0  0  0  0
   50.8393  104.1738   29.4577 O   0  0  0  0  0  0
   50.1940  104.8964   28.4114 C   0  0  0  0  0  0
   50.6905  100.1043   26.7071 C   0  0  0  0  0  0
   50.0453  100.6890   25.6243 C   0  0  0  0  0  0
   49.6688   99.6696   24.8093 N   0  0  0  0  0  0
   50.0428   98.4780   25.2643 N   0  0  0  0  0  0
   50.6336   98.7159   26.4173 C   0  0  0  0  0  0
   51.1238   97.5222   27.2120 C   0  0  0  0  0  0
   50.6181   97.5561   28.5319 O   0  0  0  0  0  0
   49.5805  107.5379   35.8880 H   0  0  0  0  0  0
   51.0173  106.5617   36.1691 H   0  0  0  0  0  0
   50.3243  106.6863   34.5394 H   0  0  0  0  0  0
   47.8780  103.3707   36.3363 H   0  0  0  0  0  0
   48.5288  101.0510   35.8412 H   0  0  0  0  0  0
   50.7080  100.5620   34.8013 H   0  0  0  0  0  0
   51.6415  104.7390   34.7790 H   0  0  0  0  0  0
   53.2968  103.2589   34.1438 H   0  0  0  0  0  0
   53.6196  101.5325   35.8889 H   0  0  0  0  0  0
   53.0328  100.2894   34.7851 H   0  0  0  0  0  0
   54.5101  101.1664   34.4198 H   0  0  0  0  0  0
   53.1493  101.1983   32.3603 H   0  0  0  0  0  0
   52.9604  100.3219   30.7587 H   0  0  0  0  0  0
   52.4446   99.2346   28.7060 H   0  0  0  0  0  0
   50.2361  102.6311   27.3749 H   0  0  0  0  0  0
   50.0439  105.9272   28.7273 H   0  0  0  0  0  0
   50.7937  104.9099   27.5005 H   0  0  0  0  0  0
   49.2114  104.4794   28.1915 H   0  0  0  0  0  0
   49.8047  101.7110   25.3782 H   0  0  0  0  0  0
   49.1894   99.7853   23.9187 H   0  0  0  0  0  0
   52.2085   97.5051   27.2634 H   0  0  0  0  0  0
   50.8396   96.5789   26.7458 H   0  0  0  0  0  0
   50.9075   96.7662   28.9982 H   0  0  0  0  0  0
  1  2  1  0  0  0
  1 29  1  0  0  0
  1 30  1  0  0  0
  1 31  1  0  0  0
  2  3  1  0  0  0
  3  4  2  0  0  0
  3  8  1  0  0  0
  4  5  1  0  0  0
  4 32  1  0  0  0
  5  6  2  0  0  0
  5 33  1  0  0  0
  6  7  1  0  0  0
  6 34  1  0  0  0
  7  8  2  0  0  0
  7  9  1  0  0  0
  8 35  1  0  0  0
  9 10  1  0  0  0
  9 11  1  0  0  0
  9 36  1  0  0  0
 10 37  1  0  0  0
 10 38  1  0  0  0
 10 39  1  0  0  0
 11 12  1  0  0  0
 11 40  1  0  0  0
 12 13  2  0  0  0
 12 14  1  0  0  0
 14 15  2  0  0  0
 14 19  1  0  0  0
 15 16  1  0  0  0
 15 41  1  0  0  0
 16 17  2  0  0  0
 16 42  1  0  0  0
 17 18  1  0  0  0
 17 22  1  0  0  0
 18 19  2  0  0  0
 18 43  1  0  0  0
 19 20  1  0  0  0
 20 21  1  0  0  0
 21 44  1  0  0  0
 21 45  1  0  0  0
 21 46  1  0  0  0
 22 23  2  0  0  0
 22 26  1  0  0  0
 23 24  1  0  0  0
 23 47  1  0  0  0
 24 25  1  0  0  0
 24 48  1  0  0  0
 25 26  2  0  0  0
 26 27  1  0  0  0
 27 28  1  0  0  0
 27 49  1  0  0  0
 27 50  1  0  0  0
 28 51  1  0  0  0
M  END
> <s_m_entry_id>
27938

> <s_m_entry_name>
dock_pv.99

> <s_m_Source_Path>
/home/csk/Desktop/cluster/DUD-E-result/rock1

> <s_m_Source_File>
dock_pv.maegz

> <i_m_Source_File_Index>
99

> <chembl_id>
CHEMBL4110004

> <chembl_pref_name>
None

> <i_lp_mmshare_version>
53161

> <r_lp_tautomer_probability>
0.5

> <s_lp_Force_Field>
OPLS_2005

> <r_lp_Energy>
29.370745

> <b_lp_Chiralities_Consistent>
1

> <s_lp_Variant>
CHEMBL3231_lig850-1

> <s_i_glide_gridfile>
glide-grid_2etr

> <i_i_glide_lignum>
1197

> <i_i_glide_rotatable_bonds>
9

> <r_i_docking_score>
-8.43562840640417

> <r_i_glide_ligand_efficiency>
-0.301272443085863

> <r_i_glide_ligand_efficiency_sa>
-0.914840577188425

> <r_i_glide_ligand_efficiency_ln>
-1.9471907170105

> <r_i_glide_gscore>
-8.43562840640417

> <r_i_glide_lipo>
-3.06973057937038

> <r_i_glide_hbond>
-0.64298756877415

> <r_i_glide_metal>
0

> <r_i_glide_rewards>
-1.65283017413017

> <r_i_glide_evdw>
-43.4360427856445

> <r_i_glide_ecoul>
-9.34978294372559

> <r_i_glide_erotb>
0.560373436267437

> <r_i_glide_esite>
-0.0561839395558444

> <r_i_glide_emodel>
-79.3592211333968

> <r_i_glide_energy>
-52.7858257293701

> <r_i_glide_einternal>
3.74213528633118

> <i_i_glide_confnum>
38

> <i_i_glide_posenum>
306

> <r_i_glide_eff_state_penalty>
0

> <s_user_duplicate_titles>
CHEMBL3231_lig850

> <i_f3d_flags>
0

> <s_m_subgroup_title>
dock_pv

> <s_m_subgroupid>
dock_pv

> <b_m_subgroup_collapsed>
1

$$$$
CHEMBL3231_lig426
                    3D
 Schrodinger Suite 2021-1.
 37 39  0  0  1  0            999 V2000
   48.8428  101.5404   36.0110 O   0  0  0  0  0  0
   49.3050  102.8242   35.8943 C   0  0  0  0  0  0
   48.4547  103.8717   36.2527 C   0  0  0  0  0  0
   48.8865  105.1931   36.1428 C   0  0  0  0  0  0
   50.1737  105.4695   35.6881 C   0  0  0  0  0  0
   51.0263  104.4258   35.3311 C   0  0  0  0  0  0
   50.6007  103.0947   35.4218 C   0  0  0  0  0  0
   51.5393  101.9656   34.9676 C   0  0  0  0  0  0
   52.2135  102.1284   33.6675 N   0  0  0  0  0  0
   51.6083  102.4451   32.5106 C   0  0  0  0  0  0
   50.5670  103.1029   32.4521 O   0  0  0  0  0  0
   52.2350  101.9175   31.4389 N   0  0  0  0  0  0
   51.7286  101.9943   30.1518 C   0  0  0  0  0  0
   51.6088  100.9504   29.3695 N   0  0  0  0  0  0
   51.0265  101.2459   28.2137 C   0  0  0  0  0  0
   50.7115  102.6011   28.0649 C   0  0  0  0  0  0
   51.2429  103.5027   29.4384 S   0  0  0  0  0  0
   50.7287  100.1850   27.2022 C   0  0  0  0  0  0
   50.3167  100.5529   25.9138 C   0  0  0  0  0  0
   49.9853   99.5623   24.9963 C   0  0  0  0  0  0
   50.0432   98.2410   25.2852 N   0  0  0  0  0  0
   50.4679   97.8876   26.5234 C   0  0  0  0  0  0
   50.8231   98.8169   27.5009 C   0  0  0  0  0  0
   47.9970  101.5053   36.4688 H   0  0  0  0  0  0
   47.4555  103.6672   36.6040 H   0  0  0  0  0  0
   48.2223  106.0014   36.4046 H   0  0  0  0  0  0
   50.5115  106.4921   35.6011 H   0  0  0  0  0  0
   52.0180  104.6533   34.9663 H   0  0  0  0  0  0
   52.3050  101.8465   35.7372 H   0  0  0  0  0  0
   51.0201  101.0045   34.9468 H   0  0  0  0  0  0
   53.1661  101.8001   33.6246 H   0  0  0  0  0  0
   53.0301  101.3148   31.5854 H   0  0  0  0  0  0
   50.2293  103.1045   27.2382 H   0  0  0  0  0  0
   50.2366  101.5864   25.6176 H   0  0  0  0  0  0
   49.6435   99.8291   24.0109 H   0  0  0  0  0  0
   50.5180   96.8293   26.7318 H   0  0  0  0  0  0
   51.1421   98.4790   28.4758 H   0  0  0  0  0  0
  1  2  1  0  0  0
  1 24  1  0  0  0
  2  3  2  0  0  0
  2  7  1  0  0  0
  3  4  1  0  0  0
  3 25  1  0  0  0
  4  5  2  0  0  0
  4 26  1  0  0  0
  5  6  1  0  0  0
  5 27  1  0  0  0
  6  7  2  0  0  0
  6 28  1  0  0  0
  7  8  1  0  0  0
  8  9  1  0  0  0
  8 29  1  0  0  0
  8 30  1  0  0  0
  9 10  1  0  0  0
  9 31  1  0  0  0
 10 11  2  0  0  0
 10 12  1  0  0  0
 12 13  1  0  0  0
 12 32  1  0  0  0
 13 14  2  0  0  0
 13 17  1  0  0  0
 14 15  1  0  0  0
 15 16  2  0  0  0
 15 18  1  0  0  0
 16 17  1  0  0  0
 16 33  1  0  0  0
 18 19  2  0  0  0
 18 23  1  0  0  0
 19 20  1  0  0  0
 19 34  1  0  0  0
 20 21  2  0  0  0
 20 35  1  0  0  0
 21 22  1  0  0  0
 22 23  2  0  0  0
 22 36  1  0  0  0
 23 37  1  0  0  0
M  END
> <s_m_entry_id>
27939

> <s_m_entry_name>
dock_pv.100

> <s_m_Source_Path>
/home/csk/Desktop/cluster/DUD-E-result/rock1

> <s_m_Source_File>
dock_pv.maegz

> <i_m_Source_File_Index>
100

> <chembl_id>
CHEMBL3218012

> <chembl_pref_name>
None

> <i_lp_mmshare_version>
53161

> <r_lp_tautomer_probability>
0.99900048839653

> <s_lp_Force_Field>
OPLS_2005

> <r_lp_Energy>
9.261766

> <b_lp_Chiralities_Consistent>
1

> <s_lp_Variant>
CHEMBL3231_lig426-1

> <s_i_glide_gridfile>
glide-grid_2etr

> <i_i_glide_lignum>
610

> <i_i_glide_rotatable_bonds>
7

> <r_i_docking_score>
-8.43402677006659

> <r_i_glide_ligand_efficiency>
-0.366696816089852

> <r_i_glide_ligand_efficiency_sa>
-1.0428369658047

> <r_i_glide_ligand_efficiency_ln>
-2.03942414852868

> <r_i_glide_gscore>
-8.43402677006659

> <r_i_glide_lipo>
-3.11084664878617

> <r_i_glide_hbond>
-0.60758400272958

> <r_i_glide_metal>
0

> <r_i_glide_rewards>
-2.3769752160688

> <r_i_glide_evdw>
-41.6488151550293

> <r_i_glide_ecoul>
-8.35737037658691

> <r_i_glide_erotb>
1.05635808526274

> <r_i_glide_esite>
-0.0589326735052717

> <r_i_glide_emodel>
-73.1180186538393

> <r_i_glide_energy>
-50.0061855316162

> <r_i_glide_einternal>
6.33138656616211

> <i_i_glide_confnum>
10

> <i_i_glide_posenum>
375

> <r_i_glide_eff_state_penalty>
0

> <s_user_duplicate_titles>
CHEMBL3231_lig426

> <i_f3d_flags>
0

> <s_m_subgroup_title>
dock_pv

> <s_m_subgroupid>
dock_pv

> <b_m_subgroup_collapsed>
1

$$$$
CHEMBL3231_lig434
                    3D
 Schrodinger Suite 2021-1.
 36 38  0  0  1  0            999 V2000
   49.3110  105.3643   37.6105 F   0  0  0  0  0  0
   49.5151  104.2915   36.8104 C   0  0  0  0  0  0
   48.4360  103.5031   36.4228 C   0  0  0  0  0  0
   48.6381  102.3893   35.6110 C   0  0  0  0  0  0
   49.9241  102.0624   35.1866 C   0  0  0  0  0  0
   51.0165  102.8610   35.5517 C   0  0  0  0  0  0
   52.4256  102.5763   35.0199 C   0  0  0  0  0  0
   52.5324  102.0046   33.6685 N   0  0  0  0  0  0
   51.9668  102.5069   32.5563 C   0  0  0  0  0  0
   51.2429  103.5029   32.5566 O   0  0  0  0  0  0
   52.2462  101.7484   31.4767 N   0  0  0  0  0  0
   51.7109  101.9074   30.2055 C   0  0  0  0  0  0
   51.5709  100.8893   29.3972 N   0  0  0  0  0  0
   51.0017  101.2155   28.2464 C   0  0  0  0  0  0
   50.7106  102.5770   28.1243 C   0  0  0  0  0  0
   51.2427  103.4420   29.5215 S   0  0  0  0  0  0
   50.7014  100.1741   27.2126 C   0  0  0  0  0  0
   50.2913  100.5664   25.9313 C   0  0  0  0  0  0
   49.9791   99.5895   24.9908 C   0  0  0  0  0  0
   50.0436   98.2627   25.2519 N   0  0  0  0  0  0
   50.4559   97.8867   26.4869 C   0  0  0  0  0  0
   50.7988   98.8017   27.4850 C   0  0  0  0  0  0
   50.8003  103.9773   36.3686 C   0  0  0  0  0  0
   47.4397  103.7532   36.7577 H   0  0  0  0  0  0
   47.7966  101.7796   35.3162 H   0  0  0  0  0  0
   50.0682  101.1974   34.5539 H   0  0  0  0  0  0
   53.0274  103.4884   35.0413 H   0  0  0  0  0  0
   52.9075  101.8844   35.7119 H   0  0  0  0  0  0
   53.2446  101.2989   33.5528 H   0  0  0  0  0  0
   52.8001  100.9174   31.6192 H   0  0  0  0  0  0
   50.2440  103.1045   27.3051 H   0  0  0  0  0  0
   50.2052  101.6063   25.6563 H   0  0  0  0  0  0
   49.6429   99.8750   24.0110 H   0  0  0  0  0  0
   50.5102   96.8232   26.6722 H   0  0  0  0  0  0
   51.1141   98.4427   28.4554 H   0  0  0  0  0  0
   51.6259  104.6121   36.6588 H   0  0  0  0  0  0
  1  2  1  0  0  0
  2  3  2  0  0  0
  2 23  1  0  0  0
  3  4  1  0  0  0
  3 24  1  0  0  0
  4  5  2  0  0  0
  4 25  1  0  0  0
  5  6  1  0  0  0
  5 26  1  0  0  0
  6  7  1  0  0  0
  6 23  2  0  0  0
  7  8  1  0  0  0
  7 27  1  0  0  0
  7 28  1  0  0  0
  8  9  1  0  0  0
  8 29  1  0  0  0
  9 10  2  0  0  0
  9 11  1  0  0  0
 11 12  1  0  0  0
 11 30  1  0  0  0
 12 13  2  0  0  0
 12 16  1  0  0  0
 13 14  1  0  0  0
 14 15  2  0  0  0
 14 17  1  0  0  0
 15 16  1  0  0  0
 15 31  1  0  0  0
 17 18  2  0  0  0
 17 22  1  0  0  0
 18 19  1  0  0  0
 18 32  1  0  0  0
 19 20  2  0  0  0
 19 33  1  0  0  0
 20 21  1  0  0  0
 21 22  2  0  0  0
 21 34  1  0  0  0
 22 35  1  0  0  0
 23 36  1  0  0  0
M  END
> <s_m_entry_id>
27940

> <s_m_entry_name>
dock_pv.101

> <s_m_Source_Path>
/home/csk/Desktop/cluster/DUD-E-result/rock1

> <s_m_Source_File>
dock_pv.maegz

> <i_m_Source_File_Index>
101

> <chembl_id>
CHEMBL3218021

> <chembl_pref_name>
None

> <i_lp_mmshare_version>
53161

> <r_lp_tautomer_probability>
0.999000488399163

> <s_lp_Force_Field>
OPLS_2005

> <r_lp_Energy>
6.164824

> <b_lp_Chiralities_Consistent>
1

> <s_lp_Variant>
CHEMBL3231_lig434-1

> <s_i_glide_gridfile>
glide-grid_2etr

> <i_i_glide_lignum>
618

> <i_i_glide_rotatable_bonds>
6

> <r_i_docking_score>
-8.42775944576529

> <r_i_glide_ligand_efficiency>
-0.366424323728926

> <r_i_glide_ligand_efficiency_sa>
-1.04206203377801

> <r_i_glide_ligand_efficiency_ln>
-2.03790865268367

> <r_i_glide_gscore>
-8.42775944576529

> <r_i_glide_lipo>
-3.31383688428622

> <r_i_glide_hbond>
-0.305837188575388

> <r_i_glide_metal>
0

> <r_i_glide_rewards>
-2.52847616188723

> <r_i_glide_evdw>
-40.9898681640625

> <r_i_glide_ecoul>
-6.98746299743652

> <r_i_glide_erotb>
0.870893794050034

> <r_i_glide_esite>
-0.0528901472478767

> <r_i_glide_emodel>
-72.5397924619103

> <r_i_glide_energy>
-47.977331161499

> <r_i_glide_einternal>
1.47451639175415

> <i_i_glide_confnum>
1

> <i_i_glide_posenum>
343

> <r_i_glide_eff_state_penalty>
0

> <s_user_duplicate_titles>
CHEMBL3231_lig434

> <i_f3d_flags>
0

> <s_m_subgroup_title>
dock_pv

> <s_m_subgroupid>
dock_pv

> <b_m_subgroup_collapsed>
1

$$$$
CHEMBL3231_lig743
                    3D
 Schrodinger Suite 2021-1.
 46 48  0  0  1  0            999 V2000
   51.9962   99.8109   35.9400 C   0  0  0  0  0  0
   50.9678  100.4361   34.9837 C   0  0  0  0  0  0
   50.7096  101.9185   35.2499 C   0  0  0  0  0  0
   49.5747  102.2607   35.9978 C   0  0  0  0  0  0
   49.2854  103.5921   36.2865 C   0  0  0  0  0  0
   50.1314  104.6016   35.8286 C   0  0  0  0  0  0
   51.2642  104.2742   35.0850 C   0  0  0  0  0  0
   51.5660  102.9402   34.7831 C   0  0  0  0  0  0
   52.8492  102.6522   33.9889 C   0  0  0  0  0  0
   52.6425  102.0938   32.6523 N   0  0  0  0  0  0
   52.0130  102.7278   31.6476 C   0  0  0  0  0  0
   51.6447  103.9017   31.7308 O   0  0  0  0  0  0
   51.7376  101.9324   30.3918 C   0  0  0  0  0  0
   51.4371  102.6078   29.2065 C   0  0  0  0  0  0
   51.0831  101.9033   28.0669 C   0  0  0  0  0  0
   51.0118  100.5082   28.0656 C   0  0  0  0  0  0
   51.3356   99.8020   29.2410 C   0  0  0  0  0  0
   51.2435   98.4204   29.2255 O   0  0  0  0  0  0
   51.4253   97.6748   30.4252 C   0  0  0  0  0  0
   51.7030  100.5285   30.3903 C   0  0  0  0  0  0
   50.5372   99.8626   26.7961 C   0  0  0  0  0  0
   50.5820   98.5139   26.3882 C   0  0  0  0  0  0
   50.0431   98.2987   25.2113 N   0  0  0  0  0  0
   49.6434   99.5029   24.8106 N   0  0  0  0  0  0
   49.9206  100.4832   25.7128 C   0  0  0  0  0  0
   52.0713   98.7355   35.7839 H   0  0  0  0  0  0
   52.9922  100.2248   35.7973 H   0  0  0  0  0  0
   51.7208   99.9779   36.9790 H   0  0  0  0  0  0
   50.0211   99.9029   35.0800 H   0  0  0  0  0  0
   51.2593  100.2792   33.9462 H   0  0  0  0  0  0
   48.9103  101.4947   36.3682 H   0  0  0  0  0  0
   48.4060  103.8402   36.8679 H   0  0  0  0  0  0
   49.9120  105.6353   36.0530 H   0  0  0  0  0  0
   51.9089  105.0706   34.7348 H   0  0  0  0  0  0
   53.4507  103.5595   33.8904 H   0  0  0  0  0  0
   53.4770  101.9714   34.5622 H   0  0  0  0  0  0
   53.0789  101.2063   32.4564 H   0  0  0  0  0  0
   51.4647  103.6882   29.1631 H   0  0  0  0  0  0
   50.8425  102.4685   27.1783 H   0  0  0  0  0  0
   51.2446   96.6210   30.2209 H   0  0  0  0  0  0
   52.4437   97.7667   30.8032 H   0  0  0  0  0  0
   50.7245   97.9769   31.2050 H   0  0  0  0  0  0
   51.9231   99.9974   31.3046 H   0  0  0  0  0  0
   50.9990   97.6933   26.9540 H   0  0  0  0  0  0
   49.1976   99.6553   23.9080 H   0  0  0  0  0  0
   49.6425  101.5046   25.5148 H   0  0  0  0  0  0
  1  2  1  0  0  0
  1 26  1  0  0  0
  1 27  1  0  0  0
  1 28  1  0  0  0
  2  3  1  0  0  0
  2 29  1  0  0  0
  2 30  1  0  0  0
  3  4  2  0  0  0
  3  8  1  0  0  0
  4  5  1  0  0  0
  4 31  1  0  0  0
  5  6  2  0  0  0
  5 32  1  0  0  0
  6  7  1  0  0  0
  6 33  1  0  0  0
  7  8  2  0  0  0
  7 34  1  0  0  0
  8  9  1  0  0  0
  9 10  1  0  0  0
  9 35  1  0  0  0
  9 36  1  0  0  0
 10 11  1  0  0  0
 10 37  1  0  0  0
 11 12  2  0  0  0
 11 13  1  0  0  0
 13 14  2  0  0  0
 13 20  1  0  0  0
 14 15  1  0  0  0
 14 38  1  0  0  0
 15 16  2  0  0  0
 15 39  1  0  0  0
 16 17  1  0  0  0
 16 21  1  0  0  0
 17 18  1  0  0  0
 17 20  2  0  0  0
 18 19  1  0  0  0
 19 40  1  0  0  0
 19 41  1  0  0  0
 19 42  1  0  0  0
 20 43  1  0  0  0
 21 22  1  0  0  0
 21 25  2  0  0  0
 22 23  2  0  0  0
 22 44  1  0  0  0
 23 24  1  0  0  0
 24 25  1  0  0  0
 24 45  1  0  0  0
 25 46  1  0  0  0
M  END
> <s_m_entry_id>
27941

> <s_m_entry_name>
dock_pv.102

> <s_m_Source_Path>
/home/csk/Desktop/cluster/DUD-E-result/rock1

> <s_m_Source_File>
dock_pv.maegz

> <i_m_Source_File_Index>
102

> <chembl_id>
CHEMBL3932451

> <chembl_pref_name>
None

> <i_lp_mmshare_version>
53161

> <r_lp_tautomer_probability>
0.5

> <s_lp_Force_Field>
OPLS_2005

> <r_lp_Energy>
21.823927

> <b_lp_Chiralities_Consistent>
1

> <s_lp_Variant>
CHEMBL3231_lig743-1

> <s_i_glide_gridfile>
glide-grid_2etr

> <i_i_glide_lignum>
1058

> <i_i_glide_rotatable_bonds>
7

> <r_i_docking_score>
-8.42588907803501

> <r_i_glide_ligand_efficiency>
-0.337035563121401

> <r_i_glide_ligand_efficiency_sa>
-0.985497963918139

> <r_i_glide_ligand_efficiency_ln>
-1.99718821501418

> <r_i_glide_gscore>
-8.42588907803501

> <r_i_glide_lipo>
-3.00709572778321

> <r_i_glide_hbond>
-0.67747284583334

> <r_i_glide_metal>
0

> <r_i_glide_rewards>
-2.09460763332438

> <r_i_glide_evdw>
-41.5119361877441

> <r_i_glide_ecoul>
-7.34892845153809

> <r_i_glide_erotb>
0.587196517146592

> <r_i_glide_esite>
-0.055973311122751

> <r_i_glide_emodel>
-72.5400219807137

> <r_i_glide_energy>
-48.8608646392822

> <r_i_glide_einternal>
3.17063999176025

> <i_i_glide_confnum>
18

> <i_i_glide_posenum>
296

> <r_i_glide_eff_state_penalty>
0

> <s_user_duplicate_titles>
CHEMBL3231_lig743

> <i_f3d_flags>
0

> <s_m_subgroup_title>
dock_pv

> <s_m_subgroupid>
dock_pv

> <b_m_subgroup_collapsed>
1

$$$$
CHEMBL3231_lig741
                    3D
 Schrodinger Suite 2021-1.
 48 50  0  0  1  0            999 V2000
   51.3888   97.4231   30.4103 C   0  0  0  0  0  0
   51.2424   98.2008   29.2244 O   0  0  0  0  0  0
   51.3987   99.5758   29.2694 C   0  0  0  0  0  0
   51.7736  100.2571   30.4430 C   0  0  0  0  0  0
   51.8511  101.6576   30.4833 C   0  0  0  0  0  0
   51.6166  102.3723   29.3064 C   0  0  0  0  0  0
   51.2537  101.7124   28.1410 C   0  0  0  0  0  0
   51.1177  100.3222   28.1053 C   0  0  0  0  0  0
   50.6170   99.7319   26.8168 C   0  0  0  0  0  0
   50.0423  100.4022   25.7382 C   0  0  0  0  0  0
   49.7243   99.4533   24.8110 N   0  0  0  0  0  0
   50.0428   98.2227   25.2110 N   0  0  0  0  0  0
   50.5851   98.3900   26.3932 C   0  0  0  0  0  0
   52.0675  102.4109   31.7743 C   0  0  0  0  0  0
   51.6435  103.5610   31.8875 O   0  0  0  0  0  0
   52.6784  101.7626   32.7841 N   0  0  0  0  0  0
   52.7891  102.2803   34.1594 C   0  0  2  0  0  0
   53.7839  101.4487   35.0230 C   0  0  2  0  0  0
   53.8217  101.9517   36.3505 O   0  0  0  0  0  0
   55.2370  101.4478   34.4865 C   0  0  0  0  0  0
   56.0479  100.5865   35.2683 O   0  0  0  0  0  0
   51.4076  102.4448   34.8266 C   0  0  0  0  0  0
   50.5565  101.3420   34.9942 C   0  0  0  0  0  0
   50.9331  100.1108   34.5799 F   0  0  0  0  0  0
   49.3023  101.5014   35.5825 C   0  0  0  0  0  0
   48.8796  102.7584   36.0079 C   0  0  0  0  0  0
   49.7199  103.8586   35.8530 C   0  0  0  0  0  0
   50.9765  103.7055   35.2680 C   0  0  0  0  0  0
   51.7640  104.7955   35.1245 F   0  0  0  0  0  0
   51.2028   96.3751   30.1765 H   0  0  0  0  0  0
   52.3995   97.4914   30.8138 H   0  0  0  0  0  0
   50.6721   97.7180   31.1785 H   0  0  0  0  0  0
   51.9456   99.7000   31.3506 H   0  0  0  0  0  0
   51.6793  103.4519   29.2921 H   0  0  0  0  0  0
   51.0524  102.3033   27.2625 H   0  0  0  0  0  0
   49.8245  101.4446   25.5541 H   0  0  0  0  0  0
   49.2853   99.6371   23.9129 H   0  0  0  0  0  0
   50.9489   97.5386   26.9485 H   0  0  0  0  0  0
   53.1485  100.8939   32.5792 H   0  0  0  0  0  0
   53.2450  103.2706   34.0732 H   0  0  0  0  0  0
   53.4331  100.4168   35.0867 H   0  0  0  0  0  0
   54.5342  101.4875   36.8035 H   0  0  0  0  0  0
   55.2755  101.1142   33.4484 H   0  0  0  0  0  0
   55.6601  102.4534   34.5106 H   0  0  0  0  0  0
   56.9776  100.7029   35.0243 H   0  0  0  0  0  0
   48.6568  100.6460   35.7020 H   0  0  0  0  0  0
   47.9049  102.8778   36.4572 H   0  0  0  0  0  0
   49.4013  104.8355   36.1830 H   0  0  0  0  0  0
  1  2  1  0  0  0
  1 30  1  0  0  0
  1 31  1  0  0  0
  1 32  1  0  0  0
  2  3  1  0  0  0
  3  4  2  0  0  0
  3  8  1  0  0  0
  4  5  1  0  0  0
  4 33  1  0  0  0
  5  6  2  0  0  0
  5 14  1  0  0  0
  6  7  1  0  0  0
  6 34  1  0  0  0
  7  8  2  0  0  0
  7 35  1  0  0  0
  8  9  1  0  0  0
  9 10  2  0  0  0
  9 13  1  0  0  0
 10 11  1  0  0  0
 10 36  1  0  0  0
 11 12  1  0  0  0
 11 37  1  0  0  0
 12 13  2  0  0  0
 13 38  1  0  0  0
 14 15  2  0  0  0
 14 16  1  0  0  0
 16 17  1  0  0  0
 16 39  1  0  0  0
 17 18  1  0  0  0
 17 22  1  0  0  0
 17 40  1  0  0  0
 18 19  1  0  0  0
 18 20  1  0  0  0
 18 41  1  0  0  0
 19 42  1  0  0  0
 20 21  1  0  0  0
 20 43  1  0  0  0
 20 44  1  0  0  0
 21 45  1  0  0  0
 22 23  2  0  0  0
 22 28  1  0  0  0
 23 24  1  0  0  0
 23 25  1  0  0  0
 25 26  2  0  0  0
 25 46  1  0  0  0
 26 27  1  0  0  0
 26 47  1  0  0  0
 27 28  2  0  0  0
 27 48  1  0  0  0
 28 29  1  0  0  0
M  END
> <s_m_entry_id>
27942

> <s_m_entry_name>
dock_pv.103

> <s_m_Source_Path>
/home/csk/Desktop/cluster/DUD-E-result/rock1

> <s_m_Source_File>
dock_pv.maegz

> <i_m_Source_File_Index>
103

> <chembl_id>
CHEMBL4115278

> <chembl_pref_name>
None

> <i_lp_mmshare_version>
53161

> <r_lp_tautomer_probability>
0.5

> <s_lp_Force_Field>
OPLS_2005

> <r_lp_Energy>
28.336153

> <b_lp_Chiralities_Consistent>
1

> <s_lp_Variant>
CHEMBL3231_lig741-1

> <s_i_glide_gridfile>
glide-grid_2etr

> <i_i_glide_lignum>
1055

> <i_i_glide_rotatable_bonds>
10

> <r_i_docking_score>
-8.41004970488374

> <r_i_glide_ligand_efficiency>
-0.290001713961508

> <r_i_glide_ligand_efficiency_sa>
-0.890977144281615

> <r_i_glide_ligand_efficiency_ln>
-1.92568812195848

> <r_i_glide_gscore>
-8.41004970488374

> <r_i_glide_lipo>
-2.86577745437742

> <r_i_glide_hbond>
-0.673346001978022

> <r_i_glide_metal>
0

> <r_i_glide_rewards>
-1.87435657791291

> <r_i_glide_evdw>
-44.2631645202637

> <r_i_glide_ecoul>
-8.19039821624756

> <r_i_glide_erotb>
0.506764619388513

> <r_i_glide_esite>
-0.0616163315535875

> <r_i_glide_emodel>
-78.7726579202876

> <r_i_glide_energy>
-52.4535627365112

> <r_i_glide_einternal>
3.32548213005066

> <i_i_glide_confnum>
26

> <i_i_glide_posenum>
172

> <r_i_glide_eff_state_penalty>
0

> <s_user_duplicate_titles>
CHEMBL3231_lig741

> <i_f3d_flags>
0

> <s_m_subgroup_title>
dock_pv

> <s_m_subgroupid>
dock_pv

> <b_m_subgroup_collapsed>
1

$$$$
CHEMBL3231_lig606
                    3D
 Schrodinger Suite 2021-1.
 41 43  0  0  1  0            999 V2000
   51.4247   97.6527   30.4138 C   0  0  0  0  0  0
   51.2436   98.4092   29.2176 O   0  0  0  0  0  0
   51.3468   99.7914   29.2410 C   0  0  0  0  0  0
   51.7190  100.5047   30.3961 C   0  0  0  0  0  0
   51.7540  101.9100   30.4141 C   0  0  0  0  0  0
   51.4526  102.5950   29.2355 C   0  0  0  0  0  0
   51.0904  101.9031   28.0867 C   0  0  0  0  0  0
   51.0204  100.5069   28.0722 C   0  0  0  0  0  0
   50.5452   99.8638   26.7990 C   0  0  0  0  0  0
   50.5829   98.5155   26.3898 C   0  0  0  0  0  0
   50.0427   98.3035   25.2111 N   0  0  0  0  0  0
   49.6547   99.5103   24.8107 N   0  0  0  0  0  0
   49.9376  100.4887   25.7150 C   0  0  0  0  0  0
   52.0120  102.6931   31.6831 C   0  0  0  0  0  0
   51.6432  103.8658   31.7762 O   0  0  0  0  0  0
   52.6010  102.0338   32.6973 N   0  0  0  0  0  0
   52.6920  102.5404   34.0698 C   0  0  0  0  0  0
   51.3332  102.7411   34.7487 C   0  0  0  0  0  0
   50.9363  104.0306   35.1268 C   0  0  0  0  0  0
   49.6968  104.2422   35.7323 C   0  0  0  0  0  0
   48.8456  103.1654   35.9750 C   0  0  0  0  0  0
   49.2343  101.8777   35.6105 C   0  0  0  0  0  0
   50.4705  101.6590   35.0032 C   0  0  0  0  0  0
   50.8117  100.3774   34.6562 O   0  0  0  0  0  0
   51.2430   96.5993   30.2041 H   0  0  0  0  0  0
   52.4428   97.7430   30.7923 H   0  0  0  0  0  0
   50.7203   97.9531   31.1917 H   0  0  0  0  0  0
   51.9365   99.9627   31.3029 H   0  0  0  0  0  0
   51.4763  103.6750   29.2010 H   0  0  0  0  0  0
   50.8430  102.4748   27.2053 H   0  0  0  0  0  0
   51.0001   97.6930   26.9538 H   0  0  0  0  0  0
   49.2115   99.6654   23.9093 H   0  0  0  0  0  0
   49.6689  101.5157   25.5157 H   0  0  0  0  0  0
   53.0990  101.1842   32.4805 H   0  0  0  0  0  0
   53.2647  103.4690   34.0663 H   0  0  0  0  0  0
   53.2799  101.8445   34.6694 H   0  0  0  0  0  0
   51.5845  104.8750   34.9392 H   0  0  0  0  0  0
   49.3971  105.2412   36.0141 H   0  0  0  0  0  0
   47.8857  103.3229   36.4447 H   0  0  0  0  0  0
   48.5705  101.0467   35.8013 H   0  0  0  0  0  0
   51.6605  100.3438   34.2094 H   0  0  0  0  0  0
  1  2  1  0  0  0
  1 25  1  0  0  0
  1 26  1  0  0  0
  1 27  1  0  0  0
  2  3  1  0  0  0
  3  4  2  0  0  0
  3  8  1  0  0  0
  4  5  1  0  0  0
  4 28  1  0  0  0
  5  6  2  0  0  0
  5 14  1  0  0  0
  6  7  1  0  0  0
  6 29  1  0  0  0
  7  8  2  0  0  0
  7 30  1  0  0  0
  8  9  1  0  0  0
  9 10  1  0  0  0
  9 13  2  0  0  0
 10 11  2  0  0  0
 10 31  1  0  0  0
 11 12  1  0  0  0
 12 13  1  0  0  0
 12 32  1  0  0  0
 13 33  1  0  0  0
 14 15  2  0  0  0
 14 16  1  0  0  0
 16 17  1  0  0  0
 16 34  1  0  0  0
 17 18  1  0  0  0
 17 35  1  0  0  0
 17 36  1  0  0  0
 18 19  2  0  0  0
 18 23  1  0  0  0
 19 20  1  0  0  0
 19 37  1  0  0  0
 20 21  2  0  0  0
 20 38  1  0  0  0
 21 22  1  0  0  0
 21 39  1  0  0  0
 22 23  2  0  0  0
 22 40  1  0  0  0
 23 24  1  0  0  0
 24 41  1  0  0  0
M  END
> <s_m_entry_id>
27943

> <s_m_entry_name>
dock_pv.104

> <s_m_Source_Path>
/home/csk/Desktop/cluster/DUD-E-result/rock1

> <s_m_Source_File>
dock_pv.maegz

> <i_m_Source_File_Index>
104

> <chembl_id>
CHEMBL3986384

> <chembl_pref_name>
None

> <i_lp_mmshare_version>
53161

> <r_lp_tautomer_probability>
0.499999999998682

> <s_lp_Force_Field>
OPLS_2005

> <r_lp_Energy>
21.180993

> <b_lp_Chiralities_Consistent>
1

> <s_lp_Variant>
CHEMBL3231_lig606-1

> <s_i_glide_gridfile>
glide-grid_2etr

> <i_i_glide_lignum>
892

> <i_i_glide_rotatable_bonds>
7

> <r_i_docking_score>
-8.38814528217011

> <r_i_glide_ligand_efficiency>
-0.349506053423755

> <r_i_glide_ligand_efficiency_sa>
-1.00814990967251

> <r_i_glide_ligand_efficiency_ln>
-2.00766807292944

> <r_i_glide_gscore>
-8.38814528217011

> <r_i_glide_lipo>
-2.82440824346576

> <r_i_glide_hbond>
-0.675236845497102

> <r_i_glide_metal>
0

> <r_i_glide_rewards>
-2.16128610070279

> <r_i_glide_evdw>
-41.3717842102051

> <r_i_glide_ecoul>
-8.2060718536377

> <r_i_glide_erotb>
0.626428429804721

> <r_i_glide_esite>
-0.0541425337532641

> <r_i_glide_emodel>
-74.145750076354

> <r_i_glide_energy>
-49.5778560638428

> <r_i_glide_einternal>
3.18673253059387

> <i_i_glide_confnum>
28

> <i_i_glide_posenum>
129

> <r_i_glide_eff_state_penalty>
0

> <s_user_duplicate_titles>
CHEMBL3231_lig606

> <i_f3d_flags>
0

> <s_m_subgroup_title>
dock_pv

> <s_m_subgroupid>
dock_pv

> <b_m_subgroup_collapsed>
1

$$$$
CHEMBL3231_lig827
                    3D
 Schrodinger Suite 2021-1.
 43 45  0  0  1  0            999 V2000
   54.0600  101.8176   34.6934 C   0  0  0  0  0  0
   52.9730  102.6307   33.9709 C   0  0  1  0  0  0
   52.7994  102.1405   32.6002 N   0  0  0  0  0  0
   52.0881  102.7615   31.6426 C   0  0  0  0  0  0
   51.6440  103.9029   31.7735 O   0  0  0  0  0  0
   51.7904  101.9682   30.3943 C   0  0  0  0  0  0
   51.4665  102.6261   29.2079 C   0  0  0  0  0  0
   51.0826  101.9029   28.0834 C   0  0  0  0  0  0
   50.9986  100.5031   28.0983 C   0  0  0  0  0  0
   51.3294   99.8270   29.2973 C   0  0  0  0  0  0
   51.2431   98.3029   29.4322 C   0  0  0  0  0  0
   51.2143   97.8082   30.7629 O   0  0  0  0  0  0
   51.7439  100.5700   30.4128 C   0  0  0  0  0  0
   50.5309   99.8549   26.8169 C   0  0  0  0  0  0
   50.6111   98.5177   26.3728 C   0  0  0  0  0  0
   50.0430   98.3033   25.2109 N   0  0  0  0  0  0
   49.6431   99.5087   24.8112 N   0  0  0  0  0  0
   49.9073  100.4773   25.7364 C   0  0  0  0  0  0
   51.6656  102.6494   34.7783 C   0  0  0  0  0  0
   51.2846  103.8060   35.4684 C   0  0  0  0  0  0
   50.0941  103.8302   36.1918 C   0  0  0  0  0  0
   49.2822  102.6988   36.2235 C   0  0  0  0  0  0
   49.6492  101.5431   35.5384 C   0  0  0  0  0  0
   50.8380  101.5197   34.8139 C   0  0  0  0  0  0
   54.2559  102.2215   35.6874 H   0  0  0  0  0  0
   53.7730  100.7717   34.8099 H   0  0  0  0  0  0
   55.0037  101.8389   34.1450 H   0  0  0  0  0  0
   53.3526  103.6538   33.8968 H   0  0  0  0  0  0
   53.3291  101.3203   32.3452 H   0  0  0  0  0  0
   51.4996  103.7055   29.1492 H   0  0  0  0  0  0
   50.8427  102.4617   27.1933 H   0  0  0  0  0  0
   50.3451   97.9164   28.9506 H   0  0  0  0  0  0
   52.1087   97.9037   28.9167 H   0  0  0  0  0  0
   51.3290   96.8520   30.7536 H   0  0  0  0  0  0
   51.9790  100.0480   31.3290 H   0  0  0  0  0  0
   51.0738   97.6909   26.8863 H   0  0  0  0  0  0
   49.1953   99.6647   23.9116 H   0  0  0  0  0  0
   49.6221  101.5024   25.5510 H   0  0  0  0  0  0
   51.9094  104.6873   35.4438 H   0  0  0  0  0  0
   49.8030  104.7221   36.7265 H   0  0  0  0  0  0
   48.3601  102.7107   36.7867 H   0  0  0  0  0  0
   49.0139  100.6702   35.5672 H   0  0  0  0  0  0
   51.1196  100.6237   34.2801 H   0  0  0  0  0  0
  1  2  1  0  0  0
  1 25  1  0  0  0
  1 26  1  0  0  0
  1 27  1  0  0  0
  2  3  1  0  0  0
  2 19  1  0  0  0
  2 28  1  0  0  0
  3  4  1  0  0  0
  3 29  1  0  0  0
  4  5  2  0  0  0
  4  6  1  0  0  0
  6  7  2  0  0  0
  6 13  1  0  0  0
  7  8  1  0  0  0
  7 30  1  0  0  0
  8  9  2  0  0  0
  8 31  1  0  0  0
  9 10  1  0  0  0
  9 14  1  0  0  0
 10 11  1  0  0  0
 10 13  2  0  0  0
 11 12  1  0  0  0
 11 32  1  0  0  0
 11 33  1  0  0  0
 12 34  1  0  0  0
 13 35  1  0  0  0
 14 15  1  0  0  0
 14 18  2  0  0  0
 15 16  2  0  0  0
 15 36  1  0  0  0
 16 17  1  0  0  0
 17 18  1  0  0  0
 17 37  1  0  0  0
 18 38  1  0  0  0
 19 20  2  0  0  0
 19 24  1  0  0  0
 20 21  1  0  0  0
 20 39  1  0  0  0
 21 22  2  0  0  0
 21 40  1  0  0  0
 22 23  1  0  0  0
 22 41  1  0  0  0
 23 24  2  0  0  0
 23 42  1  0  0  0
 24 43  1  0  0  0
M  END
> <s_m_entry_id>
27944

> <s_m_entry_name>
dock_pv.105

> <s_m_Source_Path>
/home/csk/Desktop/cluster/DUD-E-result/rock1

> <s_m_Source_File>
dock_pv.maegz

> <i_m_Source_File_Index>
105

> <chembl_id>
CHEMBL4114083

> <chembl_pref_name>
None

> <i_lp_mmshare_version>
53161

> <r_lp_tautomer_probability>
0.5

> <s_lp_Force_Field>
OPLS_2005

> <r_lp_Energy>
20.079063

> <b_lp_Chiralities_Consistent>
1

> <s_lp_Variant>
CHEMBL3231_lig827-1

> <s_i_glide_gridfile>
glide-grid_2etr

> <i_i_glide_lignum>
1156

> <i_i_glide_rotatable_bonds>
7

> <r_i_docking_score>
-8.38703482600456

> <r_i_glide_ligand_efficiency>
-0.349459784416857

> <r_i_glide_ligand_efficiency_sa>
-1.00801644676202

> <r_i_glide_ligand_efficiency_ln>
-2.00740228981351

> <r_i_glide_gscore>
-8.38703482600456

> <r_i_glide_lipo>
-2.91224679178994

> <r_i_glide_hbond>
-0.673301368886907

> <r_i_glide_metal>
0

> <r_i_glide_rewards>
-2.19355414803321

> <r_i_glide_evdw>
-39.7550239562988

> <r_i_glide_ecoul>
-7.98207569122314

> <r_i_glide_erotb>
0.633224769640335

> <r_i_glide_esite>
-0.0560947354364286

> <r_i_glide_emodel>
-70.4319346351955

> <r_i_glide_energy>
-47.737099647522

> <r_i_glide_einternal>
3.24968981742859

> <i_i_glide_confnum>
47

> <i_i_glide_posenum>
122

> <r_i_glide_eff_state_penalty>
0

> <s_user_duplicate_titles>
CHEMBL3231_lig827

> <i_f3d_flags>
0

> <s_m_subgroup_title>
dock_pv

> <s_m_subgroupid>
dock_pv

> <b_m_subgroup_collapsed>
1

$$$$
CHEMBL3231_lig770
                    3D
 Schrodinger Suite 2021-1.
 47 49  0  0  1  0            999 V2000
   50.2401  104.6746   28.4801 C   0  0  0  0  0  0
   50.8422  103.9038   29.5179 O   0  0  0  0  0  0
   51.0978  102.5568   29.3454 C   0  0  0  0  0  0
   50.7945  101.9007   28.1444 C   0  0  0  0  0  0
   51.0337  100.5378   27.9724 C   0  0  0  0  0  0
   51.6401   99.8260   29.0048 C   0  0  0  0  0  0
   51.9456  100.4556   30.2090 C   0  0  0  0  0  0
   51.6626  101.8205   30.4120 C   0  0  0  0  0  0
   51.8838  102.4546   31.7769 C   0  0  0  0  0  0
   51.3171  103.5024   32.0984 O   0  0  0  0  0  0
   52.6719  101.7852   32.6404 N   0  0  0  0  0  0
   52.9333  102.1569   34.0373 C   0  0  2  0  0  0
   54.0172  101.2452   34.6707 C   0  0  0  0  0  0
   53.6971   99.7387   34.8019 C   0  0  0  0  0  0
   53.5365   99.1196   33.5384 O   0  0  0  0  0  0
   51.6733  102.2691   34.9148 C   0  0  0  0  0  0
   51.5409  103.3494   35.7938 C   0  0  0  0  0  0
   50.3755  103.5095   36.5390 C   0  0  0  0  0  0
   49.3412  102.5863   36.4098 C   0  0  0  0  0  0
   49.4626  101.5007   35.5474 C   0  0  0  0  0  0
   50.6251  101.3470   34.7955 C   0  0  0  0  0  0
   50.5849   99.8741   26.7153 C   0  0  0  0  0  0
   50.5628   98.5055   26.3913 C   0  0  0  0  0  0
   50.0430   98.2571   25.2111 N   0  0  0  0  0  0
   49.7292   99.4594   24.7323 N   0  0  0  0  0  0
   50.0431  100.4741   25.5863 C   0  0  0  0  0  0
   50.1361  105.7082   28.8105 H   0  0  0  0  0  0
   50.8443  104.6854   27.5730 H   0  0  0  0  0  0
   49.2430  104.3039   28.2435 H   0  0  0  0  0  0
   50.3361  102.4457   27.3369 H   0  0  0  0  0  0
   51.8450   98.7701   28.8991 H   0  0  0  0  0  0
   52.3710   99.8437   30.9916 H   0  0  0  0  0  0
   53.1893  100.9870   32.3022 H   0  0  0  0  0  0
   53.3782  103.1553   33.9840 H   0  0  0  0  0  0
   54.9494  101.3528   34.1118 H   0  0  0  0  0  0
   54.2516  101.6327   35.6643 H   0  0  0  0  0  0
   54.4655   99.2245   35.3803 H   0  0  0  0  0  0
   52.7572   99.6038   35.3391 H   0  0  0  0  0  0
   54.4057   98.8559   33.2133 H   0  0  0  0  0  0
   52.3328  104.0775   35.8887 H   0  0  0  0  0  0
   50.2703  104.3508   37.2073 H   0  0  0  0  0  0
   48.4362  102.7087   36.9881 H   0  0  0  0  0  0
   48.6576  100.7870   35.4535 H   0  0  0  0  0  0
   50.7104  100.5132   34.1148 H   0  0  0  0  0  0
   50.9037   97.7000   27.0236 H   0  0  0  0  0  0
   49.2966   99.5823   23.8219 H   0  0  0  0  0  0
   49.8327  101.5016   25.3257 H   0  0  0  0  0  0
  1  2  1  0  0  0
  1 27  1  0  0  0
  1 28  1  0  0  0
  1 29  1  0  0  0
  2  3  1  0  0  0
  3  4  2  0  0  0
  3  8  1  0  0  0
  4  5  1  0  0  0
  4 30  1  0  0  0
  5  6  2  0  0  0
  5 22  1  0  0  0
  6  7  1  0  0  0
  6 31  1  0  0  0
  7  8  2  0  0  0
  7 32  1  0  0  0
  8  9  1  0  0  0
  9 10  2  0  0  0
  9 11  1  0  0  0
 11 12  1  0  0  0
 11 33  1  0  0  0
 12 13  1  0  0  0
 12 16  1  0  0  0
 12 34  1  0  0  0
 13 14  1  0  0  0
 13 35  1  0  0  0
 13 36  1  0  0  0
 14 15  1  0  0  0
 14 37  1  0  0  0
 14 38  1  0  0  0
 15 39  1  0  0  0
 16 17  2  0  0  0
 16 21  1  0  0  0
 17 18  1  0  0  0
 17 40  1  0  0  0
 18 19  2  0  0  0
 18 41  1  0  0  0
 19 20  1  0  0  0
 19 42  1  0  0  0
 20 21  2  0  0  0
 20 43  1  0  0  0
 21 44  1  0  0  0
 22 23  1  0  0  0
 22 26  2  0  0  0
 23 24  2  0  0  0
 23 45  1  0  0  0
 24 25  1  0  0  0
 25 26  1  0  0  0
 25 46  1  0  0  0
 26 47  1  0  0  0
M  END
> <s_m_entry_id>
27945

> <s_m_entry_name>
dock_pv.106

> <s_m_Source_Path>
/home/csk/Desktop/cluster/DUD-E-result/rock1

> <s_m_Source_File>
dock_pv.maegz

> <i_m_Source_File_Index>
106

> <chembl_id>
CHEMBL4108559

> <chembl_pref_name>
None

> <i_lp_mmshare_version>
53161

> <r_lp_tautomer_probability>
0.5

> <s_lp_Force_Field>
OPLS_2005

> <r_lp_Energy>
24.218893

> <b_lp_Chiralities_Consistent>
1

> <s_lp_Variant>
CHEMBL3231_lig770-1

> <s_i_glide_gridfile>
glide-grid_2etr

> <i_i_glide_lignum>
1091

> <i_i_glide_rotatable_bonds>
9

> <r_i_docking_score>
-8.38595763421259

> <r_i_glide_ligand_efficiency>
-0.3225368320851

> <r_i_glide_ligand_efficiency_sa>
-0.955514095930957

> <r_i_glide_ligand_efficiency_ln>
-1.96941463382348

> <r_i_glide_gscore>
-8.38595763421259

> <r_i_glide_lipo>
-2.86315243525072

> <r_i_glide_hbond>
-0.758795048442733

> <r_i_glide_metal>
0

> <r_i_glide_rewards>
-1.95183293296049

> <r_i_glide_evdw>
-42.005931854248

> <r_i_glide_ecoul>
-8.76314353942871

> <r_i_glide_erotb>
0.648715347840463

> <r_i_glide_esite>
-0.0461244417723969

> <r_i_glide_emodel>
-78.3614615917876

> <r_i_glide_energy>
-50.7690753936768

> <r_i_glide_einternal>
1.65417671203613

> <i_i_glide_confnum>
7

> <i_i_glide_posenum>
331

> <r_i_glide_eff_state_penalty>
0

> <s_user_duplicate_titles>
CHEMBL3231_lig770

> <i_f3d_flags>
0

> <s_m_subgroup_title>
dock_pv

> <s_m_subgroupid>
dock_pv

> <b_m_subgroup_collapsed>
1

$$$$
CHEMBL3231_lig1639
                    3D
 Schrodinger Suite 2021-1.
 49 54  0  0  1  0            999 V2000
   51.6693  101.5075   28.7615 S   0  0  0  0  0  0
   55.3323   93.6515   32.4114 O   0  0  0  0  0  0
   55.8359   96.2946   33.5803 N   0  0  0  0  0  0
   53.5895   97.5999   35.9867 N   0  0  0  0  0  0
   51.2603  102.3730   31.8626 N   0  0  0  0  0  0
   54.7307   95.7589   37.0886 N   0  0  0  0  0  0
   51.1699  103.0970   32.9895 N   0  0  0  0  0  0
   53.2429   97.0981   38.2394 N   0  0  0  0  0  0
   56.8359   94.3005   30.8886 N   0  0  0  0  0  0
   54.2781   97.9637   33.5703 C   0  0  0  0  0  0
   54.2938   97.3394   34.8713 C   0  0  0  0  0  0
   53.4597   99.1018   33.0647 C   0  0  0  0  0  0
   52.2929  100.1404   31.1630 C   0  0  0  0  0  0
   55.2521   96.2773   34.8310 C   0  0  0  0  0  0
   51.9682  101.1961   32.0354 C   0  0  0  0  0  0
   52.3429  101.2062   33.4015 C   0  0  0  0  0  0
   53.0500   99.1077   31.7272 C   0  0  0  0  0  0
   55.2471   97.2937   32.8423 C   0  0  0  0  0  0
   51.8344  100.0547   29.7361 C   0  0  0  0  0  0
   53.0853  100.1380   33.9224 C   0  0  0  0  0  0
   55.4293   95.4773   35.9637 C   0  0  0  0  0  0
   51.4911   98.9183   29.0255 C   0  0  0  0  0  0
   51.0308  100.5804   27.4154 C   0  0  0  0  0  0
   51.0055   99.1864   27.7160 C   0  0  0  0  0  0
   51.8040  102.4236   33.9131 C   0  0  0  0  0  0
   53.8742   96.8036   37.0471 C   0  0  0  0  0  0
   56.8550   95.3831   33.0800 C   0  0  0  0  0  0
   50.5750  101.0750   26.1833 C   0  0  0  0  0  0
   50.5107   98.3012   26.7442 C   0  0  0  0  0  0
   56.2864   94.3586   32.1001 C   0  0  0  0  0  0
   50.0803  100.1644   25.2524 C   0  0  0  0  0  0
   50.0458   98.8021   25.5305 C   0  0  0  0  0  0
   50.8597  102.7000   30.9993 H   0  0  0  0  0  0
   53.4447   96.5141   39.0351 H   0  0  0  0  0  0
   52.5665   97.8503   38.2910 H   0  0  0  0  0  0
   57.5731   94.9579   30.6353 H   0  0  0  0  0  0
   56.5042   93.6269   30.2117 H   0  0  0  0  0  0
   53.3319   98.2738   31.1016 H   0  0  0  0  0  0
   55.5893   97.4576   31.8304 H   0  0  0  0  0  0
   53.3855  100.1308   34.9590 H   0  0  0  0  0  0
   56.1208   94.6456   35.9944 H   0  0  0  0  0  0
   51.5373   97.9230   29.4389 H   0  0  0  0  0  0
   51.8799  102.8042   34.9199 H   0  0  0  0  0  0
   57.6437   95.9738   32.6086 H   0  0  0  0  0  0
   57.3221   94.8636   33.9145 H   0  0  0  0  0  0
   50.5922  102.1330   25.9683 H   0  0  0  0  0  0
   50.4722   97.2388   26.9429 H   0  0  0  0  0  0
   49.7090  100.5230   24.2992 H   0  0  0  0  0  0
   49.6419   98.1255   24.7952 H   0  0  0  0  0  0
  1 19  1  0  0  0
  1 23  1  0  0  0
  2 30  2  0  0  0
  3 14  1  0  0  0
  3 18  1  0  0  0
  3 27  1  0  0  0
  4 11  2  0  0  0
  4 26  1  0  0  0
  5  7  1  0  0  0
  5 15  1  0  0  0
  5 33  1  0  0  0
  6 21  1  0  0  0
  6 26  2  0  0  0
  7 25  2  0  0  0
  8 26  1  0  0  0
  8 34  1  0  0  0
  8 35  1  0  0  0
  9 30  1  0  0  0
  9 36  1  0  0  0
  9 37  1  0  0  0
 10 11  1  0  0  0
 10 12  1  0  0  0
 10 18  2  0  0  0
 11 14  1  0  0  0
 12 17  2  0  0  0
 12 20  1  0  0  0
 13 15  2  0  0  0
 13 17  1  0  0  0
 13 19  1  0  0  0
 14 21  2  0  0  0
 15 16  1  0  0  0
 16 20  2  0  0  0
 16 25  1  0  0  0
 17 38  1  0  0  0
 18 39  1  0  0  0
 19 22  2  0  0  0
 20 40  1  0  0  0
 21 41  1  0  0  0
 22 24  1  0  0  0
 22 42  1  0  0  0
 23 24  1  0  0  0
 23 28  2  0  0  0
 24 29  2  0  0  0
 25 43  1  0  0  0
 27 30  1  0  0  0
 27 44  1  0  0  0
 27 45  1  0  0  0
 28 31  1  0  0  0
 28 46  1  0  0  0
 29 32  1  0  0  0
 29 47  1  0  0  0
 31 32  2  0  0  0
 31 48  1  0  0  0
 32 49  1  0  0  0
M  END
> <s_m_entry_id>
27946

> <s_m_entry_name>
dock_pv.107

> <s_m_Source_Path>
/home/csk/Desktop/cluster/DUD-E-result/rock1

> <s_m_Source_File>
dock_pv.maegz

> <i_m_Source_File_Index>
107

> <chembl_id>
CHEMBL1985095

> <chembl_pref_name>
None

> <i_lp_mmshare_version>
53161

> <r_lp_tautomer_probability>
0.980392156862745

> <s_lp_Force_Field>
OPLS_2005

> <r_lp_Energy>
15.89417

> <b_lp_Chiralities_Consistent>
1

> <s_lp_Variant>
CHEMBL3231_lig1639-1

> <s_i_glide_gridfile>
glide-grid_2etr

> <i_i_glide_lignum>
2340

> <i_i_glide_rotatable_bonds>
4

> <r_i_docking_score>
-8.38273976889593

> <r_i_glide_ligand_efficiency>
-0.261960617777998

> <r_i_glide_ligand_efficiency_sa>
-0.83167311950928

> <r_i_glide_ligand_efficiency_ln>
-1.87712393911169

> <r_i_glide_gscore>
-8.38273976889593

> <r_i_glide_lipo>
-2.4420575991421

> <r_i_glide_hbond>
-0.817157398264755

> <r_i_glide_metal>
0

> <r_i_glide_rewards>
-1.27913602727245

> <r_i_glide_evdw>
-45.0294189453125

> <r_i_glide_ecoul>
-11.6981287002563

> <r_i_glide_erotb>
0.309990854595884

> <r_i_glide_esite>
-0.148189346508437

> <r_i_glide_emodel>
-85.2048190716653

> <r_i_glide_energy>
-56.7275476455688

> <r_i_glide_einternal>
3.27604484558105

> <i_i_glide_confnum>
6

> <i_i_glide_posenum>
301

> <r_i_glide_eff_state_penalty>
0

> <s_user_duplicate_titles>
CHEMBL3231_lig1639,CHEMBL3231_lig1639

> <i_f3d_flags>
0

> <s_m_subgroup_title>
dock_pv

> <s_m_subgroupid>
dock_pv

> <b_m_subgroup_collapsed>
1

$$$$
CHEMBL3231_lig590
                    3D
 Schrodinger Suite 2021-1.
 39 41  0  0  1  0            999 V2000
   51.4385   97.6608   30.4078 C   0  0  0  0  0  0
   51.2499   98.4120   29.2122 O   0  0  0  0  0  0
   51.3572   99.7944   29.2302 C   0  0  0  0  0  0
   51.7340  100.5135   30.3790 C   0  0  0  0  0  0
   51.7656  101.9179   30.3935 C   0  0  0  0  0  0
   51.4608  102.5988   29.2133 C   0  0  0  0  0  0
   51.0953  101.9025   28.0686 C   0  0  0  0  0  0
   51.0234  100.5056   28.0608 C   0  0  0  0  0  0
   50.5437   99.8600   26.7925 C   0  0  0  0  0  0
   50.5831   98.5106   26.3866 C   0  0  0  0  0  0
   50.0436   98.2932   25.2121 N   0  0  0  0  0  0
   49.6437   99.4985   24.8104 N   0  0  0  0  0  0
   49.9241  100.4794   25.7130 C   0  0  0  0  0  0
   52.0226  102.7051   31.6588 C   0  0  0  0  0  0
   51.6433  103.8753   31.7500 O   0  0  0  0  0  0
   52.6198  102.0553   32.6740 N   0  0  0  0  0  0
   52.6796  102.5516   34.0502 C   0  0  0  0  0  0
   51.3167  102.5900   34.7396 C   0  0  0  0  0  0
   50.6108  101.4097   35.0062 C   0  0  0  0  0  0
   49.3569  101.5040   35.6113 C   0  0  0  0  0  0
   48.8418  102.7596   35.9377 C   0  0  0  0  0  0
   49.6100  103.8887   35.6488 C   0  0  0  0  0  0
   50.8307  103.8224   35.0571 N   0  0  0  0  0  0
   51.2431   96.6087   30.2013 H   0  0  0  0  0  0
   52.4640   97.7387   30.7718 H   0  0  0  0  0  0
   50.7499   97.9682   31.1956 H   0  0  0  0  0  0
   51.9588   99.9750   31.2856 H   0  0  0  0  0  0
   51.4823  103.6804   29.1789 H   0  0  0  0  0  0
   50.8427  102.4733   27.1898 H   0  0  0  0  0  0
   51.0009   97.6898   26.9485 H   0  0  0  0  0  0
   49.1950   99.6477   23.9124 H   0  0  0  0  0  0
   49.6486  101.5049   25.5186 H   0  0  0  0  0  0
   53.0422  101.1591   32.4861 H   0  0  0  0  0  0
   53.1572  103.5345   34.0719 H   0  0  0  0  0  0
   53.3315  101.8890   34.6210 H   0  0  0  0  0  0
   51.0210  100.4453   34.7427 H   0  0  0  0  0  0
   48.7932  100.6110   35.8277 H   0  0  0  0  0  0
   47.8761  102.8485   36.4102 H   0  0  0  0  0  0
   49.2539  104.8775   35.8950 H   0  0  0  0  0  0
  1  2  1  0  0  0
  1 24  1  0  0  0
  1 25  1  0  0  0
  1 26  1  0  0  0
  2  3  1  0  0  0
  3  4  2  0  0  0
  3  8  1  0  0  0
  4  5  1  0  0  0
  4 27  1  0  0  0
  5  6  2  0  0  0
  5 14  1  0  0  0
  6  7  1  0  0  0
  6 28  1  0  0  0
  7  8  2  0  0  0
  7 29  1  0  0  0
  8  9  1  0  0  0
  9 10  1  0  0  0
  9 13  2  0  0  0
 10 11  2  0  0  0
 10 30  1  0  0  0
 11 12  1  0  0  0
 12 13  1  0  0  0
 12 31  1  0  0  0
 13 32  1  0  0  0
 14 15  2  0  0  0
 14 16  1  0  0  0
 16 17  1  0  0  0
 16 33  1  0  0  0
 17 18  1  0  0  0
 17 34  1  0  0  0
 17 35  1  0  0  0
 18 19  2  0  0  0
 18 23  1  0  0  0
 19 20  1  0  0  0
 19 36  1  0  0  0
 20 21  2  0  0  0
 20 37  1  0  0  0
 21 22  1  0  0  0
 21 38  1  0  0  0
 22 23  2  0  0  0
 22 39  1  0  0  0
M  END
> <s_m_entry_id>
27947

> <s_m_entry_name>
dock_pv.108

> <s_m_Source_Path>
/home/csk/Desktop/cluster/DUD-E-result/rock1

> <s_m_Source_File>
dock_pv.maegz

> <i_m_Source_File_Index>
108

> <chembl_id>
CHEMBL3972689

> <chembl_pref_name>
None

> <i_lp_mmshare_version>
53161

> <r_lp_tautomer_probability>
0.5

> <s_lp_Force_Field>
OPLS_2005

> <r_lp_Energy>
16.174401

> <b_lp_Chiralities_Consistent>
1

> <s_lp_Variant>
CHEMBL3231_lig590-1

> <s_i_glide_gridfile>
glide-grid_2etr

> <i_i_glide_lignum>
875

> <i_i_glide_rotatable_bonds>
6

> <r_i_docking_score>
-8.37929400927583

> <r_i_glide_ligand_efficiency>
-0.36431713083808

> <r_i_glide_ligand_efficiency_sa>
-1.03606945750181

> <r_i_glide_ligand_efficiency_ln>
-2.02618927068024

> <r_i_glide_gscore>
-8.37929400927583

> <r_i_glide_lipo>
-2.88884915198212

> <r_i_glide_hbond>
-0.679692648526833

> <r_i_glide_metal>
0

> <r_i_glide_rewards>
-2.26163049397467

> <r_i_glide_evdw>
-39.8804092407227

> <r_i_glide_ecoul>
-6.9679651260376

> <r_i_glide_erotb>
0.544861122416982

> <r_i_glide_esite>
-0.0547676062674168

> <r_i_glide_emodel>
-69.155652792468

> <r_i_glide_energy>
-46.8483743667603

> <r_i_glide_einternal>
3.737224817276

> <i_i_glide_confnum>
11

> <i_i_glide_posenum>
382

> <r_i_glide_eff_state_penalty>
0

> <s_user_duplicate_titles>
CHEMBL3231_lig590

> <i_f3d_flags>
0

> <s_m_subgroup_title>
dock_pv

> <s_m_subgroupid>
dock_pv

> <b_m_subgroup_collapsed>
1

$$$$
CHEMBL3231_lig624
                    3D
 Schrodinger Suite 2021-1.
 44 46  0  0  1  0            999 V2000
   51.0888  106.3212   36.9698 C   0  0  0  0  0  0
   49.9638  105.4499   37.0140 O   0  0  0  0  0  0
   50.0601  104.2005   36.4299 C   0  0  0  0  0  0
   48.9226  103.3954   36.4918 C   0  0  0  0  0  0
   48.9259  102.1159   35.9400 C   0  0  0  0  0  0
   50.0675  101.6195   35.3166 C   0  0  0  0  0  0
   50.0519  100.3647   34.8105 F   0  0  0  0  0  0
   51.2176  102.4125   35.2281 C   0  0  0  0  0  0
   52.4777  101.8864   34.5341 C   0  0  0  0  0  0
   52.3064  101.4913   33.1302 N   0  0  0  0  0  0
   51.9043  102.3140   32.1438 C   0  0  0  0  0  0
   51.6426  103.5031   32.3463 O   0  0  0  0  0  0
   51.7161  101.7172   30.7614 C   0  0  0  0  0  0
   51.9474  100.3633   30.4737 C   0  0  0  0  0  0
   51.6450   99.8437   29.2139 C   0  0  0  0  0  0
   51.1100  100.6533   28.2021 C   0  0  0  0  0  0
   50.9350  102.0284   28.4571 C   0  0  0  0  0  0
   50.4428  102.8395   27.4520 O   0  0  0  0  0  0
   50.3115  104.2456   27.6649 C   0  0  0  0  0  0
   51.2431  102.5333   29.7290 C   0  0  0  0  0  0
   50.7048  100.0073   26.9010 C   0  0  0  0  0  0
   50.4430   98.6459   26.6365 C   0  0  0  0  0  0
   50.0432   98.4038   25.4067 N   0  0  0  0  0  0
   50.0475   99.6024   24.8220 N   0  0  0  0  0  0
   50.4619  100.5960   25.6653 C   0  0  0  0  0  0
   51.2085  103.6972   35.7904 C   0  0  0  0  0  0
   50.8446  107.2530   37.4801 H   0  0  0  0  0  0
   51.9528  105.8875   37.4765 H   0  0  0  0  0  0
   51.3632  106.5694   35.9431 H   0  0  0  0  0  0
   48.0304  103.7617   36.9785 H   0  0  0  0  0  0
   48.0430  101.5029   36.0068 H   0  0  0  0  0  0
   52.8251  101.0142   35.0897 H   0  0  0  0  0  0
   53.2897  102.6140   34.5952 H   0  0  0  0  0  0
   52.5627  100.5462   32.8922 H   0  0  0  0  0  0
   52.3280   99.6848   31.2229 H   0  0  0  0  0  0
   51.8113   98.7909   29.0401 H   0  0  0  0  0  0
   50.0445  104.7313   26.7265 H   0  0  0  0  0  0
   49.5216  104.4611   28.3858 H   0  0  0  0  0  0
   51.2411  104.7024   28.0087 H   0  0  0  0  0  0
   51.0897  103.5789   29.9379 H   0  0  0  0  0  0
   50.5173   97.8406   27.3529 H   0  0  0  0  0  0
   49.7541   99.7400   23.8613 H   0  0  0  0  0  0
   50.5174  101.6182   25.3278 H   0  0  0  0  0  0
   52.0995  104.3028   35.7145 H   0  0  0  0  0  0
  1  2  1  0  0  0
  1 27  1  0  0  0
  1 28  1  0  0  0
  1 29  1  0  0  0
  2  3  1  0  0  0
  3  4  2  0  0  0
  3 26  1  0  0  0
  4  5  1  0  0  0
  4 30  1  0  0  0
  5  6  2  0  0  0
  5 31  1  0  0  0
  6  7  1  0  0  0
  6  8  1  0  0  0
  8  9  1  0  0  0
  8 26  2  0  0  0
  9 10  1  0  0  0
  9 32  1  0  0  0
  9 33  1  0  0  0
 10 11  1  0  0  0
 10 34  1  0  0  0
 11 12  2  0  0  0
 11 13  1  0  0  0
 13 14  2  0  0  0
 13 20  1  0  0  0
 14 15  1  0  0  0
 14 35  1  0  0  0
 15 16  2  0  0  0
 15 36  1  0  0  0
 16 17  1  0  0  0
 16 21  1  0  0  0
 17 18  1  0  0  0
 17 20  2  0  0  0
 18 19  1  0  0  0
 19 37  1  0  0  0
 19 38  1  0  0  0
 19 39  1  0  0  0
 20 40  1  0  0  0
 21 22  1  0  0  0
 21 25  2  0  0  0
 22 23  2  0  0  0
 22 41  1  0  0  0
 23 24  1  0  0  0
 24 25  1  0  0  0
 24 42  1  0  0  0
 25 43  1  0  0  0
 26 44  1  0  0  0
M  END
> <s_m_entry_id>
27948

> <s_m_entry_name>
dock_pv.109

> <s_m_Source_Path>
/home/csk/Desktop/cluster/DUD-E-result/rock1

> <s_m_Source_File>
dock_pv.maegz

> <i_m_Source_File_Index>
109

> <chembl_id>
CHEMBL3892122

> <chembl_pref_name>
None

> <i_lp_mmshare_version>
53161

> <r_lp_tautomer_probability>
0.5

> <s_lp_Force_Field>
OPLS_2005

> <r_lp_Energy>
23.968423

> <b_lp_Chiralities_Consistent>
1

> <s_lp_Variant>
CHEMBL3231_lig624-1

> <s_i_glide_gridfile>
glide-grid_2etr

> <i_i_glide_lignum>
910

> <i_i_glide_rotatable_bonds>
7

> <r_i_docking_score>
-8.37591716936365

> <r_i_glide_ligand_efficiency>
-0.32215066036014

> <r_i_glide_ligand_efficiency_sa>
-0.954370063715278

> <r_i_glide_ligand_efficiency_ln>
-1.96705666359916

> <r_i_glide_gscore>
-8.37591716936365

> <r_i_glide_lipo>
-3.03107551976828

> <r_i_glide_hbond>
-0.358835663036355

> <r_i_glide_metal>
0

> <r_i_glide_rewards>
-2.52010664927225

> <r_i_glide_evdw>
-43.4632225036621

> <r_i_glide_ecoul>
-5.25317144393921

> <r_i_glide_erotb>
0.529912725680081

> <r_i_glide_esite>
-0.0346752211928638

> <r_i_glide_emodel>
-71.84934252196

> <r_i_glide_energy>
-48.7163939476013

> <r_i_glide_einternal>
5.74287748336792

> <i_i_glide_confnum>
53

> <i_i_glide_posenum>
299

> <r_i_glide_eff_state_penalty>
0

> <s_user_duplicate_titles>
CHEMBL3231_lig624

> <i_f3d_flags>
0

> <s_m_subgroup_title>
dock_pv

> <s_m_subgroupid>
dock_pv

> <b_m_subgroup_collapsed>
1

$$$$
CHEMBL3231_lig1270
                    3D
 Schrodinger Suite 2021-1.
 51 53  0  0  1  0            999 V2000
   50.7788  101.5672   25.6340 F   0  0  0  0  0  0
   51.6431  103.9030   32.1253 O   0  0  0  0  0  0
   50.6597  103.4603   37.0306 O   0  0  0  0  0  0
   53.7832  103.1830   32.1292 N   0  0  0  0  0  0
   50.0430   98.0488   25.2110 N   0  0  0  0  0  0
   51.4385  100.6797   28.3208 C   0  0  0  0  0  0
   50.9888   99.7739   27.2265 C   0  0  0  0  0  0
   52.2287  102.3621   30.4281 C   0  0  0  0  0  0
   52.5381  103.2241   31.6220 C   0  0  0  0  0  0
   50.6390  100.2629   25.9534 C   0  0  0  0  0  0
   50.8401  101.9311   28.4967 C   0  0  0  0  0  0
   52.4459  100.2870   29.2096 C   0  0  0  0  0  0
   53.4392  103.0296   34.5781 C   0  0  0  0  0  0
   54.1302  103.7698   33.4288 C   0  0  1  0  0  0
   51.2353  102.7677   29.5318 C   0  0  0  0  0  0
   52.8467  101.1188   30.2503 C   0  0  0  0  0  0
   50.8920   98.3893   27.4434 C   0  0  0  0  0  0
   52.4200  103.6521   35.3060 C   0  0  0  0  0  0
   51.7297  102.9579   36.3137 C   0  0  0  0  0  0
   50.1546   99.3806   24.9920 C   0  0  0  0  0  0
   53.8014  101.7122   34.8895 C   0  0  0  0  0  0
   50.4413   97.5683   26.4109 C   0  0  0  0  0  0
   52.1325  101.6537   36.6189 C   0  0  0  0  0  0
   53.1591  101.0319   35.9159 C   0  0  0  0  0  0
   55.6430  103.8151   33.6383 C   0  0  0  0  0  0
   49.9573  104.6230   36.5885 C   0  0  0  0  0  0
   48.4517  104.3211   36.6260 C   0  0  0  0  0  0
   48.0423  103.2333   35.6199 C   0  0  0  0  0  0
   54.5354  102.8033   31.5728 H   0  0  0  0  0  0
   50.0459  102.2584   27.8417 H   0  0  0  0  0  0
   52.9281   99.3272   29.1054 H   0  0  0  0  0  0
   53.7989  104.8132   33.4169 H   0  0  0  0  0  0
   50.7392  103.7210   29.6408 H   0  0  0  0  0  0
   53.6108  100.7720   30.9329 H   0  0  0  0  0  0
   51.1572   97.9501   28.3944 H   0  0  0  0  0  0
   52.1690  104.6688   35.0512 H   0  0  0  0  0  0
   49.8684   99.7383   24.0128 H   0  0  0  0  0  0
   54.5755  101.2051   34.3316 H   0  0  0  0  0  0
   50.3879   96.4985   26.5327 H   0  0  0  0  0  0
   51.6429  101.0943   37.3986 H   0  0  0  0  0  0
   53.4477  100.0196   36.1582 H   0  0  0  0  0  0
   55.8968  104.3523   34.5512 H   0  0  0  0  0  0
   56.0427  102.8087   33.7248 H   0  0  0  0  0  0
   56.1542  104.3030   32.8109 H   0  0  0  0  0  0
   50.1962  104.9575   35.5801 H   0  0  0  0  0  0
   50.1963  105.4467   37.2615 H   0  0  0  0  0  0
   47.8959  105.2344   36.4081 H   0  0  0  0  0  0
   48.1597  104.0180   37.6321 H   0  0  0  0  0  0
   46.9594  103.1044   35.6081 H   0  0  0  0  0  0
   48.4894  102.2706   35.8736 H   0  0  0  0  0  0
   48.3556  103.4885   34.6087 H   0  0  0  0  0  0
  1 10  1  0  0  0
  2  9  2  0  0  0
  3 19  1  0  0  0
  3 26  1  0  0  0
  4  9  1  0  0  0
  4 14  1  0  0  0
  4 29  1  0  0  0
  5 20  1  0  0  0
  5 22  2  0  0  0
  6  7  1  0  0  0
  6 11  2  0  0  0
  6 12  1  0  0  0
  7 10  1  0  0  0
  7 17  2  0  0  0
  8  9  1  0  0  0
  8 15  2  0  0  0
  8 16  1  0  0  0
 10 20  2  0  0  0
 11 15  1  0  0  0
 11 30  1  0  0  0
 12 16  2  0  0  0
 12 31  1  0  0  0
 13 14  1  0  0  0
 13 18  2  0  0  0
 13 21  1  0  0  0
 14 25  1  0  0  0
 14 32  1  0  0  0
 15 33  1  0  0  0
 16 34  1  0  0  0
 17 22  1  0  0  0
 17 35  1  0  0  0
 18 19  1  0  0  0
 18 36  1  0  0  0
 19 23  2  0  0  0
 20 37  1  0  0  0
 21 24  2  0  0  0
 21 38  1  0  0  0
 22 39  1  0  0  0
 23 24  1  0  0  0
 23 40  1  0  0  0
 24 41  1  0  0  0
 25 42  1  0  0  0
 25 43  1  0  0  0
 25 44  1  0  0  0
 26 27  1  0  0  0
 26 45  1  0  0  0
 26 46  1  0  0  0
 27 28  1  0  0  0
 27 47  1  0  0  0
 27 48  1  0  0  0
 28 49  1  0  0  0
 28 50  1  0  0  0
 28 51  1  0  0  0
M  END
> <s_m_entry_id>
27949

> <s_m_entry_name>
dock_pv.110

> <s_m_Source_Path>
/home/csk/Desktop/cluster/DUD-E-result/rock1

> <s_m_Source_File>
dock_pv.maegz

> <i_m_Source_File_Index>
110

> <chembl_id>
CHEMBL1971606

> <chembl_pref_name>
None

> <i_lp_mmshare_version>
53161

> <r_lp_tautomer_probability>
1

> <s_lp_Force_Field>
OPLS_2005

> <r_lp_Energy>
19.226383

> <b_lp_Chiralities_Consistent>
1

> <s_lp_Variant>
CHEMBL3231_lig1270-2

> <s_i_glide_gridfile>
glide-grid_2etr

> <i_i_glide_lignum>
1768

> <i_i_glide_rotatable_bonds>
8

> <r_i_docking_score>
-8.37194983640042

> <r_i_glide_ligand_efficiency>
-0.298998208442872

> <r_i_glide_ligand_efficiency_sa>
-0.907934661359732

> <r_i_glide_ligand_efficiency_ln>
-1.93249183336958

> <r_i_glide_gscore>
-8.37194983640042

> <r_i_glide_lipo>
-3.07979441239938

> <r_i_glide_hbond>
-0.440292316508323

> <r_i_glide_metal>
0

> <r_i_glide_rewards>
-2.60497667411978

> <r_i_glide_evdw>
-44.6733932495117

> <r_i_glide_ecoul>
-5.87437057495117

> <r_i_glide_erotb>
0.947198497139605

> <r_i_glide_esite>
-0.0792596817942808

> <r_i_glide_emodel>
-72.2977661527935

> <r_i_glide_energy>
-50.5477638244629

> <r_i_glide_einternal>
7.93966579437256

> <i_i_glide_confnum>
91

> <i_i_glide_posenum>
96

> <r_i_glide_eff_state_penalty>
0

> <s_user_duplicate_titles>
CHEMBL3231_lig1270

> <i_f3d_flags>
0

> <s_m_subgroup_title>
dock_pv

> <s_m_subgroupid>
dock_pv

> <b_m_subgroup_collapsed>
1

$$$$
CHEMBL3231_lig1109
                    3D
 Schrodinger Suite 2021-1.
 40 42  0  0  1  0            999 V2000
   51.8495  103.9030   31.1909 O   0  0  0  0  0  0
   52.3029   99.6736   29.8956 N   0  0  0  0  0  0
   50.8172  100.2664   26.5674 N   0  0  0  0  0  0
   50.0448   98.2808   25.4245 N   0  0  0  0  0  0
   54.0434  103.4535   30.8812 N   0  0  0  0  0  0
   49.9491  100.3765   24.4110 N   0  0  0  0  0  0
   52.7456  100.6036   30.8029 C   0  0  0  0  0  0
   52.4615  101.8605   30.2606 C   0  0  0  0  0  0
   51.7459  100.2677   28.7892 C   0  0  0  0  0  0
   53.3709  100.1880   32.0890 C   0  0  0  0  0  0
   51.8621  101.6377   29.0118 C   0  0  0  0  0  0
   51.1750   99.5076   27.6379 C   0  0  0  0  0  0
   52.6819  100.1948   33.3203 C   0  0  0  0  0  0
   52.7482  103.1443   30.8265 C   0  0  0  0  0  0
   54.6989   99.7540   32.0321 C   0  0  0  0  0  0
   53.3396   99.7343   34.4803 C   0  0  0  0  0  0
   50.9973   98.1173   27.6410 C   0  0  0  0  0  0
   50.2731   99.6105   25.5127 C   0  0  0  0  0  0
   55.3473   99.3178   33.1832 C   0  0  0  0  0  0
   54.6691   99.3027   34.3994 C   0  0  0  0  0  0
   50.4413   97.5438   26.4918 C   0  0  0  0  0  0
   51.2434  100.7053   33.3983 C   0  0  0  0  0  0
   52.6366   99.6682   35.8296 C   0  0  0  0  0  0
   52.3785   98.6748   30.0305 H   0  0  0  0  0  0
   54.7422  102.7791   30.6021 H   0  0  0  0  0  0
   54.3431  104.3650   31.2018 H   0  0  0  0  0  0
   49.3991   99.9749   23.6584 H   0  0  0  0  0  0
   50.0472  101.3782   24.4957 H   0  0  0  0  0  0
   51.5318  102.4100   28.3327 H   0  0  0  0  0  0
   55.2394   99.7553   31.0958 H   0  0  0  0  0  0
   51.2682   97.5087   28.4880 H   0  0  0  0  0  0
   56.3733   98.9831   33.1254 H   0  0  0  0  0  0
   55.1859   98.9491   35.2779 H   0  0  0  0  0  0
   50.2944   96.4778   26.4110 H   0  0  0  0  0  0
   51.0106  101.1306   34.3747 H   0  0  0  0  0  0
   51.0625  101.5111   32.6906 H   0  0  0  0  0  0
   50.5383   99.9030   33.1915 H   0  0  0  0  0  0
   51.6490   99.2141   35.7268 H   0  0  0  0  0  0
   53.1870   99.0607   36.5505 H   0  0  0  0  0  0
   52.5042  100.6694   36.2435 H   0  0  0  0  0  0
  1 14  2  0  0  0
  2  7  1  0  0  0
  2  9  1  0  0  0
  2 24  1  0  0  0
  3 12  1  0  0  0
  3 18  2  0  0  0
  4 18  1  0  0  0
  4 21  2  0  0  0
  5 14  1  0  0  0
  5 25  1  0  0  0
  5 26  1  0  0  0
  6 18  1  0  0  0
  6 27  1  0  0  0
  6 28  1  0  0  0
  7  8  2  0  0  0
  7 10  1  0  0  0
  8 11  1  0  0  0
  8 14  1  0  0  0
  9 11  2  0  0  0
  9 12  1  0  0  0
 10 13  2  0  0  0
 10 15  1  0  0  0
 11 29  1  0  0  0
 12 17  2  0  0  0
 13 16  1  0  0  0
 13 22  1  0  0  0
 15 19  2  0  0  0
 15 30  1  0  0  0
 16 20  2  0  0  0
 16 23  1  0  0  0
 17 21  1  0  0  0
 17 31  1  0  0  0
 19 20  1  0  0  0
 19 32  1  0  0  0
 20 33  1  0  0  0
 21 34  1  0  0  0
 22 35  1  0  0  0
 22 36  1  0  0  0
 22 37  1  0  0  0
 23 38  1  0  0  0
 23 39  1  0  0  0
 23 40  1  0  0  0
M  END
> <s_m_entry_id>
27950

> <s_m_entry_name>
dock_pv.111

> <s_m_Source_Path>
/home/csk/Desktop/cluster/DUD-E-result/rock1

> <s_m_Source_File>
dock_pv.maegz

> <i_m_Source_File_Index>
111

> <chembl_id>
CHEMBL1964290

> <chembl_pref_name>
None

> <i_lp_mmshare_version>
53161

> <r_lp_tautomer_probability>
0.999999987636

> <s_lp_Force_Field>
OPLS_2005

> <r_lp_Energy>
1.922295

> <b_lp_Chiralities_Consistent>
1

> <s_lp_Variant>
CHEMBL3231_lig1109-1

> <s_i_glide_gridfile>
glide-grid_2etr

> <i_i_glide_lignum>
1534

> <i_i_glide_rotatable_bonds>
3

> <r_i_docking_score>
-8.36378090483383

> <r_i_glide_ligand_efficiency>
-0.363642648036253

> <r_i_glide_ligand_efficiency_sa>
-1.03415131813523

> <r_i_glide_ligand_efficiency_ln>
-2.02243806136111

> <r_i_glide_gscore>
-8.36378090483383

> <r_i_glide_lipo>
-1.34805969732239

> <r_i_glide_hbond>
-0.802514418427594

> <r_i_glide_metal>
0

> <r_i_glide_rewards>
-2.83352422727273

> <r_i_glide_evdw>
-37.1819648742676

> <r_i_glide_ecoul>
-11.4697265625

> <r_i_glide_erotb>
0.27396414438032

> <r_i_glide_esite>
-0.0740894781030588

> <r_i_glide_emodel>
-71.3248334334955

> <r_i_glide_energy>
-48.6516914367676

> <r_i_glide_einternal>
5.65087080001831

> <i_i_glide_confnum>
2

> <i_i_glide_posenum>
254

> <r_i_glide_eff_state_penalty>
0

> <s_user_duplicate_titles>
CHEMBL3231_lig1109

> <i_f3d_flags>
0

> <s_m_subgroup_title>
dock_pv

> <s_m_subgroupid>
dock_pv

> <b_m_subgroup_collapsed>
1

$$$$
CHEMBL3231_lig1120
                    3D
 Schrodinger Suite 2021-1.
 34 37  0  0  1  0            999 V2000
   51.0053  101.2214   28.2573 C   0  0  0  0  0  0
   50.4445  101.9775   27.2196 C   0  0  0  0  0  0
   50.0433  101.4128   26.0113 C   0  0  0  0  0  0
   51.1451   99.8341   28.1053 C   0  0  0  0  0  0
   50.6876   99.2301   26.9219 C   0  0  0  0  0  0
   50.1571  100.0365   25.8910 C   0  0  0  0  0  0
   49.8137   99.1805   24.8701 N   0  0  0  0  0  0
   50.0433   97.9046   25.2110 N   0  0  0  0  0  0
   50.5703   97.9063   26.4081 C   0  0  0  0  0  0
   51.4227  101.8934   29.5332 C   0  0  0  0  0  0
   52.0406  101.3452   30.6560 C   0  0  0  0  0  0
   52.1534  102.3814   31.5480 N   0  0  0  0  0  0
   51.6430  103.5028   31.0329 N   0  0  0  0  0  0
   51.2083  103.1831   29.7610 N   0  0  0  0  0  0
   52.6086  102.3515   32.9322 C   0  0  0  0  0  0
   51.4629  102.3575   33.9422 C   0  0  0  0  0  0
   51.0247  103.5657   34.4973 C   0  0  0  0  0  0
   49.9681  103.5703   35.4068 C   0  0  0  0  0  0
   49.3534  102.3696   35.7588 C   0  0  0  0  0  0
   49.7878  101.1637   35.2113 C   0  0  0  0  0  0
   50.8442  101.1567   34.3019 C   0  0  0  0  0  0
   50.3238  103.0453   27.3376 H   0  0  0  0  0  0
   49.5833  101.9944   25.2320 H   0  0  0  0  0  0
   51.5618   99.2292   28.8959 H   0  0  0  0  0  0
   49.4073   99.4189   23.9711 H   0  0  0  0  0  0
   50.8431   96.9819   26.8956 H   0  0  0  0  0  0
   52.3721  100.3484   30.9022 H   0  0  0  0  0  0
   53.2700  103.2049   33.0957 H   0  0  0  0  0  0
   53.2349  101.4687   33.0767 H   0  0  0  0  0  0
   51.5053  104.4965   34.2293 H   0  0  0  0  0  0
   49.6310  104.5013   35.8411 H   0  0  0  0  0  0
   48.5345  102.3710   36.4647 H   0  0  0  0  0  0
   49.3045  100.2399   35.4896 H   0  0  0  0  0  0
   51.1756  100.2205   33.8729 H   0  0  0  0  0  0
  1 10  1  0  0  0
  1  2  2  0  0  0
  1  4  1  0  0  0
  2  3  1  0  0  0
  2 22  1  0  0  0
  3  6  2  0  0  0
  3 23  1  0  0  0
  4  5  2  0  0  0
  4 24  1  0  0  0
  5  6  1  0  0  0
  5  9  1  0  0  0
  6  7  1  0  0  0
  7  8  1  0  0  0
  7 25  1  0  0  0
  8  9  2  0  0  0
  9 26  1  0  0  0
 10 11  2  0  0  0
 10 14  1  0  0  0
 11 12  1  0  0  0
 11 27  1  0  0  0
 12 13  1  0  0  0
 12 15  1  0  0  0
 13 14  2  0  0  0
 15 16  1  0  0  0
 15 28  1  0  0  0
 15 29  1  0  0  0
 16 17  2  0  0  0
 16 21  1  0  0  0
 17 18  1  0  0  0
 17 30  1  0  0  0
 18 19  2  0  0  0
 18 31  1  0  0  0
 19 20  1  0  0  0
 19 32  1  0  0  0
 20 21  2  0  0  0
 20 33  1  0  0  0
 21 34  1  0  0  0
M  END
> <s_m_entry_id>
27951

> <s_m_entry_name>
dock_pv.112

> <s_m_Source_Path>
/home/csk/Desktop/cluster/DUD-E-result/rock1

> <s_m_Source_File>
dock_pv.maegz

> <i_m_Source_File_Index>
112

> <chembl_id>
CHEMBL1682345

> <chembl_pref_name>
None

> <i_lp_mmshare_version>
53161

> <r_lp_tautomer_probability>
0.980392156862745

> <s_lp_Force_Field>
OPLS_2005

> <r_lp_Energy>
12.438926

> <b_lp_Chiralities_Consistent>
1

> <s_lp_Variant>
CHEMBL3231_lig1120-1

> <s_i_glide_gridfile>
glide-grid_2etr

> <i_i_glide_lignum>
1547

> <i_i_glide_rotatable_bonds>
3

> <r_i_docking_score>
-8.36216552483795

> <r_i_glide_ligand_efficiency>
-0.398198358325617

> <r_i_glide_ligand_efficiency_sa>
-1.09859907666491

> <r_i_glide_ligand_efficiency_ln>
-2.06752852866971

> <r_i_glide_gscore>
-8.36216552483795

> <r_i_glide_lipo>
-2.89304866914604

> <r_i_glide_hbond>
-0.580299166263073

> <r_i_glide_metal>
0

> <r_i_glide_rewards>
-2.72151982992574

> <r_i_glide_evdw>
-34.7600936889648

> <r_i_glide_ecoul>
-5.25808191299438

> <r_i_glide_erotb>
0.497942212361944

> <r_i_glide_esite>
-0.138523100467639

> <r_i_glide_emodel>
-60.3411504866106

> <r_i_glide_energy>
-40.0181756019592

> <r_i_glide_einternal>
0.518087267875671

> <i_i_glide_confnum>
5

> <i_i_glide_posenum>
7

> <r_i_glide_eff_state_penalty>
0

> <s_user_duplicate_titles>
CHEMBL3231_lig1120,CHEMBL3231_lig1120

> <i_f3d_flags>
0

> <s_m_subgroup_title>
dock_pv

> <s_m_subgroupid>
dock_pv

> <b_m_subgroup_collapsed>
1

$$$$
CHEMBL3231_lig1982
                    3D
 Schrodinger Suite 2021-1.
 45 48  0  0  1  0            999 V2000
   53.2180  101.4463   31.8403 S   0  0  0  0  0  0
   55.2430  106.5959   35.6110 O   0  0  0  0  0  0
   51.6431  103.5029   31.5735 N   0  0  0  0  0  0
   52.8857  103.4739   33.5861 N   0  0  0  0  0  0
   50.0431   98.2095   25.2111 N   0  0  0  0  0  0
   52.2089  101.5503   30.4016 C   0  0  0  0  0  0
   51.4713  102.7566   30.4558 C   0  0  0  0  0  0
   52.5082  102.9529   32.3765 C   0  0  0  0  0  0
   51.1389  100.9812   28.3152 C   0  0  0  0  0  0
   52.0592  100.6620   29.3269 C   0  0  0  0  0  0
   50.6123  103.1037   29.4110 C   0  0  0  0  0  0
   50.8330  100.0190   27.2197 C   0  0  0  0  0  0
   50.4577  102.2041   28.3634 C   0  0  0  0  0  0
   52.2949  104.6330   34.2593 C   0  0  1  0  0  0
   50.8957  104.3642   34.8510 C   0  0  0  0  0  0
   50.4594  100.4691   25.9435 C   0  0  0  0  0  0
   50.8361   98.6343   27.4501 C   0  0  0  0  0  0
   53.2570  105.2578   35.2941 C   0  0  0  0  0  0
   50.3981  103.0686   35.0656 C   0  0  0  0  0  0
   50.1040  105.4632   35.2087 C   0  0  0  0  0  0
   50.0584   99.5442   24.9836 C   0  0  0  0  0  0
   50.4430   97.7718   26.4275 C   0  0  0  0  0  0
   49.1303  102.8813   35.6135 C   0  0  0  0  0  0
   48.8359  105.2770   35.7524 C   0  0  0  0  0  0
   54.5972  105.7337   34.7002 C   0  0  0  0  0  0
   48.3541  103.9863   35.9535 C   0  0  0  0  0  0
   54.8431  107.4674   35.5272 H   0  0  0  0  0  0
   53.6060  103.0203   34.1285 H   0  0  0  0  0  0
   52.6201   99.7387   29.3014 H   0  0  0  0  0  0
   50.0627  104.0298   29.4153 H   0  0  0  0  0  0
   49.7634  102.4652   27.5784 H   0  0  0  0  0  0
   52.1502  105.3863   33.4851 H   0  0  0  0  0  0
   50.4491  101.5203   25.6977 H   0  0  0  0  0  0
   51.1054   98.2265   28.4130 H   0  0  0  0  0  0
   52.7608  106.1122   35.7568 H   0  0  0  0  0  0
   53.4486  104.5507   36.1027 H   0  0  0  0  0  0
   50.9875  102.1989   34.8147 H   0  0  0  0  0  0
   50.4719  106.4688   35.0591 H   0  0  0  0  0  0
   49.7335   99.8757   24.0110 H   0  0  0  0  0  0
   50.4374   96.7031   26.5801 H   0  0  0  0  0  0
   48.7498  101.8833   35.7769 H   0  0  0  0  0  0
   48.2274  106.1308   36.0117 H   0  0  0  0  0  0
   55.2314  104.8875   34.4331 H   0  0  0  0  0  0
   54.4421  106.2817   33.7696 H   0  0  0  0  0  0
   47.3700  103.8394   36.3757 H   0  0  0  0  0  0
  1  6  1  0  0  0
  1  8  1  0  0  0
  2 25  1  0  0  0
  2 27  1  0  0  0
  3  7  1  0  0  0
  3  8  2  0  0  0
  4  8  1  0  0  0
  4 14  1  0  0  0
  4 28  1  0  0  0
  5 21  2  0  0  0
  5 22  1  0  0  0
  6  7  1  0  0  0
  6 10  2  0  0  0
  7 11  2  0  0  0
  9 10  1  0  0  0
  9 12  1  0  0  0
  9 13  2  0  0  0
 10 29  1  0  0  0
 11 13  1  0  0  0
 11 30  1  0  0  0
 12 16  2  0  0  0
 12 17  1  0  0  0
 13 31  1  0  0  0
 14 15  1  0  0  0
 14 18  1  0  0  0
 14 32  1  0  0  0
 15 19  2  0  0  0
 15 20  1  0  0  0
 16 21  1  0  0  0
 16 33  1  0  0  0
 17 22  2  0  0  0
 17 34  1  0  0  0
 18 25  1  0  0  0
 18 35  1  0  0  0
 18 36  1  0  0  0
 19 23  1  0  0  0
 19 37  1  0  0  0
 20 24  2  0  0  0
 20 38  1  0  0  0
 21 39  1  0  0  0
 22 40  1  0  0  0
 23 26  2  0  0  0
 23 41  1  0  0  0
 24 26  1  0  0  0
 24 42  1  0  0  0
 25 43  1  0  0  0
 25 44  1  0  0  0
 26 45  1  0  0  0
M  END
> <s_m_entry_id>
27952

> <s_m_entry_name>
dock_pv.113

> <s_m_Source_Path>
/home/csk/Desktop/cluster/DUD-E-result/rock1

> <s_m_Source_File>
dock_pv.maegz

> <i_m_Source_File_Index>
113

> <chembl_id>
CHEMBL1982122

> <chembl_pref_name>
None

> <i_lp_mmshare_version>
53161

> <r_lp_tautomer_probability>
1

> <s_lp_Force_Field>
OPLS_2005

> <r_lp_Energy>
14.298278

> <b_lp_Chiralities_Consistent>
1

> <s_lp_Variant>
CHEMBL3231_lig1982-2

> <s_i_glide_gridfile>
glide-grid_2etr

> <i_i_glide_lignum>
2886

> <i_i_glide_rotatable_bonds>
7

> <r_i_docking_score>
-8.35701653991274

> <r_i_glide_ligand_efficiency>
-0.321423713073567

> <r_i_glide_ligand_efficiency_sa>
-0.952216485239203

> <r_i_glide_ligand_efficiency_ln>
-1.96261791279063

> <r_i_glide_gscore>
-8.35701653991274

> <r_i_glide_lipo>
-3.05221094333513

> <r_i_glide_hbond>
-0.570064316811285

> <r_i_glide_metal>
0

> <r_i_glide_rewards>
-2.31544731376208

> <r_i_glide_evdw>
-42.960994720459

> <r_i_glide_ecoul>
-7.55935668945312

> <r_i_glide_erotb>
0.88129388673511

> <r_i_glide_esite>
-0.0186346132984377

> <r_i_glide_emodel>
-72.8743874449236

> <r_i_glide_energy>
-50.5203514099121

> <r_i_glide_einternal>
7.38753461837769

> <i_i_glide_confnum>
132

> <i_i_glide_posenum>
303

> <r_i_glide_eff_state_penalty>
0

> <s_user_duplicate_titles>
CHEMBL3231_lig1982

> <i_f3d_flags>
0

> <s_m_subgroup_title>
dock_pv

> <s_m_subgroupid>
dock_pv

> <b_m_subgroup_collapsed>
1

$$$$
CHEMBL3231_lig736
                    3D
 Schrodinger Suite 2021-1.
 44 46  0  0  1  0            999 V2000
   51.4317   97.6902   30.4114 C   0  0  0  0  0  0
   51.2440   98.4377   29.2122 O   0  0  0  0  0  0
   51.3218   99.8201   29.2326 C   0  0  0  0  0  0
   51.6988  100.5427   30.3772 C   0  0  0  0  0  0
   51.7117  101.9486   30.3937 C   0  0  0  0  0  0
   51.3677  102.6297   29.2231 C   0  0  0  0  0  0
   50.9987  101.9293   28.0831 C   0  0  0  0  0  0
   50.9655  100.5313   28.0685 C   0  0  0  0  0  0
   50.5077   99.8780   26.7974 C   0  0  0  0  0  0
   49.9074  100.4903   25.7043 C   0  0  0  0  0  0
   49.6445   99.5023   24.8042 N   0  0  0  0  0  0
   50.0432   98.3028   25.2135 N   0  0  0  0  0  0
   50.5648   98.5264   26.3982 C   0  0  0  0  0  0
   52.0209  102.7330   31.6490 C   0  0  0  0  0  0
   51.6430  103.9025   31.7702 O   0  0  0  0  0  0
   52.6857  102.0781   32.6158 N   0  0  0  0  0  0
   52.9016  102.5606   33.9793 C   0  0  2  0  0  0
   53.9945  101.7486   34.6535 C   0  0  0  0  0  0
   55.2382  102.1884   34.9148 C   0  0  0  0  0  0
   51.6114  102.5923   34.8136 C   0  0  0  0  0  0
   51.2508  103.7553   35.5103 C   0  0  0  0  0  0
   52.0444  104.8507   35.4802 F   0  0  0  0  0  0
   50.0657  103.8036   36.2447 C   0  0  0  0  0  0
   49.2264  102.6923   36.2946 C   0  0  0  0  0  0
   49.5783  101.5285   35.6123 C   0  0  0  0  0  0
   50.7634  101.4740   34.8796 C   0  0  0  0  0  0
   51.0736  100.3289   34.2256 F   0  0  0  0  0  0
   51.2443   96.6372   30.2073 H   0  0  0  0  0  0
   52.4528   97.7783   30.7816 H   0  0  0  0  0  0
   50.7357   97.9967   31.1943 H   0  0  0  0  0  0
   51.9491  100.0081   31.2817 H   0  0  0  0  0  0
   51.3733  103.7109   29.1915 H   0  0  0  0  0  0
   50.7314  102.4995   27.2058 H   0  0  0  0  0  0
   49.6355  101.5145   25.4958 H   0  0  0  0  0  0
   49.2095   99.6478   23.8965 H   0  0  0  0  0  0
   50.9805   97.7100   26.9675 H   0  0  0  0  0  0
   52.9288  101.1143   32.4492 H   0  0  0  0  0  0
   53.2839  103.5823   33.8832 H   0  0  0  0  0  0
   53.7351  100.7347   34.9240 H   0  0  0  0  0  0
   55.9683  101.5483   35.3902 H   0  0  0  0  0  0
   55.5497  103.1896   34.6528 H   0  0  0  0  0  0
   49.8008  104.7074   36.7725 H   0  0  0  0  0  0
   48.3066  102.7280   36.8608 H   0  0  0  0  0  0
   48.9309  100.6636   35.6503 H   0  0  0  0  0  0
  1  2  1  0  0  0
  1 28  1  0  0  0
  1 29  1  0  0  0
  1 30  1  0  0  0
  2  3  1  0  0  0
  3  4  2  0  0  0
  3  8  1  0  0  0
  4  5  1  0  0  0
  4 31  1  0  0  0
  5  6  2  0  0  0
  5 14  1  0  0  0
  6  7  1  0  0  0
  6 32  1  0  0  0
  7  8  2  0  0  0
  7 33  1  0  0  0
  8  9  1  0  0  0
  9 10  2  0  0  0
  9 13  1  0  0  0
 10 11  1  0  0  0
 10 34  1  0  0  0
 11 12  1  0  0  0
 11 35  1  0  0  0
 12 13  2  0  0  0
 13 36  1  0  0  0
 14 15  2  0  0  0
 14 16  1  0  0  0
 16 17  1  0  0  0
 16 37  1  0  0  0
 17 18  1  0  0  0
 17 20  1  0  0  0
 17 38  1  0  0  0
 18 19  2  0  0  0
 18 39  1  0  0  0
 19 40  1  0  0  0
 19 41  1  0  0  0
 20 21  2  0  0  0
 20 26  1  0  0  0
 21 22  1  0  0  0
 21 23  1  0  0  0
 23 24  2  0  0  0
 23 42  1  0  0  0
 24 25  1  0  0  0
 24 43  1  0  0  0
 25 26  2  0  0  0
 25 44  1  0  0  0
 26 27  1  0  0  0
M  END
> <s_m_entry_id>
27953

> <s_m_entry_name>
dock_pv.114

> <s_m_Source_Path>
/home/csk/Desktop/cluster/DUD-E-result/rock1

> <s_m_Source_File>
dock_pv.maegz

> <i_m_Source_File_Index>
114

> <chembl_id>
CHEMBL3939661

> <chembl_pref_name>
None

> <i_lp_mmshare_version>
53161

> <r_lp_tautomer_probability>
0.5

> <s_lp_Force_Field>
OPLS_2005

> <r_lp_Energy>
24.329532

> <b_lp_Chiralities_Consistent>
1

> <s_lp_Variant>
CHEMBL3231_lig736-1

> <s_i_glide_gridfile>
glide-grid_2etr

> <i_i_glide_lignum>
1047

> <i_i_glide_rotatable_bonds>
7

> <r_i_docking_score>
-8.35593852244616

> <r_i_glide_ligand_efficiency>
-0.309479204535043

> <r_i_glide_ligand_efficiency_sa>
-0.928437612585136

> <r_i_glide_ligand_efficiency_ln>
-1.94512472961252

> <r_i_glide_gscore>
-8.35593852244616

> <r_i_glide_lipo>
-2.85144788625824

> <r_i_glide_hbond>
-0.672317835262606

> <r_i_glide_metal>
0

> <r_i_glide_rewards>
-2.14389520056207

> <r_i_glide_evdw>
-41.8533210754395

> <r_i_glide_ecoul>
-6.79906892776489

> <r_i_glide_erotb>
0.494616211087131

> <r_i_glide_esite>
-0.0703674185136712

> <r_i_glide_emodel>
-71.9523691331489

> <r_i_glide_energy>
-48.6523900032043

> <r_i_glide_einternal>
3.01665067672729

> <i_i_glide_confnum>
24

> <i_i_glide_posenum>
352

> <r_i_glide_eff_state_penalty>
0

> <s_user_duplicate_titles>
CHEMBL3231_lig736

> <i_f3d_flags>
0

> <s_m_subgroup_title>
dock_pv

> <s_m_subgroupid>
dock_pv

> <b_m_subgroup_collapsed>
1

$$$$
CHEMBL3231_lig47
                    3D
 Schrodinger Suite 2021-1.
 47 50  0  0  1  0            999 V2000
   52.7487  101.7361   32.9737 C   0  0  2  0  0  0
   52.7400  102.3868   31.5889 C   0  0  0  0  0  0
   53.8097  103.1285   31.2267 C   0  0  0  0  0  0
   54.7838  103.5029   32.1018 N   0  0  0  0  0  0
   54.7433  103.3845   33.4477 C   0  0  0  0  0  0
   53.4434  102.7147   33.9833 C   0  0  0  0  0  0
   55.6314  103.8293   34.1718 O   0  0  0  0  0  0
   54.0401  103.6828   29.8282 C   0  0  0  0  0  0
   51.7060  102.0300   30.6513 C   0  0  0  0  0  0
   50.6798  102.7030   30.5178 O   0  0  0  0  0  0
   52.0835  100.9551   29.9321 N   0  0  0  0  0  0
   51.4338  100.3193   28.8696 C   0  0  0  0  0  0
   51.5134   98.9256   28.8510 C   0  0  0  0  0  0
   51.0460   98.1813   27.7695 C   0  0  0  0  0  0
   50.8825  101.0174   27.7841 C   0  0  0  0  0  0
   50.4112  100.2853   26.6845 C   0  0  0  0  0  0
   50.5070   98.8592   26.6700 C   0  0  0  0  0  0
   50.0428   98.3130   25.5050 N   0  0  0  0  0  0
   49.6430   99.3910   24.8109 N   0  0  0  0  0  0
   49.8084  100.5932   25.4418 C   0  0  0  0  0  0
   53.3384  100.3119   32.9176 C   0  0  0  0  0  0
   54.7203  100.0806   32.9366 C   0  0  0  0  0  0
   55.2235   98.7911   32.8112 C   0  0  0  0  0  0
   54.3579   97.7069   32.6536 C   0  0  0  0  0  0
   52.9773   97.9299   32.6353 C   0  0  0  0  0  0
   52.4726   99.2217   32.7727 C   0  0  0  0  0  0
   54.9285   96.2968   32.4958 C   0  0  0  0  0  0
   54.0467   95.3644   32.8611 F   0  0  0  0  0  0
   56.0254   96.1348   33.2363 F   0  0  0  0  0  0
   55.2431   96.1008   31.2156 F   0  0  0  0  0  0
   50.8402  102.3682   27.7518 F   0  0  0  0  0  0
   51.7200  101.6040   33.3179 H   0  0  0  0  0  0
   55.5698  104.0418   31.7553 H   0  0  0  0  0  0
   52.7982  103.5829   34.1222 H   0  0  0  0  0  0
   53.6112  102.2636   34.9617 H   0  0  0  0  0  0
   54.7787  103.0655   29.3174 H   0  0  0  0  0  0
   53.1436  103.7041   29.2103 H   0  0  0  0  0  0
   54.4127  104.7035   29.8551 H   0  0  0  0  0  0
   52.9449  100.5211   30.2298 H   0  0  0  0  0  0
   51.9666   98.3992   29.6793 H   0  0  0  0  0  0
   51.1273   97.1047   27.7712 H   0  0  0  0  0  0
   49.2421   99.3093   23.8829 H   0  0  0  0  0  0
   49.4933  101.5030   24.9611 H   0  0  0  0  0  0
   55.4318  100.8851   33.0200 H   0  0  0  0  0  0
   56.2951   98.6403   32.8111 H   0  0  0  0  0  0
   52.2926   97.1041   32.5019 H   0  0  0  0  0  0
   51.4043   99.3781   32.7324 H   0  0  0  0  0  0
  1  6  1  0  0  0
  1 21  1  0  0  0
  1  2  1  0  0  0
  1 32  1  0  0  0
  2  9  1  0  0  0
  2  3  2  0  0  0
  3  8  1  0  0  0
  3  4  1  0  0  0
  4  5  1  0  0  0
  4 33  1  0  0  0
  5  6  1  0  0  0
  5  7  2  0  0  0
  6 34  1  0  0  0
  6 35  1  0  0  0
  8 36  1  0  0  0
  8 37  1  0  0  0
  8 38  1  0  0  0
  9 10  2  0  0  0
  9 11  1  0  0  0
 11 39  1  0  0  0
 11 12  1  0  0  0
 12 13  1  0  0  0
 12 15  2  0  0  0
 13 14  2  0  0  0
 13 40  1  0  0  0
 14 17  1  0  0  0
 14 41  1  0  0  0
 15 31  1  0  0  0
 15 16  1  0  0  0
 16 17  1  0  0  0
 16 20  2  0  0  0
 17 18  2  0  0  0
 18 19  1  0  0  0
 19 42  1  0  0  0
 19 20  1  0  0  0
 20 43  1  0  0  0
 21 22  2  0  0  0
 21 26  1  0  0  0
 22 23  1  0  0  0
 22 44  1  0  0  0
 23 24  2  0  0  0
 23 45  1  0  0  0
 24 25  1  0  0  0
 24 27  1  0  0  0
 25 26  2  0  0  0
 25 46  1  0  0  0
 26 47  1  0  0  0
 27 28  1  0  0  0
 27 29  1  0  0  0
 27 30  1  0  0  0
M  END
> <s_m_entry_id>
27954

> <s_m_entry_name>
dock_pv.115

> <s_m_Source_Path>
/home/csk/Desktop/cluster/DUD-E-result/rock1

> <s_m_Source_File>
dock_pv.maegz

> <i_m_Source_File_Index>
115

> <chembl_id>
CHEMBL217910

> <chembl_pref_name>
None

> <i_lp_mmshare_version>
53161

> <r_lp_tautomer_probability>
0.019607843137214

> <s_lp_Force_Field>
OPLS_2005

> <r_lp_Energy>
46.208943

> <b_lp_Chiralities_Consistent>
1

> <s_lp_Variant>
CHEMBL3231_lig47-3

> <s_i_glide_gridfile>
glide-grid_2etr

> <i_i_glide_lignum>
61

> <i_i_glide_rotatable_bonds>
5

> <r_i_docking_score>
-8.33695239370063

> <r_i_glide_ligand_efficiency>
-0.268933948183891

> <r_i_glide_ligand_efficiency_sa>
-0.844823900629067

> <r_i_glide_ligand_efficiency_ln>
-1.88023826168634

> <r_i_glide_gscore>
-8.33695239370063

> <r_i_glide_lipo>
-1.98101675023212

> <r_i_glide_hbond>
-0.619376431734171

> <r_i_glide_metal>
0

> <r_i_glide_rewards>
-2.04890311206236

> <r_i_glide_evdw>
-44.8578224182129

> <r_i_glide_ecoul>
-10.4742965698242

> <r_i_glide_erotb>
0.298025383728393

> <r_i_glide_esite>
-0.1716458770161

> <r_i_glide_emodel>
-79.2685446549906

> <r_i_glide_energy>
-55.3321189880371

> <r_i_glide_einternal>
6.13255262374878

> <i_i_glide_confnum>
51

> <i_i_glide_posenum>
139

> <r_i_glide_eff_state_penalty>
0

> <s_user_duplicate_titles>
CHEMBL3231_lig47,CHEMBL3231_lig47

> <i_f3d_flags>
0

> <s_m_subgroup_title>
dock_pv

> <s_m_subgroupid>
dock_pv

> <b_m_subgroup_collapsed>
1

$$$$
CHEMBL3231_lig605
                    3D
 Schrodinger Suite 2021-1.
 46 48  0  0  1  0            999 V2000
   51.4435   97.6983   30.4282 C   0  0  0  0  0  0
   51.2517   98.4323   29.2222 O   0  0  0  0  0  0
   51.3670   99.8125   29.2196 C   0  0  0  0  0  0
   51.7640  100.5477   30.3533 C   0  0  0  0  0  0
   51.7981  101.9527   30.3439 C   0  0  0  0  0  0
   51.4716  102.6173   29.1612 C   0  0  0  0  0  0
   51.0946  101.9036   28.0316 C   0  0  0  0  0  0
   51.0263  100.5075   28.0421 C   0  0  0  0  0  0
   50.5413   99.8500   26.7829 C   0  0  0  0  0  0
   49.9207  100.4624   25.7001 C   0  0  0  0  0  0
   49.6430   99.4753   24.8042 N   0  0  0  0  0  0
   50.0430   98.2737   25.2118 N   0  0  0  0  0  0
   50.5834   98.4981   26.3872 C   0  0  0  0  0  0
   52.0937  102.7586   31.5873 C   0  0  0  0  0  0
   51.6430  103.9008   31.7072 O   0  0  0  0  0  0
   52.8258  102.1488   32.5398 N   0  0  0  0  0  0
   53.0425  102.6004   33.9245 C   0  0  0  0  0  0
   53.9618  101.5570   34.5994 C   0  0  0  0  0  0
   53.8273  103.9446   33.9217 C   0  0  0  0  0  0
   51.6997  102.6569   34.7078 C   0  0  0  0  0  0
   50.8389  101.5464   34.6781 C   0  0  0  0  0  0
   49.6266  101.5612   35.3627 C   0  0  0  0  0  0
   49.2575  102.6923   36.0839 C   0  0  0  0  0  0
   50.0939  103.8041   36.1284 C   0  0  0  0  0  0
   51.3084  103.7868   35.4452 C   0  0  0  0  0  0
   51.2435   96.6432   30.2413 H   0  0  0  0  0  0
   52.4695   97.7809   30.7900 H   0  0  0  0  0  0
   50.7569   98.0235   31.2114 H   0  0  0  0  0  0
   52.0004  100.0253   31.2670 H   0  0  0  0  0  0
   51.4935  103.6972   29.1099 H   0  0  0  0  0  0
   50.8383  102.4632   27.1460 H   0  0  0  0  0  0
   49.6454  101.4861   25.4921 H   0  0  0  0  0  0
   49.1964   99.6203   23.9027 H   0  0  0  0  0  0
   51.0059   97.6829   26.9554 H   0  0  0  0  0  0
   53.2016  101.2396   32.3196 H   0  0  0  0  0  0
   54.1624  101.8168   35.6393 H   0  0  0  0  0  0
   53.5234  100.5586   34.5974 H   0  0  0  0  0  0
   54.9270  101.4818   34.0951 H   0  0  0  0  0  0
   54.1386  104.2349   34.9254 H   0  0  0  0  0  0
   54.7332  103.8741   33.3167 H   0  0  0  0  0  0
   53.2425  104.7701   33.5143 H   0  0  0  0  0  0
   51.1118  100.6637   34.1180 H   0  0  0  0  0  0
   48.9754  100.6996   35.3337 H   0  0  0  0  0  0
   48.3168  102.7039   36.6152 H   0  0  0  0  0  0
   49.8026  104.6788   36.6914 H   0  0  0  0  0  0
   51.9319  104.6665   35.4985 H   0  0  0  0  0  0
  1  2  1  0  0  0
  1 26  1  0  0  0
  1 27  1  0  0  0
  1 28  1  0  0  0
  2  3  1  0  0  0
  3  4  2  0  0  0
  3  8  1  0  0  0
  4  5  1  0  0  0
  4 29  1  0  0  0
  5  6  2  0  0  0
  5 14  1  0  0  0
  6  7  1  0  0  0
  6 30  1  0  0  0
  7  8  2  0  0  0
  7 31  1  0  0  0
  8  9  1  0  0  0
  9 10  2  0  0  0
  9 13  1  0  0  0
 10 11  1  0  0  0
 10 32  1  0  0  0
 11 12  1  0  0  0
 11 33  1  0  0  0
 12 13  2  0  0  0
 13 34  1  0  0  0
 14 15  2  0  0  0
 14 16  1  0  0  0
 16 17  1  0  0  0
 16 35  1  0  0  0
 17 18  1  0  0  0
 17 19  1  0  0  0
 17 20  1  0  0  0
 18 36  1  0  0  0
 18 37  1  0  0  0
 18 38  1  0  0  0
 19 39  1  0  0  0
 19 40  1  0  0  0
 19 41  1  0  0  0
 20 21  2  0  0  0
 20 25  1  0  0  0
 21 22  1  0  0  0
 21 42  1  0  0  0
 22 23  2  0  0  0
 22 43  1  0  0  0
 23 24  1  0  0  0
 23 44  1  0  0  0
 24 25  2  0  0  0
 24 45  1  0  0  0
 25 46  1  0  0  0
M  END
> <s_m_entry_id>
27955

> <s_m_entry_name>
dock_pv.116

> <s_m_Source_Path>
/home/csk/Desktop/cluster/DUD-E-result/rock1

> <s_m_Source_File>
dock_pv.maegz

> <i_m_Source_File_Index>
116

> <chembl_id>
CHEMBL3916624

> <chembl_pref_name>
None

> <i_lp_mmshare_version>
53161

> <r_lp_tautomer_probability>
0.5

> <s_lp_Force_Field>
OPLS_2005

> <r_lp_Energy>
24.455251

> <b_lp_Chiralities_Consistent>
1

> <s_lp_Variant>
CHEMBL3231_lig605-1

> <s_i_glide_gridfile>
glide-grid_2etr

> <i_i_glide_lignum>
891

> <i_i_glide_rotatable_bonds>
6

> <r_i_docking_score>
-8.33454728896212

> <r_i_glide_ligand_efficiency>
-0.333381891558485

> <r_i_glide_ligand_efficiency_sa>
-0.974814563470032

> <r_i_glide_ligand_efficiency_ln>
-1.97553747371138

> <r_i_glide_gscore>
-8.33454728896212

> <r_i_glide_lipo>
-2.84486890416526

> <r_i_glide_hbond>
-0.688084642882376

> <r_i_glide_metal>
0

> <r_i_glide_rewards>
-2.07503181087406

> <r_i_glide_evdw>
-40.1811790466309

> <r_i_glide_ecoul>
-7.53680181503296

> <r_i_glide_erotb>
0.469757213717273

> <r_i_glide_esite>
-0.0567399201712183

> <r_i_glide_emodel>
-70.013209706448

> <r_i_glide_energy>
-47.7179808616638

> <r_i_glide_einternal>
4.40528440475464

> <i_i_glide_confnum>
11

> <i_i_glide_posenum>
243

> <r_i_glide_eff_state_penalty>
0

> <s_user_duplicate_titles>
CHEMBL3231_lig605

> <i_f3d_flags>
0

> <s_m_subgroup_title>
dock_pv

> <s_m_subgroupid>
dock_pv

> <b_m_subgroup_collapsed>
1

$$$$
CHEMBL3231_lig972 
                    3D
 Schrodinger Suite 2021-1.
 51 53  0  0  1  0            999 V2000
   50.4329   97.6868   26.4021 C   0  0  0  0  0  0
   50.0430   98.1871   25.2092 N   0  0  0  0  0  0
   50.1333   99.5243   25.0124 C   0  0  0  0  0  0
   50.6152  100.3937   25.9882 C   0  0  0  0  0  0
   51.0013   99.8768   27.2351 C   0  0  0  0  0  0
   50.9014   98.4912   27.4359 C   0  0  0  0  0  0
   51.4811  100.7679   28.3238 C   0  0  0  0  0  0
   52.4465  100.3255   29.2352 C   0  0  0  0  0  0
   52.8447  101.1270   30.2984 C   0  0  0  0  0  0
   52.2736  102.3918   30.4688 C   0  0  0  0  0  0
   51.3472  102.8599   29.5300 C   0  0  0  0  0  0
   50.9501  102.0523   28.4733 C   0  0  0  0  0  0
   52.5336  103.1989   31.7094 C   0  0  0  0  0  0
   53.7105  103.0545   32.3374 N   0  0  0  0  0  0
   51.6430  103.9136   32.1540 O   0  0  0  0  0  0
   53.9411  103.4868   33.7213 C   0  0  1  0  0  0
   53.4355  102.4212   34.7110 C   0  0  0  0  0  0
   54.3034  101.5399   35.3704 C   0  0  0  0  0  0
   53.7995  100.5538   36.2164 C   0  0  0  0  0  0
   52.4246  100.4363   36.4101 C   0  0  0  0  0  0
   51.5360  101.3111   35.7836 C   0  0  0  0  0  0
   52.0586  102.3139   34.9531 C   0  0  0  0  0  0
   50.1873  101.1016   36.0111 O   0  0  0  0  0  0
   49.2072  102.0068   35.5039 C   0  0  0  0  0  0
   55.4087  103.8899   33.8950 C   0  0  0  0  0  0
   49.1338  103.2988   36.3399 C   0  0  0  0  0  0
   48.0439  104.2629   35.8485 C   0  0  0  0  0  0
   50.3661   96.6162   26.5169 H   0  0  0  0  0  0
   49.8207   99.8947   24.0459 H   0  0  0  0  0  0
   50.6806  101.4502   25.7739 H   0  0  0  0  0  0
   51.1776   98.0371   28.3762 H   0  0  0  0  0  0
   52.8869   99.3443   29.1406 H   0  0  0  0  0  0
   53.5593  100.7314   31.0074 H   0  0  0  0  0  0
   50.8981  103.8368   29.6307 H   0  0  0  0  0  0
   50.2019  102.4239   27.7883 H   0  0  0  0  0  0
   54.4539  102.5456   31.8819 H   0  0  0  0  0  0
   53.3815  104.4048   33.9253 H   0  0  0  0  0  0
   55.3714  101.5868   35.2182 H   0  0  0  0  0  0
   54.4751   99.8695   36.7089 H   0  0  0  0  0  0
   52.0441   99.6574   37.0546 H   0  0  0  0  0  0
   51.3959  103.0039   34.4590 H   0  0  0  0  0  0
   48.2452  101.4979   35.5629 H   0  0  0  0  0  0
   49.3624  102.2134   34.4439 H   0  0  0  0  0  0
   55.6258  104.2014   34.9171 H   0  0  0  0  0  0
   56.0515  103.0545   33.6446 H   0  0  0  0  0  0
   55.6706  104.7139   33.2285 H   0  0  0  0  0  0
   50.0968  103.8097   36.3299 H   0  0  0  0  0  0
   48.9391  103.0369   37.3813 H   0  0  0  0  0  0
   48.0229  105.1710   36.4516 H   0  0  0  0  0  0
   47.0545  103.8066   35.9073 H   0  0  0  0  0  0
   48.2151  104.5563   34.8113 H   0  0  0  0  0  0
  1  2  2  0  0  0
  1  6  1  0  0  0
  1 28  1  0  0  0
  2  3  1  0  0  0
  3  4  2  0  0  0
  3 29  1  0  0  0
  4  5  1  0  0  0
  4 30  1  0  0  0
  5  6  2  0  0  0
  5  7  1  0  0  0
  6 31  1  0  0  0
  7  8  2  0  0  0
  7 12  1  0  0  0
  8  9  1  0  0  0
  8 32  1  0  0  0
  9 10  2  0  0  0
  9 33  1  0  0  0
 10 11  1  0  0  0
 10 13  1  0  0  0
 11 12  2  0  0  0
 11 34  1  0  0  0
 12 35  1  0  0  0
 13 14  1  0  0  0
 13 15  2  0  0  0
 14 16  1  0  0  0
 14 36  1  0  0  0
 16 17  1  0  0  0
 16 25  1  0  0  0
 16 37  1  0  0  0
 17 18  2  0  0  0
 17 22  1  0  0  0
 18 19  1  0  0  0
 18 38  1  0  0  0
 19 20  2  0  0  0
 19 39  1  0  0  0
 20 21  1  0  0  0
 20 40  1  0  0  0
 21 22  2  0  0  0
 21 23  1  0  0  0
 22 41  1  0  0  0
 23 24  1  0  0  0
 24 26  1  0  0  0
 24 42  1  0  0  0
 24 43  1  0  0  0
 25 44  1  0  0  0
 25 45  1  0  0  0
 25 46  1  0  0  0
 26 27  1  0  0  0
 26 47  1  0  0  0
 26 48  1  0  0  0
 27 49  1  0  0  0
 27 50  1  0  0  0
 27 51  1  0  0  0
M  END
> <s_m_entry_id>
27956

> <s_m_entry_name>
dock_pv.117

> <s_m_Source_Path>
/home/csk/Desktop/cluster/DUD-E-result/rock1

> <s_m_Source_File>
dock_pv.maegz

> <i_m_Source_File_Index>
117

> <chembl_id>
CHEMBL4469434

> <chembl_pref_name>
None

> <i_lp_mmshare_version>
53161

> <r_lp_tautomer_probability>
1

> <s_lp_Force_Field>
OPLS_2005

> <r_lp_Energy>
15.11734

> <b_lp_Chiralities_Consistent>
1

> <s_lp_Variant>
CHEMBL3231_lig972 -1

> <s_i_glide_gridfile>
glide-grid_2etr

> <i_i_glide_lignum>
1386

> <i_i_glide_rotatable_bonds>
8

> <r_i_docking_score>
-8.33161390335425

> <r_i_glide_ligand_efficiency>
-0.308578292716824

> <r_i_glide_ligand_efficiency_sa>
-0.925734877133449

> <r_i_glide_ligand_efficiency_ln>
-1.93946235931061

> <r_i_glide_gscore>
-8.33161390335425

> <r_i_glide_lipo>
-3.37617128552032

> <r_i_glide_hbond>
-0.404930470310415

> <r_i_glide_metal>
0

> <r_i_glide_rewards>
-2.31162574692803

> <r_i_glide_evdw>
-46.9495429992676

> <r_i_glide_ecoul>
-5.67603302001953

> <r_i_glide_erotb>
1.03333006625611

> <r_i_glide_esite>
-0.0733343638852954

> <r_i_glide_emodel>
-71.8899245337013

> <r_i_glide_energy>
-52.6255760192871

> <r_i_glide_einternal>
12.0525455474854

> <i_i_glide_confnum>
111

> <i_i_glide_posenum>
263

> <r_i_glide_eff_state_penalty>
0

> <s_user_duplicate_titles>
CHEMBL3231_lig972 ,CHEMBL3231_lig1853

> <i_f3d_flags>
0

> <s_m_subgroup_title>
dock_pv

> <s_m_subgroupid>
dock_pv

> <b_m_subgroup_collapsed>
1

$$$$
CHEMBL3231_lig424
                    3D
 Schrodinger Suite 2021-1.
 38 40  0  0  1  0            999 V2000
   50.4430  107.3096   34.4110 N   0  0  0  0  0  0
   50.2147  106.0806   35.0265 C   0  0  0  0  0  0
   49.0950  105.9022   35.8385 C   0  0  0  0  0  0
   48.8382  104.6548   36.4085 C   0  0  0  0  0  0
   49.6996  103.5847   36.1626 C   0  0  0  0  0  0
   50.8310  103.7545   35.3547 C   0  0  0  0  0  0
   51.7247  102.5488   35.0372 C   0  0  0  0  0  0
   52.2657  102.4363   33.6717 N   0  0  0  0  0  0
   51.5541  102.5107   32.5341 C   0  0  0  0  0  0
   50.4430  103.0423   32.4676 O   0  0  0  0  0  0
   52.1775  101.9312   31.4860 N   0  0  0  0  0  0
   51.6972  101.9939   30.1856 C   0  0  0  0  0  0
   51.5769  100.9471   29.4044 N   0  0  0  0  0  0
   51.0250  101.2468   28.2330 C   0  0  0  0  0  0
   50.7310  102.6043   28.0767 C   0  0  0  0  0  0
   51.2430  103.5030   29.4560 S   0  0  0  0  0  0
   50.7309  100.1923   27.2090 C   0  0  0  0  0  0
   50.3129  100.5676   25.9227 C   0  0  0  0  0  0
   49.9841   99.5813   24.9971 C   0  0  0  0  0  0
   50.0434   98.2585   25.2775 N   0  0  0  0  0  0
   50.4745   97.8978   26.5115 C   0  0  0  0  0  0
   50.8310   98.8221   27.4953 C   0  0  0  0  0  0
   51.0870  105.0158   34.7989 C   0  0  0  0  0  0
   51.3035  107.4199   33.8675 H   0  0  0  0  0  0
   50.0129  108.1279   34.8146 H   0  0  0  0  0  0
   48.4132  106.7215   36.0115 H   0  0  0  0  0  0
   47.9624  104.5103   37.0242 H   0  0  0  0  0  0
   49.4751  102.6186   36.5916 H   0  0  0  0  0  0
   52.5711  102.5774   35.7238 H   0  0  0  0  0  0
   51.1936  101.6212   35.2592 H   0  0  0  0  0  0
   53.2297  102.1446   33.6060 H   0  0  0  0  0  0
   53.0316  101.4165   31.6399 H   0  0  0  0  0  0
   50.2750  103.1123   27.2398 H   0  0  0  0  0  0
   50.2265  101.6029   25.6327 H   0  0  0  0  0  0
   49.6430   99.8527   24.0110 H   0  0  0  0  0  0
   50.5277   96.8371   26.7091 H   0  0  0  0  0  0
   51.1534   98.4750   28.4662 H   0  0  0  0  0  0
   51.9480  105.1595   34.1610 H   0  0  0  0  0  0
  1  2  1  0  0  0
  1 24  1  0  0  0
  1 25  1  0  0  0
  2  3  2  0  0  0
  2 23  1  0  0  0
  3  4  1  0  0  0
  3 26  1  0  0  0
  4  5  2  0  0  0
  4 27  1  0  0  0
  5  6  1  0  0  0
  5 28  1  0  0  0
  6  7  1  0  0  0
  6 23  2  0  0  0
  7  8  1  0  0  0
  7 29  1  0  0  0
  7 30  1  0  0  0
  8  9  1  0  0  0
  8 31  1  0  0  0
  9 10  2  0  0  0
  9 11  1  0  0  0
 11 12  1  0  0  0
 11 32  1  0  0  0
 12 13  2  0  0  0
 12 16  1  0  0  0
 13 14  1  0  0  0
 14 15  2  0  0  0
 14 17  1  0  0  0
 15 16  1  0  0  0
 15 33  1  0  0  0
 17 18  2  0  0  0
 17 22  1  0  0  0
 18 19  1  0  0  0
 18 34  1  0  0  0
 19 20  2  0  0  0
 19 35  1  0  0  0
 20 21  1  0  0  0
 21 22  2  0  0  0
 21 36  1  0  0  0
 22 37  1  0  0  0
 23 38  1  0  0  0
M  END
> <s_m_entry_id>
27957

> <s_m_entry_name>
dock_pv.118

> <s_m_Source_Path>
/home/csk/Desktop/cluster/DUD-E-result/rock1

> <s_m_Source_File>
dock_pv.maegz

> <i_m_Source_File_Index>
118

> <chembl_id>
CHEMBL3218009

> <chembl_pref_name>
None

> <i_lp_mmshare_version>
53161

> <r_lp_tautomer_probability>
0.999000488399163

> <s_lp_Force_Field>
OPLS_2005

> <r_lp_Energy>
6.063763

> <b_lp_Chiralities_Consistent>
1

> <s_lp_Variant>
CHEMBL3231_lig424-1

> <s_i_glide_gridfile>
glide-grid_2etr

> <i_i_glide_lignum>
608

> <i_i_glide_rotatable_bonds>
6

> <r_i_docking_score>
-8.32708980459385

> <r_i_glide_ligand_efficiency>
-0.362047382808428

> <r_i_glide_ligand_efficiency_sa>
-1.02961459603445

> <r_i_glide_ligand_efficiency_ln>
-2.01356582062658

> <r_i_glide_gscore>
-8.32708980459385

> <r_i_glide_lipo>
-2.81738928358372

> <r_i_glide_hbond>
-0.439913385522057

> <r_i_glide_metal>
0

> <r_i_glide_rewards>
-2.49273099606676

> <r_i_glide_evdw>
-39.066478729248

> <r_i_glide_ecoul>
-10.1509046554565

> <r_i_glide_erotb>
1.06200788437405

> <r_i_glide_esite>
-0.16310438901447

> <r_i_glide_emodel>
-72.813118091989

> <r_i_glide_energy>
-49.2173833847046

> <r_i_glide_einternal>
5.59390926361084

> <i_i_glide_confnum>
29

> <i_i_glide_posenum>
393

> <r_i_glide_eff_state_penalty>
0

> <s_user_duplicate_titles>
CHEMBL3231_lig424

> <i_f3d_flags>
0

> <s_m_subgroup_title>
dock_pv

> <s_m_subgroupid>
dock_pv

> <b_m_subgroup_collapsed>
1

$$$$
CHEMBL3231_lig657
                    3D
 Schrodinger Suite 2021-1.
 40 42  0  0  1  0            999 V2000
   51.4234   97.6443   30.4148 C   0  0  0  0  0  0
   51.2430   98.4008   29.2203 O   0  0  0  0  0  0
   51.3074   99.7839   29.2539 C   0  0  0  0  0  0
   51.6797  100.5014   30.4074 C   0  0  0  0  0  0
   51.6673  101.9062   30.4373 C   0  0  0  0  0  0
   51.3272  102.5892   29.2648 C   0  0  0  0  0  0
   50.9718  101.8971   28.1166 C   0  0  0  0  0  0
   50.9478  100.4989   28.0907 C   0  0  0  0  0  0
   50.4962   99.8558   26.8106 C   0  0  0  0  0  0
   50.5531   98.5081   26.4021 C   0  0  0  0  0  0
   50.0445   98.2955   25.2116 N   0  0  0  0  0  0
   49.6456   99.4986   24.8044 N   0  0  0  0  0  0
   49.9034  100.4775   25.7169 C   0  0  0  0  0  0
   51.9734  102.7001   31.6877 C   0  0  0  0  0  0
   52.0392  103.9283   31.6342 O   0  0  0  0  0  0
   52.1086  102.0292   32.8455 N   0  0  0  0  0  0
   52.2786  102.6609   34.1566 C   0  0  0  0  0  0
   50.9875  103.2504   34.7339 C   0  0  0  0  0  0
   50.8379  104.6431   34.8114 C   0  0  0  0  0  0
   49.6840  105.2013   35.3632 C   0  0  0  0  0  0
   49.5342  106.5432   35.4054 F   0  0  0  0  0  0
   48.6763  104.3761   35.8596 C   0  0  0  0  0  0
   48.8217  102.9912   35.8027 C   0  0  0  0  0  0
   49.9695  102.4255   35.2458 C   0  0  0  0  0  0
   50.0992  100.7031   35.2113 Cl  0  0  0  0  0  0
   51.2428   96.5904   30.2034 H   0  0  0  0  0  0
   52.4423   97.7353   30.7947 H   0  0  0  0  0  0
   50.7203   97.9393   31.1950 H   0  0  0  0  0  0
   51.9590   99.9588   31.2954 H   0  0  0  0  0  0
   51.3241  103.6701   29.2314 H   0  0  0  0  0  0
   50.7084  102.4735   27.2427 H   0  0  0  0  0  0
   50.9644   97.6870   26.9689 H   0  0  0  0  0  0
   49.2164   99.6497   23.8958 H   0  0  0  0  0  0
   49.6373  101.5041   25.5150 H   0  0  0  0  0  0
   52.0093  101.0258   32.8335 H   0  0  0  0  0  0
   53.0533  103.4308   34.0971 H   0  0  0  0  0  0
   52.6647  101.9179   34.8555 H   0  0  0  0  0  0
   51.6122  105.2971   34.4310 H   0  0  0  0  0  0
   47.7831  104.8078   36.2864 H   0  0  0  0  0  0
   48.0429  102.3523   36.1943 H   0  0  0  0  0  0
  1  2  1  0  0  0
  1 26  1  0  0  0
  1 27  1  0  0  0
  1 28  1  0  0  0
  2  3  1  0  0  0
  3  4  2  0  0  0
  3  8  1  0  0  0
  4  5  1  0  0  0
  4 29  1  0  0  0
  5  6  2  0  0  0
  5 14  1  0  0  0
  6  7  1  0  0  0
  6 30  1  0  0  0
  7  8  2  0  0  0
  7 31  1  0  0  0
  8  9  1  0  0  0
  9 10  1  0  0  0
  9 13  2  0  0  0
 10 11  2  0  0  0
 10 32  1  0  0  0
 11 12  1  0  0  0
 12 13  1  0  0  0
 12 33  1  0  0  0
 13 34  1  0  0  0
 14 15  2  0  0  0
 14 16  1  0  0  0
 16 17  1  0  0  0
 16 35  1  0  0  0
 17 18  1  0  0  0
 17 36  1  0  0  0
 17 37  1  0  0  0
 18 19  2  0  0  0
 18 24  1  0  0  0
 19 20  1  0  0  0
 19 38  1  0  0  0
 20 21  1  0  0  0
 20 22  2  0  0  0
 22 23  1  0  0  0
 22 39  1  0  0  0
 23 24  2  0  0  0
 23 40  1  0  0  0
 24 25  1  0  0  0
M  END
> <s_m_entry_id>
27959

> <s_m_entry_name>
dock_pv.120

> <s_m_Source_Path>
/home/csk/Desktop/cluster/DUD-E-result/rock1

> <s_m_Source_File>
dock_pv.maegz

> <i_m_Source_File_Index>
120

> <chembl_id>
CHEMBL3908876

> <chembl_pref_name>
None

> <i_lp_mmshare_version>
53161

> <r_lp_tautomer_probability>
0.5

> <s_lp_Force_Field>
OPLS_2005

> <r_lp_Energy>
20.567208

> <b_lp_Chiralities_Consistent>
1

> <s_lp_Variant>
CHEMBL3231_lig657-1

> <s_i_glide_gridfile>
glide-grid_2etr

> <i_i_glide_lignum>
947

> <i_i_glide_rotatable_bonds>
6

> <r_i_docking_score>
-8.32444270481751

> <r_i_glide_ligand_efficiency>
-0.3329777081927

> <r_i_glide_ligand_efficiency_sa>
-0.973632724140255

> <r_i_glide_ligand_efficiency_ln>
-1.97314238445915

> <r_i_glide_gscore>
-8.32444270481751

> <r_i_glide_lipo>
-2.94058962145095

> <r_i_glide_hbond>
-0.610676893796

> <r_i_glide_metal>
0

> <r_i_glide_rewards>
-1.9867872855232

> <r_i_glide_evdw>
-44.3282127380371

> <r_i_glide_ecoul>
-6.19489192962646

> <r_i_glide_erotb>
0.414699353202597

> <r_i_glide_esite>
-0.055443830904122

> <r_i_glide_emodel>
-74.383896153794

> <r_i_glide_energy>
-50.5231046676636

> <r_i_glide_einternal>
2.75740265846252

> <i_i_glide_confnum>
7

> <i_i_glide_posenum>
190

> <r_i_glide_eff_state_penalty>
0

> <s_user_duplicate_titles>
CHEMBL3231_lig657

> <i_f3d_flags>
0

> <s_m_subgroup_title>
dock_pv

> <s_m_subgroupid>
dock_pv

> <b_m_subgroup_collapsed>
1

$$$$
CHEMBL3231_lig77
                    3D
 Schrodinger Suite 2021-1.
 54 57  0  0  1  0            999 V2000
   50.7337   99.7148   26.8564 C   0  0  0  0  0  0
   51.2424  100.2057   28.1737 C   0  0  0  0  0  0
   51.6997   99.3185   29.1560 C   0  0  0  0  0  0
   52.1116   99.7805   30.4172 C   0  0  0  0  0  0
   52.0504  101.1568   30.6909 C   0  0  0  0  0  0
   51.6394  102.0522   29.6919 C   0  0  0  0  0  0
   51.2334  101.5761   28.4501 C   0  0  0  0  0  0
   52.4224  101.5638   31.9841 N   0  0  0  0  0  0
   52.0062  102.6418   32.6800 C   0  0  0  0  0  0
   52.5458  102.7504   34.1326 C   0  0  2  0  0  0
   51.2436  103.5000   32.2241 O   0  0  0  0  0  0
   52.1172  101.5403   35.0150 C   0  0  0  0  0  0
   50.6901  101.4820   35.1345 O   0  0  0  0  0  0
   52.0751  103.9758   34.7326 O   0  0  0  0  0  0
   50.7914  103.9187   35.2466 C   0  0  0  0  0  0
   50.1304  102.6975   35.4778 C   0  0  0  0  0  0
   48.8432  102.6931   36.0106 C   0  0  0  0  0  0
   48.2280  103.9028   36.3402 C   0  0  0  0  0  0
   48.8923  105.1146   36.1298 C   0  0  0  0  0  0
   50.1757  105.1234   35.5805 C   0  0  0  0  0  0
   50.3171  100.4645   25.7622 C   0  0  0  0  0  0
   49.9140   99.5691   24.8113 N   0  0  0  0  0  0
   50.0431   98.3030   25.2111 N   0  0  0  0  0  0
   50.5345   98.3910   26.4235 C   0  0  0  0  0  0
   52.5286   98.9485   31.4457 O   0  0  0  0  0  0
   52.8973   97.5986   31.1734 C   0  0  0  0  0  0
   53.3350   96.8892   32.4747 C   0  0  0  0  0  0
   54.3458   97.6109   33.2646 N   0  0  0  0  0  0
   55.6345   97.7095   32.5752 C   0  0  0  0  0  0
   54.5471   96.9295   34.5415 C   0  0  0  0  0  0
   51.7132   98.2620   28.9373 H   0  0  0  0  0  0
   51.6288  103.1166   29.8623 H   0  0  0  0  0  0
   50.8985  102.2854   27.7080 H   0  0  0  0  0  0
   52.9775  100.8746   32.4738 H   0  0  0  0  0  0
   53.6292  102.8092   34.0299 H   0  0  0  0  0  0
   52.5576  101.6648   36.0053 H   0  0  0  0  0  0
   52.5031  100.5975   34.6286 H   0  0  0  0  0  0
   48.3246  101.7583   36.1738 H   0  0  0  0  0  0
   47.2355  103.9033   36.7644 H   0  0  0  0  0  0
   48.4172  106.0470   36.3967 H   0  0  0  0  0  0
   50.6973  106.0577   35.4191 H   0  0  0  0  0  0
   50.2577  101.5281   25.5875 H   0  0  0  0  0  0
   49.5343   99.8165   23.9049 H   0  0  0  0  0  0
   50.7370   97.5008   26.9998 H   0  0  0  0  0  0
   52.0453   97.0540   30.7669 H   0  0  0  0  0  0
   53.6910   97.5700   30.4192 H   0  0  0  0  0  0
   52.4449   96.7394   33.0893 H   0  0  0  0  0  0
   53.6997   95.8913   32.2341 H   0  0  0  0  0  0
   55.5405   98.2816   31.6504 H   0  0  0  0  0  0
   56.3671   98.2255   33.1966 H   0  0  0  0  0  0
   56.0434   96.7267   32.3259 H   0  0  0  0  0  0
   53.6152   96.8797   35.1046 H   0  0  0  0  0  0
   54.9181   95.9131   34.4060 H   0  0  0  0  0  0
   55.2671   97.4707   35.1586 H   0  0  0  0  0  0
  1 21  2  0  0  0
  1 24  1  0  0  0
  1  2  1  0  0  0
  2  7  1  0  0  0
  2  3  2  0  0  0
  3  4  1  0  0  0
  3 31  1  0  0  0
  4  5  2  0  0  0
  4 25  1  0  0  0
  5  8  1  0  0  0
  5  6  1  0  0  0
  6  7  2  0  0  0
  6 32  1  0  0  0
  7 33  1  0  0  0
  8  9  1  0  0  0
  8 34  1  0  0  0
  9 10  1  0  0  0
  9 11  2  0  0  0
 10 12  1  0  0  0
 10 14  1  0  0  0
 10 35  1  0  0  0
 12 13  1  0  0  0
 12 36  1  0  0  0
 12 37  1  0  0  0
 13 16  1  0  0  0
 14 15  1  0  0  0
 15 16  2  0  0  0
 15 20  1  0  0  0
 16 17  1  0  0  0
 17 18  2  0  0  0
 17 38  1  0  0  0
 18 19  1  0  0  0
 18 39  1  0  0  0
 19 20  2  0  0  0
 19 40  1  0  0  0
 20 41  1  0  0  0
 21 22  1  0  0  0
 21 42  1  0  0  0
 22 23  1  0  0  0
 22 43  1  0  0  0
 23 24  2  0  0  0
 24 44  1  0  0  0
 25 26  1  0  0  0
 26 27  1  0  0  0
 26 45  1  0  0  0
 26 46  1  0  0  0
 27 28  1  0  0  0
 27 47  1  0  0  0
 27 48  1  0  0  0
 28 29  1  0  0  0
 28 30  1  0  0  0
 29 49  1  0  0  0
 29 50  1  0  0  0
 29 51  1  0  0  0
 30 52  1  0  0  0
 30 53  1  0  0  0
 30 54  1  0  0  0
M  END
> <s_m_entry_id>
27960

> <s_m_entry_name>
dock_pv.121

> <s_m_Source_Path>
/home/csk/Desktop/cluster/DUD-E-result/rock1

> <s_m_Source_File>
dock_pv.maegz

> <i_m_Source_File_Index>
121

> <chembl_id>
CHEMBL521179

> <chembl_pref_name>
SR-3677

> <i_lp_mmshare_version>
53161

> <r_lp_tautomer_probability>
0.5

> <s_lp_Force_Field>
OPLS_2005

> <r_lp_Energy>
32.779295

> <b_lp_Chiralities_Consistent>
1

> <s_lp_Variant>
CHEMBL3231_lig77-1

> <s_i_glide_gridfile>
glide-grid_2etr

> <i_i_glide_lignum>
106

> <i_i_glide_rotatable_bonds>
8

> <r_i_docking_score>
-8.32000913847901

> <r_i_glide_ligand_efficiency>
-0.2773336379493

> <r_i_glide_ligand_efficiency_sa>
-0.861740093853522

> <r_i_glide_ligand_efficiency_ln>
-1.89039673002279

> <r_i_glide_gscore>
-8.32000913847901

> <r_i_glide_lipo>
-3.03221870695895

> <r_i_glide_hbond>
-0.663693927060396

> <r_i_glide_metal>
0

> <r_i_glide_rewards>
-1.56909369195089

> <r_i_glide_evdw>
-46.019847869873

> <r_i_glide_ecoul>
-8.58908462524414

> <r_i_glide_erotb>
0.578061868107289

> <r_i_glide_esite>
-0.043709593335802

> <r_i_glide_emodel>
-82.4308574633725

> <r_i_glide_energy>
-54.6089324951172

> <r_i_glide_einternal>
1.67560648918152

> <i_i_glide_confnum>
61

> <i_i_glide_posenum>
397

> <r_i_glide_eff_state_penalty>
0

> <s_user_duplicate_titles>
CHEMBL3231_lig77,514721

> <i_f3d_flags>
0

> <s_m_subgroup_title>
dock_pv

> <s_m_subgroupid>
dock_pv

> <b_m_subgroup_collapsed>
1

$$$$
CHEMBL3231_lig639
                    3D
 Schrodinger Suite 2021-1.
 43 45  0  0  1  0            999 V2000
   51.1165  103.5477   28.8109 C   0  0  0  0  0  0
   50.8929  102.2675   28.2296 O   0  0  0  0  0  0
   51.3974  101.1333   28.8440 C   0  0  0  0  0  0
   52.0587  101.1746   30.0883 C   0  0  0  0  0  0
   52.5677  100.0155   30.6863 C   0  0  0  0  0  0
   52.3598   98.7883   30.0531 C   0  0  0  0  0  0
   51.7024   98.7300   28.8305 C   0  0  0  0  0  0
   51.2432   99.8904   28.1924 C   0  0  0  0  0  0
   50.6431   99.7265   26.8198 C   0  0  0  0  0  0
   50.4453   98.5304   26.0976 C   0  0  0  0  0  0
   49.9390   98.7032   24.9027 N   0  0  0  0  0  0
   49.7645  100.0190   24.8109 N   0  0  0  0  0  0
   50.1721  100.6896   25.9298 C   0  0  0  0  0  0
   53.3125  100.0870   31.9964 C   0  0  0  0  0  0
   52.9277  100.8270   32.9026 O   0  0  0  0  0  0
   54.3994   99.3004   32.0797 N   0  0  0  0  0  0
   55.1822   99.0554   33.2887 C   0  0  0  0  0  0
   54.5516   98.0068   34.2014 C   0  0  0  0  0  0
   54.1358   98.3455   35.4923 C   0  0  0  0  0  0
   53.5826   97.3744   36.3265 C   0  0  0  0  0  0
   53.4383   96.0640   35.8751 C   0  0  0  0  0  0
   53.8314   95.7075   34.5755 C   0  0  0  0  0  0
   54.4064   96.6881   33.7549 C   0  0  0  0  0  0
   53.6571   94.3000   34.0583 C   0  0  0  0  0  0
   54.1848   93.9028   33.0205 O   0  0  0  0  0  0
   52.8430   93.5031   34.8102 O   0  0  0  0  0  0
   50.6750  104.3156   28.1755 H   0  0  0  0  0  0
   50.6509  103.6250   29.7926 H   0  0  0  0  0  0
   52.1824  103.7666   28.9003 H   0  0  0  0  0  0
   52.2111  102.1143   30.5973 H   0  0  0  0  0  0
   52.7058   97.8663   30.5031 H   0  0  0  0  0  0
   51.5894   97.7579   28.3761 H   0  0  0  0  0  0
   50.6810   97.5331   26.4367 H   0  0  0  0  0  0
   49.3734  100.4443   23.9758 H   0  0  0  0  0  0
   50.1035  101.7674   25.9840 H   0  0  0  0  0  0
   54.6909   98.7973   31.2546 H   0  0  0  0  0  0
   55.3577   99.9893   33.8301 H   0  0  0  0  0  0
   56.1690   98.6951   32.9899 H   0  0  0  0  0  0
   54.2419   99.3593   35.8531 H   0  0  0  0  0  0
   53.2691   97.6387   37.3264 H   0  0  0  0  0  0
   53.0122   95.3332   36.5457 H   0  0  0  0  0  0
   54.7376   96.4345   32.7575 H   0  0  0  0  0  0
   52.7600   92.6144   34.4360 H   0  0  0  0  0  0
  1  2  1  0  0  0
  1 27  1  0  0  0
  1 28  1  0  0  0
  1 29  1  0  0  0
  2  3  1  0  0  0
  3  4  2  0  0  0
  3  8  1  0  0  0
  4  5  1  0  0  0
  4 30  1  0  0  0
  5  6  2  0  0  0
  5 14  1  0  0  0
  6  7  1  0  0  0
  6 31  1  0  0  0
  7  8  2  0  0  0
  7 32  1  0  0  0
  8  9  1  0  0  0
  9 10  1  0  0  0
  9 13  2  0  0  0
 10 11  2  0  0  0
 10 33  1  0  0  0
 11 12  1  0  0  0
 12 13  1  0  0  0
 12 34  1  0  0  0
 13 35  1  0  0  0
 14 15  2  0  0  0
 14 16  1  0  0  0
 16 17  1  0  0  0
 16 36  1  0  0  0
 17 18  1  0  0  0
 17 37  1  0  0  0
 17 38  1  0  0  0
 18 19  2  0  0  0
 18 23  1  0  0  0
 19 20  1  0  0  0
 19 39  1  0  0  0
 20 21  2  0  0  0
 20 40  1  0  0  0
 21 22  1  0  0  0
 21 41  1  0  0  0
 22 23  2  0  0  0
 22 24  1  0  0  0
 23 42  1  0  0  0
 24 25  2  0  0  0
 24 26  1  0  0  0
 26 43  1  0  0  0
M  END
> <s_m_entry_id>
27961

> <s_m_entry_name>
dock_pv.122

> <s_m_Source_Path>
/home/csk/Desktop/cluster/DUD-E-result/rock1

> <s_m_Source_File>
dock_pv.maegz

> <i_m_Source_File_Index>
122

> <chembl_id>
CHEMBL3921882

> <chembl_pref_name>
None

> <i_lp_mmshare_version>
53161

> <r_lp_tautomer_probability>
0.5

> <s_lp_Force_Field>
OPLS_2005

> <r_lp_Energy>
22.447149

> <b_lp_Chiralities_Consistent>
1

> <s_lp_Variant>
CHEMBL3231_lig639-1

> <s_i_glide_gridfile>
glide-grid_2etr

> <i_i_glide_lignum>
927

> <i_i_glide_rotatable_bonds>
8

> <r_i_docking_score>
-8.30410629511344

> <r_i_glide_ligand_efficiency>
-0.319388703658209

> <r_i_glide_ligand_efficiency_sa>
-0.946187777853581

> <r_i_glide_ligand_efficiency_ln>
-1.95019211541219

> <r_i_glide_gscore>
-8.30410629511344

> <r_i_glide_lipo>
-2.11119630684635

> <r_i_glide_hbond>
-0.609946183896131

> <r_i_glide_metal>
0

> <r_i_glide_rewards>
-2.53815373322635

> <r_i_glide_evdw>
-42.406120300293

> <r_i_glide_ecoul>
-10.1001281738281

> <r_i_glide_erotb>
0.648856746300045

> <r_i_glide_esite>
-0.0583415763557842

> <r_i_glide_emodel>
-77.750205262995

> <r_i_glide_energy>
-52.5062484741211

> <r_i_glide_einternal>
3.15682888031006

> <i_i_glide_confnum>
42

> <i_i_glide_posenum>
321

> <r_i_glide_eff_state_penalty>
0

> <s_user_duplicate_titles>
CHEMBL3231_lig639

> <i_f3d_flags>
0

> <s_m_subgroup_title>
dock_pv

> <s_m_subgroupid>
dock_pv

> <b_m_subgroup_collapsed>
1

$$$$
CHEMBL3231_lig400
                    3D
 Schrodinger Suite 2021-1.
 52 54  0  0  1  0            999 V2000
   52.8930  102.0496   31.5175 N   0  0  0  0  0  0
   52.3407  102.9788   32.3209 C   0  0  0  0  0  0
   51.2430  103.5030   32.1247 O   0  0  0  0  0  0
   53.1211  103.2596   33.3778 N   0  0  0  0  0  0
   52.9002  104.3423   34.3518 C   0  0  2  0  0  0
   54.0447  104.3543   35.3963 C   0  0  0  0  0  0
   54.1681  105.6596   36.2259 C   0  0  0  0  0  0
   51.5165  104.3466   35.0281 C   0  0  0  0  0  0
   50.9745  103.1690   35.5578 C   0  0  0  0  0  0
   49.7120  103.1799   36.1459 C   0  0  0  0  0  0
   48.9899  104.3697   36.2080 C   0  0  0  0  0  0
   49.5186  105.5474   35.6837 C   0  0  0  0  0  0
   50.7797  105.5353   35.0925 C   0  0  0  0  0  0
   55.2428  106.5538   35.7714 N   0  0  0  0  0  0
   54.9855  107.1057   34.4393 C   0  0  0  0  0  0
   55.3883  107.6633   36.7117 C   0  0  0  0  0  0
   52.3423  101.5529   30.3247 C   0  0  0  0  0  0
   51.5936  102.3460   29.4440 C   0  0  0  0  0  0
   51.0485  101.7851   28.2951 C   0  0  0  0  0  0
   51.2622  100.4354   28.0011 C   0  0  0  0  0  0
   52.0351   99.6546   28.8674 C   0  0  0  0  0  0
   52.5802  100.2130   30.0202 C   0  0  0  0  0  0
   50.0431   98.3029   25.2110 N   0  0  0  0  0  0
   49.7000   99.5277   24.8109 N   0  0  0  0  0  0
   50.0505  100.4962   25.7074 C   0  0  0  0  0  0
   50.6759   99.8427   26.7619 C   0  0  0  0  0  0
   50.6198   98.4912   26.3742 C   0  0  0  0  0  0
   53.7305  101.5869   31.8384 H   0  0  0  0  0  0
   54.0674  102.9129   33.3422 H   0  0  0  0  0  0
   52.9807  105.2570   33.7606 H   0  0  0  0  0  0
   53.9611  103.4950   36.0627 H   0  0  0  0  0  0
   54.9785  104.2050   34.8508 H   0  0  0  0  0  0
   53.2244  106.2076   36.2199 H   0  0  0  0  0  0
   54.3465  105.3858   37.2672 H   0  0  0  0  0  0
   51.5306  102.2435   35.5066 H   0  0  0  0  0  0
   49.2948  102.2700   36.5530 H   0  0  0  0  0  0
   48.0099  104.3772   36.6626 H   0  0  0  0  0  0
   48.9543  106.4665   35.7373 H   0  0  0  0  0  0
   51.1863  106.4505   34.6842 H   0  0  0  0  0  0
   55.7736  107.7991   34.1458 H   0  0  0  0  0  0
   54.9549  106.3258   33.6799 H   0  0  0  0  0  0
   54.0372  107.6447   34.4114 H   0  0  0  0  0  0
   56.2151  108.3117   36.4160 H   0  0  0  0  0  0
   54.4826  108.2698   36.7613 H   0  0  0  0  0  0
   55.6064  107.2995   37.7167 H   0  0  0  0  0  0
   51.4294  103.3945   29.6400 H   0  0  0  0  0  0
   50.4622  102.4085   27.6362 H   0  0  0  0  0  0
   52.2211   98.6131   28.6540 H   0  0  0  0  0  0
   53.1705   99.5928   30.6812 H   0  0  0  0  0  0
   49.2425   99.6988   23.9197 H   0  0  0  0  0  0
   49.8357  101.5366   25.5161 H   0  0  0  0  0  0
   51.0023   97.6543   26.9394 H   0  0  0  0  0  0
  1  2  1  0  0  0
  1 17  1  0  0  0
  1 28  1  0  0  0
  2  3  2  0  0  0
  2  4  1  0  0  0
  4  5  1  0  0  0
  4 29  1  0  0  0
  5  6  1  0  0  0
  5  8  1  0  0  0
  5 30  1  0  0  0
  6  7  1  0  0  0
  6 31  1  0  0  0
  6 32  1  0  0  0
  7 14  1  0  0  0
  7 33  1  0  0  0
  7 34  1  0  0  0
  8  9  1  0  0  0
  8 13  2  0  0  0
  9 10  2  0  0  0
  9 35  1  0  0  0
 10 11  1  0  0  0
 10 36  1  0  0  0
 11 12  2  0  0  0
 11 37  1  0  0  0
 12 13  1  0  0  0
 12 38  1  0  0  0
 13 39  1  0  0  0
 14 15  1  0  0  0
 14 16  1  0  0  0
 15 40  1  0  0  0
 15 41  1  0  0  0
 15 42  1  0  0  0
 16 43  1  0  0  0
 16 44  1  0  0  0
 16 45  1  0  0  0
 17 18  1  0  0  0
 17 22  2  0  0  0
 18 19  2  0  0  0
 18 46  1  0  0  0
 19 20  1  0  0  0
 19 47  1  0  0  0
 20 21  2  0  0  0
 20 26  1  0  0  0
 21 22  1  0  0  0
 21 48  1  0  0  0
 22 49  1  0  0  0
 23 27  2  0  0  0
 23 24  1  0  0  0
 24 50  1  0  0  0
 24 25  1  0  0  0
 25 51  1  0  0  0
 25 26  2  0  0  0
 26 27  1  0  0  0
 27 52  1  0  0  0
M  END
> <s_m_entry_id>
27962

> <s_m_entry_name>
dock_pv.123

> <s_m_Source_Path>
/home/csk/Desktop/cluster/DUD-E-result/rock1

> <s_m_Source_File>
dock_pv.maegz

> <i_m_Source_File_Index>
123

> <chembl_id>
CHEMBL2332059

> <chembl_pref_name>
None

> <i_lp_mmshare_version>
53161

> <r_lp_tautomer_probability>
0.5

> <s_lp_Force_Field>
OPLS_2005

> <r_lp_Energy>
20.721671

> <b_lp_Chiralities_Consistent>
1

> <s_lp_Variant>
CHEMBL3231_lig400-1

> <s_i_glide_gridfile>
glide-grid_2etr

> <i_i_glide_lignum>
561

> <i_i_glide_rotatable_bonds>
9

> <r_i_docking_score>
-8.30298383551753

> <r_i_glide_ligand_efficiency>
-0.307517919833983

> <r_i_glide_ligand_efficiency_sa>
-0.922553758488419

> <r_i_glide_ligand_efficiency_ln>
-1.93279775152178

> <r_i_glide_gscore>
-8.30298383551753

> <r_i_glide_lipo>
-2.420661344855

> <r_i_glide_hbond>
-0.825522791472091

> <r_i_glide_metal>
0

> <r_i_glide_rewards>
-1.8076809878962

> <r_i_glide_evdw>
-40.383487701416

> <r_i_glide_ecoul>
-12.4509286880493

> <r_i_glide_erotb>
0.712691533419229

> <r_i_glide_esite>
-0.0749965564352726

> <r_i_glide_emodel>
-78.9626041071611

> <r_i_glide_energy>
-52.8344163894653

> <r_i_glide_einternal>
6.60899114608765

> <i_i_glide_confnum>
40

> <i_i_glide_posenum>
376

> <r_i_glide_eff_state_penalty>
0

> <s_user_duplicate_titles>
CHEMBL3231_lig400

> <i_f3d_flags>
0

> <s_m_subgroup_title>
dock_pv

> <s_m_subgroupid>
dock_pv

> <b_m_subgroup_collapsed>
1

$$$$
CHEMBL3231_lig665
                    3D
 Schrodinger Suite 2021-1.
 47 49  0  0  1  0            999 V2000
   51.4297   97.6462   30.4188 C   0  0  0  0  0  0
   51.2461   98.4042   29.2234 O   0  0  0  0  0  0
   51.3603   99.7841   29.2460 C   0  0  0  0  0  0
   51.7488  100.4962   30.3991 C   0  0  0  0  0  0
   51.7815  101.8991   30.4228 C   0  0  0  0  0  0
   51.4721  102.5886   29.2468 C   0  0  0  0  0  0
   51.1011  101.9008   28.0999 C   0  0  0  0  0  0
   51.0298  100.5033   28.0804 C   0  0  0  0  0  0
   50.5509   99.8643   26.8054 C   0  0  0  0  0  0
   50.5726   98.5131   26.3986 C   0  0  0  0  0  0
   50.0433   98.3044   25.2145 N   0  0  0  0  0  0
   49.6694   99.5150   24.8103 N   0  0  0  0  0  0
   49.9500  100.4903   25.7211 C   0  0  0  0  0  0
   52.0436  102.6781   31.6940 C   0  0  0  0  0  0
   51.6431  103.8399   31.8001 O   0  0  0  0  0  0
   52.6788  102.0340   32.6906 N   0  0  0  0  0  0
   52.8096  102.5389   34.0632 C   0  0  2  0  0  0
   53.7995  101.6992   34.9047 C   0  0  0  0  0  0
   55.2325  101.6197   34.3450 C   0  0  0  0  0  0
   56.0431  100.9098   35.2618 O   0  0  0  0  0  0
   51.4535  102.6552   34.7793 C   0  0  0  0  0  0
   51.0225  103.8917   35.2741 C   0  0  0  0  0  0
   49.7976  103.9926   35.9286 C   0  0  0  0  0  0
   49.0020  102.8591   36.0888 C   0  0  0  0  0  0
   49.4226  101.6239   35.6041 C   0  0  0  0  0  0
   50.6455  101.5224   34.9462 C   0  0  0  0  0  0
   51.2420   96.5935   30.2073 H   0  0  0  0  0  0
   52.4500   97.7334   30.7966 H   0  0  0  0  0  0
   50.7283   97.9495   31.1984 H   0  0  0  0  0  0
   51.9720   99.9545   31.3037 H   0  0  0  0  0  0
   51.4904  103.6715   29.2165 H   0  0  0  0  0  0
   50.8428  102.4773   27.2242 H   0  0  0  0  0  0
   50.9721   97.6846   26.9644 H   0  0  0  0  0  0
   49.2345   99.6747   23.9074 H   0  0  0  0  0  0
   49.6887  101.5183   25.5212 H   0  0  0  0  0  0
   53.1863  101.1919   32.4686 H   0  0  0  0  0  0
   53.2428  103.5418   33.9954 H   0  0  0  0  0  0
   53.8539  102.1290   35.9087 H   0  0  0  0  0  0
   53.4159  100.6847   35.0263 H   0  0  0  0  0  0
   55.2499  101.1469   33.3593 H   0  0  0  0  0  0
   55.6366  102.6210   34.1844 H   0  0  0  0  0  0
   56.9700  100.9726   34.9976 H   0  0  0  0  0  0
   51.6346  104.7754   35.1500 H   0  0  0  0  0  0
   49.4632  104.9483   36.3093 H   0  0  0  0  0  0
   48.0526  102.9353   36.6010 H   0  0  0  0  0  0
   48.8047  100.7466   35.7343 H   0  0  0  0  0  0
   50.9678  100.5648   34.5661 H   0  0  0  0  0  0
  1  2  1  0  0  0
  1 27  1  0  0  0
  1 28  1  0  0  0
  1 29  1  0  0  0
  2  3  1  0  0  0
  3  4  2  0  0  0
  3  8  1  0  0  0
  4  5  1  0  0  0
  4 30  1  0  0  0
  5  6  2  0  0  0
  5 14  1  0  0  0
  6  7  1  0  0  0
  6 31  1  0  0  0
  7  8  2  0  0  0
  7 32  1  0  0  0
  8  9  1  0  0  0
  9 10  1  0  0  0
  9 13  2  0  0  0
 10 11  2  0  0  0
 10 33  1  0  0  0
 11 12  1  0  0  0
 12 13  1  0  0  0
 12 34  1  0  0  0
 13 35  1  0  0  0
 14 15  2  0  0  0
 14 16  1  0  0  0
 16 17  1  0  0  0
 16 36  1  0  0  0
 17 18  1  0  0  0
 17 21  1  0  0  0
 17 37  1  0  0  0
 18 19  1  0  0  0
 18 38  1  0  0  0
 18 39  1  0  0  0
 19 20  1  0  0  0
 19 40  1  0  0  0
 19 41  1  0  0  0
 20 42  1  0  0  0
 21 22  2  0  0  0
 21 26  1  0  0  0
 22 23  1  0  0  0
 22 43  1  0  0  0
 23 24  2  0  0  0
 23 44  1  0  0  0
 24 25  1  0  0  0
 24 45  1  0  0  0
 25 26  2  0  0  0
 25 46  1  0  0  0
 26 47  1  0  0  0
M  END
> <s_m_entry_id>
27963

> <s_m_entry_name>
dock_pv.124

> <s_m_Source_Path>
/home/csk/Desktop/cluster/DUD-E-result/rock1

> <s_m_Source_File>
dock_pv.maegz

> <i_m_Source_File_Index>
124

> <chembl_id>
CHEMBL3957255

> <chembl_pref_name>
None

> <i_lp_mmshare_version>
53161

> <r_lp_tautomer_probability>
0.5

> <s_lp_Force_Field>
OPLS_2005

> <r_lp_Energy>
22.994352

> <b_lp_Chiralities_Consistent>
1

> <s_lp_Variant>
CHEMBL3231_lig665-1

> <s_i_glide_gridfile>
glide-grid_2etr

> <i_i_glide_lignum>
955

> <i_i_glide_rotatable_bonds>
9

> <r_i_docking_score>
-8.30291322697394

> <r_i_glide_ligand_efficiency>
-0.319342816422075

> <r_i_glide_ligand_efficiency_sa>
-0.94605183709709

> <r_i_glide_ligand_efficiency_ln>
-1.94991192727441

> <r_i_glide_gscore>
-8.30291322697394

> <r_i_glide_lipo>
-2.85810750759816

> <r_i_glide_hbond>
-0.725780444695811

> <r_i_glide_metal>
0

> <r_i_glide_rewards>
-1.97083208593069

> <r_i_glide_evdw>
-41.8746185302734

> <r_i_glide_ecoul>
-8.33472442626953

> <r_i_glide_erotb>
0.648715347840463

> <r_i_glide_esite>
-0.0529689461356418

> <r_i_glide_emodel>
-74.9821984820578

> <r_i_glide_energy>
-50.209342956543

> <r_i_glide_einternal>
4.29648971557617

> <i_i_glide_confnum>
16

> <i_i_glide_posenum>
155

> <r_i_glide_eff_state_penalty>
0

> <s_user_duplicate_titles>
CHEMBL3231_lig665

> <i_f3d_flags>
0

> <s_m_subgroup_title>
dock_pv

> <s_m_subgroupid>
dock_pv

> <b_m_subgroup_collapsed>
1

$$$$
CHEMBL3231_lig15
                    3D
 Schrodinger Suite 2021-1.
 38 40  0  0  1  0            999 V2000
   53.2342  101.8591   31.6379 C   0  0  1  0  0  0
   53.9728  103.2098   31.3294 C   0  0  0  0  0  0
   52.1790  101.9385   32.7685 C   0  0  0  0  0  0
   51.5460  103.1451   33.1061 C   0  0  0  0  0  0
   50.5884  103.1832   34.1158 C   0  0  0  0  0  0
   50.2381  102.0137   34.7834 C   0  0  0  0  0  0
   50.8513  100.8059   34.4592 C   0  0  0  0  0  0
   51.8172  100.7687   33.4564 C   0  0  0  0  0  0
   49.0264  102.0644   36.0089 Cl  0  0  0  0  0  0
   54.4763  103.9003   32.5094 N   0  0  0  0  0  0
   52.5387  101.3080   30.3733 C   0  0  0  0  0  0
   52.6689   99.9583   30.0148 C   0  0  0  0  0  0
   52.0433   99.4650   28.8767 C   0  0  0  0  0  0
   51.2877  100.3127   28.0645 C   0  0  0  0  0  0
   51.1209  101.6506   28.4321 C   0  0  0  0  0  0
   51.7328  102.1411   29.5833 C   0  0  0  0  0  0
   50.0424   98.3019   25.2105 N   0  0  0  0  0  0
   49.7859   99.5506   24.8113 N   0  0  0  0  0  0
   50.1505  100.4880   25.7368 C   0  0  0  0  0  0
   50.6946   99.7822   26.8020 C   0  0  0  0  0  0
   50.5754   98.4392   26.3972 C   0  0  0  0  0  0
   54.3230  101.0227   32.0303 O   0  0  0  0  0  0
   54.8019  103.0456   30.6370 H   0  0  0  0  0  0
   53.3105  103.9155   30.8290 H   0  0  0  0  0  0
   51.8072  104.0636   32.6031 H   0  0  0  0  0  0
   50.1220  104.1194   34.3867 H   0  0  0  0  0  0
   50.5769   99.9024   34.9826 H   0  0  0  0  0  0
   52.2852   99.8261   33.2079 H   0  0  0  0  0  0
   55.1142  103.2869   32.9996 H   0  0  0  0  0  0
   55.0347  104.6904   32.1856 H   0  0  0  0  0  0
   53.2602   99.2786   30.6126 H   0  0  0  0  0  0
   52.1765   98.4256   28.6245 H   0  0  0  0  0  0
   50.5269  102.3147   27.8219 H   0  0  0  0  0  0
   51.5840  103.1768   29.8460 H   0  0  0  0  0  0
   49.3615   99.7534   23.9095 H   0  0  0  0  0  0
   50.0070  101.5411   25.5534 H   0  0  0  0  0  0
   50.8861   97.5739   26.9643 H   0  0  0  0  0  0
   55.0376  101.1321   31.3927 H   0  0  0  0  0  0
  1  2  1  0  0  0
  1  3  1  0  0  0
  1 11  1  0  0  0
  1 22  1  0  0  0
  2 10  1  0  0  0
  2 23  1  0  0  0
  2 24  1  0  0  0
  3  4  1  0  0  0
  3  8  2  0  0  0
  4  5  2  0  0  0
  4 25  1  0  0  0
  5  6  1  0  0  0
  5 26  1  0  0  0
  6  7  2  0  0  0
  6  9  1  0  0  0
  7  8  1  0  0  0
  7 27  1  0  0  0
  8 28  1  0  0  0
 10 29  1  0  0  0
 10 30  1  0  0  0
 11 12  1  0  0  0
 11 16  2  0  0  0
 12 13  2  0  0  0
 12 31  1  0  0  0
 13 14  1  0  0  0
 13 32  1  0  0  0
 14 15  2  0  0  0
 14 20  1  0  0  0
 15 16  1  0  0  0
 15 33  1  0  0  0
 16 34  1  0  0  0
 17 21  2  0  0  0
 17 18  1  0  0  0
 18 35  1  0  0  0
 18 19  1  0  0  0
 19 36  1  0  0  0
 19 20  2  0  0  0
 20 21  1  0  0  0
 21 37  1  0  0  0
 22 38  1  0  0  0
M  END
> <s_m_entry_id>
27964

> <s_m_entry_name>
dock_pv.125

> <s_m_Source_Path>
/home/csk/Desktop/cluster/DUD-E-result/rock1

> <s_m_Source_File>
dock_pv.maegz

> <i_m_Source_File_Index>
125

> <chembl_id>
CHEMBL3544960

> <chembl_pref_name>
AT-13148

> <i_lp_mmshare_version>
53161

> <r_lp_tautomer_probability>
0.5

> <s_lp_Force_Field>
OPLS_2005

> <r_lp_Energy>
29.752862

> <b_lp_Chiralities_Consistent>
1

> <s_lp_Variant>
CHEMBL3231_lig15-1

> <s_i_glide_gridfile>
glide-grid_2etr

> <i_i_glide_lignum>
15

> <i_i_glide_rotatable_bonds>
5

> <r_i_docking_score>
-8.30286010852627

> <r_i_glide_ligand_efficiency>
-0.37740273220574

> <r_i_glide_ligand_efficiency_sa>
-1.0574972980477

> <r_i_glide_ligand_efficiency_ln>
-2.0295218647048

> <r_i_glide_gscore>
-8.30286010852627

> <r_i_glide_lipo>
-2.47331779183155

> <r_i_glide_hbond>
-0.892324742252938

> <r_i_glide_metal>
0

> <r_i_glide_rewards>
-2.22833086713873

> <r_i_glide_evdw>
-39.1690101623535

> <r_i_glide_ecoul>
-7.64468765258789

> <r_i_glide_erotb>
0.396266948702809

> <r_i_glide_esite>
0

> <r_i_glide_emodel>
-69.0444740225794

> <r_i_glide_energy>
-46.8136978149414

> <r_i_glide_einternal>
1.97061669826508

> <i_i_glide_confnum>
7

> <i_i_glide_posenum>
177

> <r_i_glide_eff_state_penalty>
0

> <s_user_duplicate_titles>
CHEMBL3231_lig15

> <i_f3d_flags>
0

> <s_m_subgroup_title>
dock_pv

> <s_m_subgroupid>
dock_pv

> <b_m_subgroup_collapsed>
1

$$$$
CHEMBL3231_lig526
                    3D
 Schrodinger Suite 2021-1.
 66 70  0  0  1  0            999 V2000
   54.6333  100.1261   36.9720 C   0  0  2  0  0  0
   54.9306  101.6073   37.3529 C   0  0  0  0  0  0
   56.2007  101.8734   37.7713 C   0  0  0  0  0  0
   57.0708  100.8632   38.0609 N   0  0  0  0  0  0
   56.7339   99.5646   38.2368 C   0  0  0  0  0  0
   55.4820   99.2453   37.8163 N   0  0  0  0  0  0
   57.4610   98.7595   38.8082 O   0  0  0  0  0  0
   56.8110  103.2283   38.1237 C   0  0  0  0  0  0
   53.9416  102.6413   37.0180 C   0  0  0  0  0  0
   52.6862  102.1801   36.8066 N   0  0  0  0  0  0
   54.2207  103.8381   36.9453 O   0  0  0  0  0  0
   51.5026  102.9110   36.5864 C   0  0  0  0  0  0
   50.4985  102.2819   35.8412 C   0  0  0  0  0  0
   50.0657  104.8418   36.9943 C   0  0  0  0  0  0
   51.2788  104.1743   37.1521 C   0  0  0  0  0  0
   49.0500  104.2195   36.2566 C   0  0  0  0  0  0
   49.2679  102.9357   35.6675 C   0  0  0  0  0  0
   48.0447  102.6557   35.0046 C   0  0  0  0  0  0
   47.2416  103.7379   35.2608 N   0  0  0  0  0  0
   47.7961  104.7030   36.0110 N   0  0  0  0  0  0
   54.7523   99.8505   35.4662 C   0  0  0  0  0  0
   53.6035   99.6957   34.6815 C   0  0  0  0  0  0
   53.6876   99.4615   33.3002 C   0  0  0  0  0  0
   54.9619   99.3724   32.7080 C   0  0  0  0  0  0
   56.1046   99.5030   33.4892 C   0  0  0  0  0  0
   56.0058   99.7491   34.8541 C   0  0  0  0  0  0
   55.1170   99.1869   31.3745 F   0  0  0  0  0  0
   52.4162   99.3484   32.4952 C   0  0  0  0  0  0
   52.4907   98.6206   31.3657 N   0  0  0  0  0  0
   51.3810   99.9027   32.8745 O   0  0  0  0  0  0
   51.4234   98.4049   30.3870 C   0  0  0  0  0  0
   51.2603   99.5080   29.3365 C   0  0  0  0  0  0
   51.4074  100.8576   29.6740 C   0  0  0  0  0  0
   51.1938  101.8716   28.7434 C   0  0  0  0  0  0
   50.8542  101.5216   27.4325 C   0  0  0  0  0  0
   50.7555  100.1782   27.0518 C   0  0  0  0  0  0
   50.9601   99.1762   28.0096 C   0  0  0  0  0  0
   50.4371   99.8376   25.5991 C   0  0  0  0  0  0
   51.3338  103.3261   29.1862 C   0  0  0  0  0  0
   50.6920  104.1665   28.3757 F   0  0  0  0  0  0
   50.8435  103.4984   30.4110 F   0  0  0  0  0  0
   52.6255  103.6456   29.2111 F   0  0  0  0  0  0
   50.4411   98.5237   25.3628 F   0  0  0  0  0  0
   51.3393  100.4136   24.8111 F   0  0  0  0  0  0
   49.2423  100.3197   25.2762 F   0  0  0  0  0  0
   53.6144   99.8409   37.2349 H   0  0  0  0  0  0
   58.0222  101.0776   38.3145 H   0  0  0  0  0  0
   55.3041   98.2536   37.7647 H   0  0  0  0  0  0
   57.3354  103.6272   37.2563 H   0  0  0  0  0  0
   56.0750  103.9565   38.4575 H   0  0  0  0  0  0
   57.5300  103.1486   38.9425 H   0  0  0  0  0  0
   52.5956  101.1807   36.7197 H   0  0  0  0  0  0
   50.6614  101.3054   35.4076 H   0  0  0  0  0  0
   49.9149  105.8132   37.4411 H   0  0  0  0  0  0
   52.0432  104.6517   37.7479 H   0  0  0  0  0  0
   47.6727  101.8336   34.4140 H   0  0  0  0  0  0
   46.2861  103.8142   34.9385 H   0  0  0  0  0  0
   52.6323   99.7688   35.1476 H   0  0  0  0  0  0
   57.0782   99.4431   33.0248 H   0  0  0  0  0  0
   56.9164   99.8758   35.4210 H   0  0  0  0  0  0
   53.4141   98.3093   31.0960 H   0  0  0  0  0  0
   50.4654   98.2790   30.8969 H   0  0  0  0  0  0
   51.6401   97.4576   29.8919 H   0  0  0  0  0  0
   51.6597  101.1427   30.6829 H   0  0  0  0  0  0
   50.6876  102.2946   26.6943 H   0  0  0  0  0  0
   50.8690   98.1358   27.7318 H   0  0  0  0  0  0
  1  2  1  0  0  0
  1  6  1  0  0  0
  1 21  1  0  0  0
  1 46  1  0  0  0
  2  3  2  0  0  0
  2  9  1  0  0  0
  3  4  1  0  0  0
  3  8  1  0  0  0
  4  5  1  0  0  0
  4 47  1  0  0  0
  5  6  1  0  0  0
  5  7  2  0  0  0
  6 48  1  0  0  0
  8 49  1  0  0  0
  8 50  1  0  0  0
  8 51  1  0  0  0
  9 10  1  0  0  0
  9 11  2  0  0  0
 10 52  1  0  0  0
 10 12  1  0  0  0
 12 15  1  0  0  0
 12 13  2  0  0  0
 13 53  1  0  0  0
 13 17  1  0  0  0
 14 16  1  0  0  0
 14 54  1  0  0  0
 14 15  2  0  0  0
 15 55  1  0  0  0
 16 20  2  0  0  0
 16 17  1  0  0  0
 17 18  2  0  0  0
 18 19  1  0  0  0
 18 56  1  0  0  0
 19 57  1  0  0  0
 19 20  1  0  0  0
 21 22  2  0  0  0
 21 26  1  0  0  0
 22 23  1  0  0  0
 22 58  1  0  0  0
 23 24  2  0  0  0
 23 28  1  0  0  0
 24 25  1  0  0  0
 24 27  1  0  0  0
 25 26  2  0  0  0
 25 59  1  0  0  0
 26 60  1  0  0  0
 28 29  1  0  0  0
 28 30  2  0  0  0
 29 31  1  0  0  0
 29 61  1  0  0  0
 31 32  1  0  0  0
 31 62  1  0  0  0
 31 63  1  0  0  0
 32 33  2  0  0  0
 32 37  1  0  0  0
 33 34  1  0  0  0
 33 64  1  0  0  0
 34 35  2  0  0  0
 34 39  1  0  0  0
 35 36  1  0  0  0
 35 65  1  0  0  0
 36 37  2  0  0  0
 36 38  1  0  0  0
 37 66  1  0  0  0
 38 43  1  0  0  0
 38 44  1  0  0  0
 38 45  1  0  0  0
 39 40  1  0  0  0
 39 41  1  0  0  0
 39 42  1  0  0  0
M  END
> <s_m_entry_id>
27965

> <s_m_entry_name>
dock_pv.126

> <s_m_Source_Path>
/home/csk/Desktop/cluster/DUD-E-result/rock1

> <s_m_Source_File>
dock_pv.maegz

> <i_m_Source_File_Index>
126

> <chembl_id>
CHEMBL3808657

> <chembl_pref_name>
None

> <i_lp_mmshare_version>
53161

> <r_lp_tautomer_probability>
0.019607843137214

> <s_lp_Force_Field>
OPLS_2005

> <r_lp_Energy>
68.8819

> <b_lp_Chiralities_Consistent>
1

> <s_lp_Variant>
CHEMBL3231_lig526-3

> <s_i_glide_gridfile>
glide-grid_2etr

> <i_i_glide_lignum>
783

> <i_i_glide_rotatable_bonds>
10

> <r_i_docking_score>
-8.30160221274506

> <r_i_glide_ligand_efficiency>
-0.184480049172113

> <r_i_glide_ligand_efficiency_sa>
-0.656175850879671

> <r_i_glide_ligand_efficiency_ln>
-1.72710320943332

> <r_i_glide_gscore>
-8.30160221274506

> <r_i_glide_lipo>
-3.18946146520209

> <r_i_glide_hbond>
0

> <r_i_glide_metal>
0

> <r_i_glide_rewards>
-1.79688780186058

> <r_i_glide_evdw>
-55.5111274719238

> <r_i_glide_ecoul>
-4.31851196289062

> <r_i_glide_erotb>
0.279141734613994

> <r_i_glide_esite>
-0.171061512266599

> <r_i_glide_emodel>
-86.4107914280946

> <r_i_glide_energy>
-59.8296394348145

> <r_i_glide_einternal>
7.06272172927856

> <i_i_glide_confnum>
13

> <i_i_glide_posenum>
176

> <r_i_glide_eff_state_penalty>
0

> <s_user_duplicate_titles>
CHEMBL3231_lig526,CHEMBL3231_lig526

> <i_f3d_flags>
0

> <s_m_subgroup_title>
dock_pv

> <s_m_subgroupid>
dock_pv

> <b_m_subgroup_collapsed>
1

$$$$
CHEMBL3231_lig704
                    3D
 Schrodinger Suite 2021-1.
 46 48  0  0  1  0            999 V2000
   51.4605   97.6398   30.4077 C   0  0  0  0  0  0
   51.2444   98.3952   29.2157 O   0  0  0  0  0  0
   51.3752   99.7743   29.2303 C   0  0  0  0  0  0
   51.8154  100.4812   30.3656 C   0  0  0  0  0  0
   51.8563  101.8825   30.3819 C   0  0  0  0  0  0
   51.4828  102.5836   29.2325 C   0  0  0  0  0  0
   51.0740  101.8973   28.0964 C   0  0  0  0  0  0
   51.0122  100.4985   28.0744 C   0  0  0  0  0  0
   50.5277   99.8611   26.8027 C   0  0  0  0  0  0
   50.5758   98.5128   26.3926 C   0  0  0  0  0  0
   50.0430   98.3014   25.2106 N   0  0  0  0  0  0
   49.6441   99.5064   24.8107 N   0  0  0  0  0  0
   49.9142  100.4843   25.7205 C   0  0  0  0  0  0
   52.2313  102.6491   31.6238 C   0  0  0  0  0  0
   51.6437  103.6950   31.9069 O   0  0  0  0  0  0
   53.2186  102.1219   32.3676 N   0  0  0  0  0  0
   53.7257  102.6912   33.6189 C   0  0  0  0  0  0
   53.1691  101.9929   34.8860 C   0  0  1  0  0  0
   53.9121  102.4516   36.1567 C   0  0  0  0  0  0
   51.6492  102.1311   35.0465 C   0  0  0  0  0  0
   50.8421  100.9883   35.0494 C   0  0  0  0  0  0
   49.4672  101.1060   35.2239 C   0  0  0  0  0  0
   48.8932  102.3628   35.3964 C   0  0  0  0  0  0
   49.6859  103.5085   35.3852 C   0  0  0  0  0  0
   51.0629  103.3931   35.2079 C   0  0  0  0  0  0
   51.2429   96.5907   30.2165 H   0  0  0  0  0  0
   52.4973   97.7051   30.7416 H   0  0  0  0  0  0
   50.7992   97.9662   31.2124 H   0  0  0  0  0  0
   52.0868   99.9462   31.2636 H   0  0  0  0  0  0
   51.5067  103.6653   29.2139 H   0  0  0  0  0  0
   50.7997  102.4772   27.2264 H   0  0  0  0  0  0
   50.9938   97.6942   26.9591 H   0  0  0  0  0  0
   49.2085   99.6610   23.9042 H   0  0  0  0  0  0
   49.6422  101.5113   25.5239 H   0  0  0  0  0  0
   53.7246  101.3349   31.9901 H   0  0  0  0  0  0
   53.5476  103.7696   33.6713 H   0  0  0  0  0  0
   54.8126  102.5858   33.5948 H   0  0  0  0  0  0
   53.3930  100.9293   34.7746 H   0  0  0  0  0  0
   53.5309  101.9396   37.0419 H   0  0  0  0  0  0
   54.9787  102.2327   36.0901 H   0  0  0  0  0  0
   53.8050  103.5243   36.3202 H   0  0  0  0  0  0
   51.2809  100.0090   34.9253 H   0  0  0  0  0  0
   48.8449  100.2224   35.2299 H   0  0  0  0  0  0
   47.8260  102.4490   35.5420 H   0  0  0  0  0  0
   49.2374  104.4807   35.5187 H   0  0  0  0  0  0
   51.6768  104.2836   35.2020 H   0  0  0  0  0  0
  1  2  1  0  0  0
  1 26  1  0  0  0
  1 27  1  0  0  0
  1 28  1  0  0  0
  2  3  1  0  0  0
  3  4  2  0  0  0
  3  8  1  0  0  0
  4  5  1  0  0  0
  4 29  1  0  0  0
  5  6  2  0  0  0
  5 14  1  0  0  0
  6  7  1  0  0  0
  6 30  1  0  0  0
  7  8  2  0  0  0
  7 31  1  0  0  0
  8  9  1  0  0  0
  9 10  1  0  0  0
  9 13  2  0  0  0
 10 11  2  0  0  0
 10 32  1  0  0  0
 11 12  1  0  0  0
 12 13  1  0  0  0
 12 33  1  0  0  0
 13 34  1  0  0  0
 14 15  2  0  0  0
 14 16  1  0  0  0
 16 17  1  0  0  0
 16 35  1  0  0  0
 17 18  1  0  0  0
 17 36  1  0  0  0
 17 37  1  0  0  0
 18 19  1  0  0  0
 18 20  1  0  0  0
 18 38  1  0  0  0
 19 39  1  0  0  0
 19 40  1  0  0  0
 19 41  1  0  0  0
 20 21  2  0  0  0
 20 25  1  0  0  0
 21 22  1  0  0  0
 21 42  1  0  0  0
 22 23  2  0  0  0
 22 43  1  0  0  0
 23 24  1  0  0  0
 23 44  1  0  0  0
 24 25  2  0  0  0
 24 45  1  0  0  0
 25 46  1  0  0  0
M  END
> <s_m_entry_id>
27966

> <s_m_entry_name>
dock_pv.127

> <s_m_Source_Path>
/home/csk/Desktop/cluster/DUD-E-result/rock1

> <s_m_Source_File>
dock_pv.maegz

> <i_m_Source_File_Index>
127

> <chembl_id>
CHEMBL4109752

> <chembl_pref_name>
None

> <i_lp_mmshare_version>
53161

> <r_lp_tautomer_probability>
0.5

> <s_lp_Force_Field>
OPLS_2005

> <r_lp_Energy>
22.412721

> <b_lp_Chiralities_Consistent>
1

> <s_lp_Variant>
CHEMBL3231_lig704-1

> <s_i_glide_gridfile>
glide-grid_2etr

> <i_i_glide_lignum>
1001

> <i_i_glide_rotatable_bonds>
7

> <r_i_docking_score>
-8.29627118679592

> <r_i_glide_ligand_efficiency>
-0.331850847471837

> <r_i_glide_ligand_efficiency_sa>
-0.970337763407491

> <r_i_glide_ligand_efficiency_ln>
-1.96646489045576

> <r_i_glide_gscore>
-8.29627118679592

> <r_i_glide_lipo>
-2.92103502776246

> <r_i_glide_hbond>
-0.674129236978574

> <r_i_glide_metal>
0

> <r_i_glide_rewards>
-2.09343990079738

> <r_i_glide_evdw>
-41.4686813354492

> <r_i_glide_ecoul>
-7.11210680007935

> <r_i_glide_erotb>
0.587196517146592

> <r_i_glide_esite>
-0.0546134516197394

> <r_i_glide_emodel>
-72.3752306758613

> <r_i_glide_energy>
-48.5807881355286

> <r_i_glide_einternal>
2.3207266330719

> <i_i_glide_confnum>
13

> <i_i_glide_posenum>
210

> <r_i_glide_eff_state_penalty>
0

> <s_user_duplicate_titles>
CHEMBL3231_lig704

> <i_f3d_flags>
0

> <s_m_subgroup_title>
dock_pv

> <s_m_subgroupid>
dock_pv

> <b_m_subgroup_collapsed>
1

$$$$
CHEMBL3231_lig595
                    3D
 Schrodinger Suite 2021-1.
 43 45  0  0  1  0            999 V2000
   51.4079   97.6351   30.4016 C   0  0  0  0  0  0
   51.2434   98.3977   29.2091 O   0  0  0  0  0  0
   51.2790   99.7808   29.2511 C   0  0  0  0  0  0
   51.6558  100.4874   30.4049 C   0  0  0  0  0  0
   51.6660  101.8908   30.4432 C   0  0  0  0  0  0
   51.2757  102.5872   29.2979 C   0  0  0  0  0  0
   50.8876  101.9038   28.1510 C   0  0  0  0  0  0
   50.8953  100.5055   28.1058 C   0  0  0  0  0  0
   50.4609   99.8642   26.8198 C   0  0  0  0  0  0
   50.5300   98.5153   26.4099 C   0  0  0  0  0  0
   50.0434   98.3026   25.2110 N   0  0  0  0  0  0
   49.6522   99.5031   24.7997 N   0  0  0  0  0  0
   49.8853  100.4826   25.7182 C   0  0  0  0  0  0
   52.0212  102.6536   31.6991 C   0  0  0  0  0  0
   51.6431  103.8178   31.8492 O   0  0  0  0  0  0
   52.7177  101.9890   32.6376 N   0  0  0  0  0  0
   52.9427  102.4596   34.0082 C   0  0  2  0  0  0
   53.9992  101.5839   34.6996 C   0  0  0  0  0  0
   51.6573  102.5366   34.8437 C   0  0  0  0  0  0
   51.3670  103.6945   35.5740 C   0  0  0  0  0  0
   50.1912  103.7772   36.3170 C   0  0  0  0  0  0
   49.3067  102.7013   36.3330 C   0  0  0  0  0  0
   49.5842  101.5432   35.6082 C   0  0  0  0  0  0
   50.7563  101.4639   34.8606 C   0  0  0  0  0  0
   51.2439   96.5786   30.1786 H   0  0  0  0  0  0
   52.4183   97.7364   30.7999 H   0  0  0  0  0  0
   50.6851   97.9235   31.1678 H   0  0  0  0  0  0
   51.9377   99.9373   31.2910 H   0  0  0  0  0  0
   51.2722  103.6671   29.2839 H   0  0  0  0  0  0
   50.5974  102.4869   27.2899 H   0  0  0  0  0  0
   50.9343   97.6945   26.9803 H   0  0  0  0  0  0
   49.2439   99.6553   23.8830 H   0  0  0  0  0  0
   49.6170  101.5073   25.5108 H   0  0  0  0  0  0
   53.2125  101.1546   32.3601 H   0  0  0  0  0  0
   53.3735  103.4633   33.9293 H   0  0  0  0  0  0
   54.2509  101.9747   35.6854 H   0  0  0  0  0  0
   53.6518  100.5580   34.8299 H   0  0  0  0  0  0
   54.9257  101.5457   34.1204 H   0  0  0  0  0  0
   52.0512  104.5323   35.5656 H   0  0  0  0  0  0
   49.9695  104.6704   36.8807 H   0  0  0  0  0  0
   48.3970  102.7622   36.9107 H   0  0  0  0  0  0
   48.8932  100.7122   35.6259 H   0  0  0  0  0  0
   50.9672  100.5684   34.2956 H   0  0  0  0  0  0
  1  2  1  0  0  0
  1 25  1  0  0  0
  1 26  1  0  0  0
  1 27  1  0  0  0
  2  3  1  0  0  0
  3  4  2  0  0  0
  3  8  1  0  0  0
  4  5  1  0  0  0
  4 28  1  0  0  0
  5  6  2  0  0  0
  5 14  1  0  0  0
  6  7  1  0  0  0
  6 29  1  0  0  0
  7  8  2  0  0  0
  7 30  1  0  0  0
  8  9  1  0  0  0
  9 10  1  0  0  0
  9 13  2  0  0  0
 10 11  2  0  0  0
 10 31  1  0  0  0
 11 12  1  0  0  0
 12 13  1  0  0  0
 12 32  1  0  0  0
 13 33  1  0  0  0
 14 15  2  0  0  0
 14 16  1  0  0  0
 16 17  1  0  0  0
 16 34  1  0  0  0
 17 18  1  0  0  0
 17 19  1  0  0  0
 17 35  1  0  0  0
 18 36  1  0  0  0
 18 37  1  0  0  0
 18 38  1  0  0  0
 19 20  2  0  0  0
 19 24  1  0  0  0
 20 21  1  0  0  0
 20 39  1  0  0  0
 21 22  2  0  0  0
 21 40  1  0  0  0
 22 23  1  0  0  0
 22 41  1  0  0  0
 23 24  2  0  0  0
 23 42  1  0  0  0
 24 43  1  0  0  0
M  END
> <s_m_entry_id>
27967

> <s_m_entry_name>
dock_pv.128

> <s_m_Source_Path>
/home/csk/Desktop/cluster/DUD-E-result/rock1

> <s_m_Source_File>
dock_pv.maegz

> <i_m_Source_File_Index>
128

> <chembl_id>
CHEMBL3891623

> <chembl_pref_name>
None

> <i_lp_mmshare_version>
53161

> <r_lp_tautomer_probability>
0.5

> <s_lp_Force_Field>
OPLS_2005

> <r_lp_Energy>
21.047879

> <b_lp_Chiralities_Consistent>
1

> <s_lp_Variant>
CHEMBL3231_lig595-1

> <s_i_glide_gridfile>
glide-grid_2etr

> <i_i_glide_lignum>
880

> <i_i_glide_rotatable_bonds>
6

> <r_i_docking_score>
-8.2910314182011

> <r_i_glide_ligand_efficiency>
-0.345459642425046

> <r_i_glide_ligand_efficiency_sa>
-0.996478040636526

> <r_i_glide_ligand_efficiency_ln>
-1.98442426901681

> <r_i_glide_gscore>
-8.2910314182011

> <r_i_glide_lipo>
-2.79990573151642

> <r_i_glide_hbond>
-0.673943117436538

> <r_i_glide_metal>
0

> <r_i_glide_rewards>
-2.21293376786105

> <r_i_glide_evdw>
-39.6202774047852

> <r_i_glide_ecoul>
-7.18167400360107

> <r_i_glide_erotb>
0.506579815712268

> <r_i_glide_esite>
-0.0525636463199403

> <r_i_glide_emodel>
-69.5121035388176

> <r_i_glide_energy>
-46.8019514083862

> <r_i_glide_einternal>
2.55696964263916

> <i_i_glide_confnum>
12

> <i_i_glide_posenum>
62

> <r_i_glide_eff_state_penalty>
0

> <s_user_duplicate_titles>
CHEMBL3231_lig595,CHEMBL3231_lig647

> <i_f3d_flags>
0

> <s_m_subgroup_title>
dock_pv

> <s_m_subgroupid>
dock_pv

> <b_m_subgroup_collapsed>
1

$$$$
CHEMBL3231_lig594
                    3D
 Schrodinger Suite 2021-1.
 39 41  0  0  1  0            999 V2000
   51.4246   97.6425   30.4013 C   0  0  0  0  0  0
   51.2432   98.4007   29.2083 O   0  0  0  0  0  0
   51.3590   99.7817   29.2322 C   0  0  0  0  0  0
   51.7443  100.4889   30.3860 C   0  0  0  0  0  0
   51.7811  101.8920   30.4111 C   0  0  0  0  0  0
   51.4699  102.5860   29.2393 C   0  0  0  0  0  0
   51.0960  101.9017   28.0896 C   0  0  0  0  0  0
   51.0263  100.5048   28.0685 C   0  0  0  0  0  0
   50.5438   99.8647   26.7969 C   0  0  0  0  0  0
   50.5878   98.5179   26.3848 C   0  0  0  0  0  0
   50.0431   98.3027   25.2111 N   0  0  0  0  0  0
   49.6433   99.5071   24.8108 N   0  0  0  0  0  0
   49.9224  100.4859   25.7177 C   0  0  0  0  0  0
   52.0510  102.6595   31.6854 C   0  0  0  0  0  0
   51.6431  103.8155   31.8125 O   0  0  0  0  0  0
   52.7012  102.0074   32.6662 N   0  0  0  0  0  0
   52.8368  102.4942   34.0406 C   0  0  0  0  0  0
   51.5204  102.5456   34.8160 C   0  0  0  0  0  0
   50.6940  101.4181   34.9050 C   0  0  0  0  0  0
   49.4898  101.4975   35.6075 C   0  0  0  0  0  0
   49.1476  102.7083   36.2101 C   0  0  0  0  0  0
   49.9316  103.8151   36.1407 N   0  0  0  0  0  0
   51.0976  103.7217   35.4481 C   0  0  0  0  0  0
   51.2421   96.5889   30.1888 H   0  0  0  0  0  0
   52.4426   97.7274   30.7837 H   0  0  0  0  0  0
   50.7202   97.9427   31.1783 H   0  0  0  0  0  0
   51.9698   99.9424   31.2877 H   0  0  0  0  0  0
   51.4932  103.6668   29.2139 H   0  0  0  0  0  0
   50.8434  102.4806   27.2150 H   0  0  0  0  0  0
   51.0096   97.6945   26.9440 H   0  0  0  0  0  0
   49.1937   99.6586   23.9110 H   0  0  0  0  0  0
   49.6448  101.5112   25.5198 H   0  0  0  0  0  0
   53.1473  101.1297   32.4450 H   0  0  0  0  0  0
   53.3232  103.4718   34.0373 H   0  0  0  0  0  0
   53.5156  101.8277   34.5748 H   0  0  0  0  0  0
   50.9779  100.4914   34.4279 H   0  0  0  0  0  0
   48.8408  100.6376   35.6855 H   0  0  0  0  0  0
   48.2265  102.8046   36.7674 H   0  0  0  0  0  0
   51.6965  104.6203   35.4038 H   0  0  0  0  0  0
  1  2  1  0  0  0
  1 24  1  0  0  0
  1 25  1  0  0  0
  1 26  1  0  0  0
  2  3  1  0  0  0
  3  4  2  0  0  0
  3  8  1  0  0  0
  4  5  1  0  0  0
  4 27  1  0  0  0
  5  6  2  0  0  0
  5 14  1  0  0  0
  6  7  1  0  0  0
  6 28  1  0  0  0
  7  8  2  0  0  0
  7 29  1  0  0  0
  8  9  1  0  0  0
  9 10  1  0  0  0
  9 13  2  0  0  0
 10 11  2  0  0  0
 10 30  1  0  0  0
 11 12  1  0  0  0
 12 13  1  0  0  0
 12 31  1  0  0  0
 13 32  1  0  0  0
 14 15  2  0  0  0
 14 16  1  0  0  0
 16 17  1  0  0  0
 16 33  1  0  0  0
 17 18  1  0  0  0
 17 34  1  0  0  0
 17 35  1  0  0  0
 18 19  2  0  0  0
 18 23  1  0  0  0
 19 20  1  0  0  0
 19 36  1  0  0  0
 20 21  2  0  0  0
 20 37  1  0  0  0
 21 22  1  0  0  0
 21 38  1  0  0  0
 22 23  2  0  0  0
 23 39  1  0  0  0
M  END
> <s_m_entry_id>
27969

> <s_m_entry_name>
dock_pv.130

> <s_m_Source_Path>
/home/csk/Desktop/cluster/DUD-E-result/rock1

> <s_m_Source_File>
dock_pv.maegz

> <i_m_Source_File_Index>
130

> <chembl_id>
CHEMBL3928583

> <chembl_pref_name>
None

> <i_lp_mmshare_version>
53161

> <r_lp_tautomer_probability>
0.5

> <s_lp_Force_Field>
OPLS_2005

> <r_lp_Energy>
19.180125

> <b_lp_Chiralities_Consistent>
1

> <s_lp_Variant>
CHEMBL3231_lig594-1

> <s_i_glide_gridfile>
glide-grid_2etr

> <i_i_glide_lignum>
879

> <i_i_glide_rotatable_bonds>
6

> <r_i_docking_score>
-8.28957759402867

> <r_i_glide_ligand_efficiency>
-0.360416417131681

> <r_i_glide_ligand_efficiency_sa>
-1.02497634660593

> <r_i_glide_ligand_efficiency_ln>
-2.00449502797

> <r_i_glide_gscore>
-8.28957759402867

> <r_i_glide_lipo>
-2.72123087457449

> <r_i_glide_hbond>
-0.676305738386441

> <r_i_glide_metal>
0

> <r_i_glide_rewards>
-2.26410477953699

> <r_i_glide_evdw>
-39.7339363098145

> <r_i_glide_ecoul>
-7.55828952789307

> <r_i_glide_erotb>
0.544861122416982

> <r_i_glide_esite>
-0.0523570792730504

> <r_i_glide_emodel>
-69.5412020434885

> <r_i_glide_energy>
-47.2922258377075

> <r_i_glide_einternal>
3.11231255531311

> <i_i_glide_confnum>
4

> <i_i_glide_posenum>
313

> <r_i_glide_eff_state_penalty>
0

> <s_user_duplicate_titles>
CHEMBL3231_lig594

> <i_f3d_flags>
0

> <s_m_subgroup_title>
dock_pv

> <s_m_subgroupid>
dock_pv

> <b_m_subgroup_collapsed>
1

$$$$
CHEMBL3231_lig1118
                    3D
 Schrodinger Suite 2021-1.
 60 64  0  0  1  0            999 V2000
   50.3833  101.0408   35.2142 Cl  0  0  0  0  0  0
   51.5304  104.3037   33.6748 O   0  0  0  0  0  0
   50.0430   97.9032   24.8962 O   0  0  0  0  0  0
   54.0078   98.8644   31.8620 O   0  0  0  0  0  0
   51.9757  103.4963   30.8607 N   0  0  0  0  0  0
   52.7785  101.4296   31.0435 N   0  0  0  0  0  0
   50.6001   99.8265   26.9428 N   0  0  0  0  0  0
   53.4469  104.4126   34.7987 N   0  0  0  0  0  0
   55.2430  101.5213   32.4155 N   0  0  0  0  0  0
   51.5401  102.7369   29.8035 C   0  0  0  0  0  0
   52.7215  102.6873   31.5876 C   0  0  0  0  0  0
   52.0426  101.4204   29.8989 C   0  0  0  0  0  0
   53.4089  103.0337   32.8426 C   0  0  0  0  0  0
   50.7113  103.0836   28.7237 C   0  0  0  0  0  0
   50.9461  100.7746   27.8951 C   0  0  0  0  0  0
   51.7687  100.4270   28.9708 C   0  0  0  0  0  0
   54.5966  102.4472   33.2081 C   0  0  0  0  0  0
   52.7174  103.9806   33.7390 C   0  0  0  0  0  0
   50.4430  102.0804   27.7838 C   0  0  0  0  0  0
   55.2200  102.8590   34.4614 C   0  0  0  0  0  0
   50.1091  104.4659   28.5318 C   0  0  0  0  0  0
   54.6309  103.8416   35.1636 C   0  0  0  0  0  0
   50.8018   98.3827   27.1640 C   0  0  0  0  0  0
   50.8293  100.1162   25.5208 C   0  0  0  0  0  0
   55.7970  100.2178   32.8025 C   0  0  0  0  0  0
   54.7561   99.0981   33.0452 C   0  0  1  0  0  0
   53.9125   99.3819   34.2896 C   0  0  0  0  0  0
   49.8851   97.5391   26.2601 C   0  0  0  0  0  0
   49.8650   99.2924   24.6597 C   0  0  0  0  0  0
   52.6194   99.9145   34.2003 C   0  0  0  0  0  0
   54.4824   99.1895   35.5540 C   0  0  0  0  0  0
   51.9349  100.3024   35.3502 C   0  0  0  0  0  0
   53.7858   99.5503   36.7062 C   0  0  0  0  0  0
   52.5189  100.1205   36.6031 C   0  0  0  0  0  0
   54.6317   98.6289   31.1682 H   0  0  0  0  0  0
   53.3212  100.6798   31.4624 H   0  0  0  0  0  0
   52.9455  105.0468   35.4002 H   0  0  0  0  0  0
   55.4915  101.7862   31.4649 H   0  0  0  0  0  0
   52.1823   99.4376   29.0881 H   0  0  0  0  0  0
   49.8016  102.3190   26.9484 H   0  0  0  0  0  0
   56.1288  102.3904   34.8101 H   0  0  0  0  0  0
   49.7764  104.6315   27.5077 H   0  0  0  0  0  0
   49.2645  104.6116   29.2020 H   0  0  0  0  0  0
   50.8431  105.2357   28.7574 H   0  0  0  0  0  0
   54.9853  104.1977   36.1211 H   0  0  0  0  0  0
   51.8503   98.1168   27.0197 H   0  0  0  0  0  0
   50.5499   98.1362   28.1964 H   0  0  0  0  0  0
   50.6600  101.1694   25.2993 H   0  0  0  0  0  0
   51.8670   99.9073   25.2556 H   0  0  0  0  0  0
   56.4197  100.3105   33.6934 H   0  0  0  0  0  0
   56.4782   99.9037   32.0108 H   0  0  0  0  0  0
   55.2922   98.1663   33.2344 H   0  0  0  0  0  0
   48.8434   97.6413   26.5613 H   0  0  0  0  0  0
   50.1396   96.4852   26.3679 H   0  0  0  0  0  0
   48.8432   99.5956   24.8578 H   0  0  0  0  0  0
   50.0447   99.4948   23.6112 H   0  0  0  0  0  0
   52.1598  100.0753   33.2378 H   0  0  0  0  0  0
   55.4799   98.7831   35.6448 H   0  0  0  0  0  0
   54.2363   99.4072   37.6777 H   0  0  0  0  0  0
   51.9979  100.4166   37.5005 H   0  0  0  0  0  0
  1 32  1  0  0  0
  2 18  2  0  0  0
  3 28  1  0  0  0
  3 29  1  0  0  0
  4 26  1  0  0  0
  4 35  1  0  0  0
  5 10  1  0  0  0
  5 11  2  0  0  0
  6 11  1  0  0  0
  6 12  1  0  0  0
  6 36  1  0  0  0
  7 15  1  0  0  0
  7 23  1  0  0  0
  7 24  1  0  0  0
  8 18  1  0  0  0
  8 22  1  0  0  0
  8 37  1  0  0  0
  9 17  1  0  0  0
  9 25  1  0  0  0
  9 38  1  0  0  0
 10 12  2  0  0  0
 10 14  1  0  0  0
 11 13  1  0  0  0
 12 16  1  0  0  0
 13 17  2  0  0  0
 13 18  1  0  0  0
 14 19  2  0  0  0
 14 21  1  0  0  0
 15 16  2  0  0  0
 15 19  1  0  0  0
 16 39  1  0  0  0
 17 20  1  0  0  0
 19 40  1  0  0  0
 20 22  2  0  0  0
 20 41  1  0  0  0
 21 42  1  0  0  0
 21 43  1  0  0  0
 21 44  1  0  0  0
 22 45  1  0  0  0
 23 28  1  0  0  0
 23 46  1  0  0  0
 23 47  1  0  0  0
 24 29  1  0  0  0
 24 48  1  0  0  0
 24 49  1  0  0  0
 25 26  1  0  0  0
 25 50  1  0  0  0
 25 51  1  0  0  0
 26 27  1  0  0  0
 26 52  1  0  0  0
 27 30  1  0  0  0
 27 31  2  0  0  0
 28 53  1  0  0  0
 28 54  1  0  0  0
 29 55  1  0  0  0
 29 56  1  0  0  0
 30 32  2  0  0  0
 30 57  1  0  0  0
 31 33  1  0  0  0
 31 58  1  0  0  0
 32 34  1  0  0  0
 33 34  2  0  0  0
 33 59  1  0  0  0
 34 60  1  0  0  0
M  END
> <s_m_entry_id>
27970

> <s_m_entry_name>
dock_pv.131

> <s_m_Source_Path>
/home/csk/Desktop/cluster/DUD-E-result/rock1

> <s_m_Source_File>
dock_pv.maegz

> <i_m_Source_File_Index>
131

> <chembl_id>
CHEMBL2005886

> <chembl_pref_name>
None

> <i_lp_mmshare_version>
53161

> <r_lp_tautomer_probability>
0.999206294981429

> <s_lp_Force_Field>
OPLS_2005

> <r_lp_Energy>
51.171792

> <b_lp_Chiralities_Consistent>
1

> <s_lp_Variant>
CHEMBL3231_lig1118-2

> <s_i_glide_gridfile>
glide-grid_2etr

> <i_i_glide_lignum>
1545

> <i_i_glide_rotatable_bonds>
7

> <r_i_docking_score>
-8.28784847453771

> <r_i_glide_ligand_efficiency>
-0.243760249251109

> <r_i_glide_ligand_efficiency_sa>
-0.789688579227992

> <r_i_glide_ligand_efficiency_ln>
-1.83101819430093

> <r_i_glide_gscore>
-8.28784847453771

> <r_i_glide_lipo>
-2.54283479212509

> <r_i_glide_hbond>
-0.587898362863155

> <r_i_glide_metal>
0

> <r_i_glide_rewards>
-1.25331434848485

> <r_i_glide_evdw>
-45.4251251220703

> <r_i_glide_ecoul>
-13.1628322601318

> <r_i_glide_erotb>
0.44008417089498

> <r_i_glide_esite>
-0.0982040468363079

> <r_i_glide_emodel>
-86.5828159022726

> <r_i_glide_energy>
-58.5879573822021

> <r_i_glide_einternal>
4.45542240142822

> <i_i_glide_confnum>
31

> <i_i_glide_posenum>
396

> <r_i_glide_eff_state_penalty>
0

> <s_user_duplicate_titles>
CHEMBL3231_lig1118

> <i_f3d_flags>
0

> <s_m_subgroup_title>
dock_pv

> <s_m_subgroupid>
dock_pv

> <b_m_subgroup_collapsed>
1

$$$$
CHEMBL3231_lig532
                    3D
 Schrodinger Suite 2021-1.
 69 73  0  0  1  0            999 V2000
   53.5918  104.5492   33.5232 C   0  0  0  0  0  0
   52.2982  104.1740   33.7048 N   0  0  0  0  0  0
   51.7236  102.9776   33.0356 C   0  0  1  0  0  0
   52.2608  102.9417   31.5862 C   0  0  0  0  0  0
   53.4184  103.5753   31.3101 C   0  0  0  0  0  0
   54.0430  104.3029   32.2690 N   0  0  0  0  0  0
   54.3066  104.9603   34.4314 O   0  0  0  0  0  0
   54.0429  103.7091   29.9238 C   0  0  0  0  0  0
   51.5205  102.2151   30.5754 C   0  0  0  0  0  0
   50.4424  102.7035   30.2318 O   0  0  0  0  0  0
   52.0708  101.0768   30.0214 N   0  0  0  0  0  0
   51.4817  100.4014   28.9108 C   0  0  0  0  0  0
   53.2934  100.4491   30.5643 C   0  0  0  0  0  0
   51.5207   98.9981   28.8304 C   0  0  0  0  0  0
   51.0623   98.3028   27.7078 C   0  0  0  0  0  0
   50.9315  101.1282   27.8457 C   0  0  0  0  0  0
   50.4378  100.4501   26.7297 C   0  0  0  0  0  0
   50.5266   99.0321   26.6374 C   0  0  0  0  0  0
   50.0448   98.5603   25.4423 N   0  0  0  0  0  0
   49.6430   99.6811   24.8138 N   0  0  0  0  0  0
   49.7910  100.8334   25.5430 C   0  0  0  0  0  0
   51.9534  101.7359   33.8918 C   0  0  0  0  0  0
   53.1110  100.9538   33.7783 C   0  0  0  0  0  0
   53.2765   99.7987   34.5565 C   0  0  0  0  0  0
   52.3103   99.4956   35.5243 C   0  0  0  0  0  0
   51.1836  100.3023   35.6638 C   0  0  0  0  0  0
   50.9866  101.3959   34.8351 C   0  0  0  0  0  0
   52.4436   98.4163   36.3352 F   0  0  0  0  0  0
   54.4629   98.8948   34.3594 C   0  0  0  0  0  0
   54.2991   97.6803   34.2403 O   0  0  0  0  0  0
   55.6672   99.4928   34.3321 N   0  0  0  0  0  0
   56.9453   98.7840   34.1914 C   0  0  0  0  0  0
   57.2956   97.7872   35.3174 C   0  0  0  0  0  0
   57.6149   96.4430   35.0181 C   0  0  0  0  0  0
   57.9113   95.5476   36.0485 C   0  0  0  0  0  0
   57.9041   95.9634   37.3747 C   0  0  0  0  0  0
   57.6078   97.2870   37.6810 C   0  0  0  0  0  0
   57.3060   98.2024   36.6687 C   0  0  0  0  0  0
   57.6404   95.9029   33.5938 C   0  0  0  0  0  0
   57.0333   99.6433   37.0807 C   0  0  0  0  0  0
   51.9499  104.3900   34.6264 H   0  0  0  0  0  0
   50.6388  103.1042   33.0051 H   0  0  0  0  0  0
   54.8992  104.7917   32.0316 H   0  0  0  0  0  0
   53.3300  103.5292   29.1225 H   0  0  0  0  0  0
   54.4429  104.7028   29.7483 H   0  0  0  0  0  0
   54.8431  102.9848   29.8121 H   0  0  0  0  0  0
   53.8043   99.8583   29.8029 H   0  0  0  0  0  0
   54.0338  101.1594   30.9202 H   0  0  0  0  0  0
   53.0376   99.7791   31.3862 H   0  0  0  0  0  0
   51.9341   98.4184   29.6416 H   0  0  0  0  0  0
   51.1258   97.2247   27.6672 H   0  0  0  0  0  0
   50.9001  102.2082   27.8609 H   0  0  0  0  0  0
   49.2242   99.6546   23.8899 H   0  0  0  0  0  0
   49.4395  101.7912   25.2051 H   0  0  0  0  0  0
   53.8743  101.2322   33.0676 H   0  0  0  0  0  0
   50.4437  100.0672   36.4095 H   0  0  0  0  0  0
   50.0936  101.9921   34.9556 H   0  0  0  0  0  0
   55.7212  100.4865   34.4911 H   0  0  0  0  0  0
   57.7607   99.5035   34.1229 H   0  0  0  0  0  0
   56.9380   98.3144   33.2115 H   0  0  0  0  0  0
   58.1413   94.5145   35.8261 H   0  0  0  0  0  0
   58.1357   95.2605   38.1606 H   0  0  0  0  0  0
   57.6132   97.5982   38.7149 H   0  0  0  0  0  0
   58.4417   96.3729   33.0231 H   0  0  0  0  0  0
   57.7900   94.8228   33.5612 H   0  0  0  0  0  0
   56.6958   96.1074   33.0894 H   0  0  0  0  0  0
   57.5398  100.3361   36.4108 H   0  0  0  0  0  0
   57.4098   99.8578   38.0832 H   0  0  0  0  0  0
   55.9637   99.8556   37.0566 H   0  0  0  0  0  0
  1  2  1  0  0  0
  1  6  1  0  0  0
  1  7  2  0  0  0
  2  3  1  0  0  0
  2 41  1  0  0  0
  3  4  1  0  0  0
  3 22  1  0  0  0
  3 42  1  0  0  0
  4  5  2  0  0  0
  4  9  1  0  0  0
  5  6  1  0  0  0
  5  8  1  0  0  0
  6 43  1  0  0  0
  8 44  1  0  0  0
  8 45  1  0  0  0
  8 46  1  0  0  0
  9 10  2  0  0  0
  9 11  1  0  0  0
 11 13  1  0  0  0
 11 12  1  0  0  0
 12 14  1  0  0  0
 12 16  2  0  0  0
 13 47  1  0  0  0
 13 48  1  0  0  0
 13 49  1  0  0  0
 14 15  2  0  0  0
 14 50  1  0  0  0
 15 18  1  0  0  0
 15 51  1  0  0  0
 16 52  1  0  0  0
 16 17  1  0  0  0
 17 18  1  0  0  0
 17 21  2  0  0  0
 18 19  2  0  0  0
 19 20  1  0  0  0
 20 53  1  0  0  0
 20 21  1  0  0  0
 21 54  1  0  0  0
 22 23  2  0  0  0
 22 27  1  0  0  0
 23 24  1  0  0  0
 23 55  1  0  0  0
 24 25  2  0  0  0
 24 29  1  0  0  0
 25 26  1  0  0  0
 25 28  1  0  0  0
 26 27  2  0  0  0
 26 56  1  0  0  0
 27 57  1  0  0  0
 29 30  2  0  0  0
 29 31  1  0  0  0
 31 32  1  0  0  0
 31 58  1  0  0  0
 32 33  1  0  0  0
 32 59  1  0  0  0
 32 60  1  0  0  0
 33 34  2  0  0  0
 33 38  1  0  0  0
 34 35  1  0  0  0
 34 39  1  0  0  0
 35 36  2  0  0  0
 35 61  1  0  0  0
 36 37  1  0  0  0
 36 62  1  0  0  0
 37 38  2  0  0  0
 37 63  1  0  0  0
 38 40  1  0  0  0
 39 64  1  0  0  0
 39 65  1  0  0  0
 39 66  1  0  0  0
 40 67  1  0  0  0
 40 68  1  0  0  0
 40 69  1  0  0  0
M  END
> <s_m_entry_id>
27971

> <s_m_entry_name>
dock_pv.132

> <s_m_Source_Path>
/home/csk/Desktop/cluster/DUD-E-result/rock1

> <s_m_Source_File>
dock_pv.maegz

> <i_m_Source_File_Index>
132

> <chembl_id>
CHEMBL3809584

> <chembl_pref_name>
None

> <i_lp_mmshare_version>
53161

> <r_lp_tautomer_probability>
0.019607843137214

> <s_lp_Force_Field>
OPLS_2005

> <r_lp_Energy>
81.57951

> <b_lp_Chiralities_Consistent>
1

> <s_lp_Variant>
CHEMBL3231_lig532-4

> <s_i_glide_gridfile>
glide-grid_2etr

> <i_i_glide_lignum>
808

> <i_i_glide_rotatable_bonds>
8

> <r_i_docking_score>
-8.28584814251215

> <r_i_glide_ligand_efficiency>
-0.207146203562804

> <r_i_glide_ligand_efficiency_sa>
-0.708430050204474

> <r_i_glide_ligand_efficiency_ln>
-1.76712756717222

> <r_i_glide_gscore>
-8.28584814251215

> <r_i_glide_lipo>
-2.30995325218394

> <r_i_glide_hbond>
-0.610853264009079

> <r_i_glide_metal>
0

> <r_i_glide_rewards>
-1.16825479318806

> <r_i_glide_evdw>
-49.9043922424316

> <r_i_glide_ecoul>
-13.3295888900757

> <r_i_glide_erotb>
0.565992632712195

> <r_i_glide_esite>
-0.268121520210334

> <r_i_glide_emodel>
-90.4635396052103

> <r_i_glide_energy>
-63.2339811325073

> <r_i_glide_einternal>
4.83714056015015

> <i_i_glide_confnum>
13

> <i_i_glide_posenum>
269

> <r_i_glide_eff_state_penalty>
0

> <s_user_duplicate_titles>
CHEMBL3231_lig532

> <i_f3d_flags>
0

> <s_m_subgroup_title>
dock_pv

> <s_m_subgroupid>
dock_pv

> <b_m_subgroup_collapsed>
1

$$$$
CHEMBL3231_lig697
                    3D
 Schrodinger Suite 2021-1.
 44 46  0  0  1  0            999 V2000
   51.4628   97.6664   30.4090 C   0  0  0  0  0  0
   51.2430   98.4191   29.2158 O   0  0  0  0  0  0
   51.3238   99.8020   29.2427 C   0  0  0  0  0  0
   51.7765  100.5120   30.3710 C   0  0  0  0  0  0
   51.7658  101.9148   30.4049 C   0  0  0  0  0  0
   51.2993  102.6082   29.2865 C   0  0  0  0  0  0
   50.8757  101.9209   28.1559 C   0  0  0  0  0  0
   50.9019  100.5207   28.1046 C   0  0  0  0  0  0
   50.4566   99.8716   26.8214 C   0  0  0  0  0  0
   50.5327   98.5229   26.4114 C   0  0  0  0  0  0
   50.0429   98.3021   25.2136 N   0  0  0  0  0  0
   49.6449   99.5046   24.8019 N   0  0  0  0  0  0
   49.8767  100.4884   25.7187 C   0  0  0  0  0  0
   52.1983  102.6830   31.6289 C   0  0  0  0  0  0
   51.6432  103.7432   31.9243 O   0  0  0  0  0  0
   53.2056  102.1524   32.3444 N   0  0  0  0  0  0
   53.7742  102.7395   33.5661 C   0  0  0  0  0  0
   53.3613  102.0186   34.8788 C   0  0  2  0  0  0
   53.8388  100.6782   34.8362 O   0  0  0  0  0  0
   51.8557  102.1168   35.1855 C   0  0  0  0  0  0
   51.0031  101.0355   34.9103 C   0  0  0  0  0  0
   49.6430  101.1029   35.2114 C   0  0  0  0  0  0
   49.1084  102.2571   35.7781 C   0  0  0  0  0  0
   49.9369  103.3435   36.0447 C   0  0  0  0  0  0
   51.3025  103.2803   35.7550 C   0  0  0  0  0  0
   52.2744  104.6654   36.1256 Cl  0  0  0  0  0  0
   51.2467   96.6163   30.2121 H   0  0  0  0  0  0
   52.4971   97.7386   30.7476 H   0  0  0  0  0  0
   50.7974   97.9843   31.2125 H   0  0  0  0  0  0
   52.1078   99.9745   31.2457 H   0  0  0  0  0  0
   51.2758  103.6889   29.2790 H   0  0  0  0  0  0
   50.5419  102.5021   27.3092 H   0  0  0  0  0  0
   50.9457   97.7053   26.9809 H   0  0  0  0  0  0
   49.2269   99.6513   23.8864 H   0  0  0  0  0  0
   49.6049  101.5086   25.5024 H   0  0  0  0  0  0
   53.6679  101.3340   31.9764 H   0  0  0  0  0  0
   53.5447  103.8036   33.6450 H   0  0  0  0  0  0
   54.8586  102.7020   33.4596 H   0  0  0  0  0  0
   53.8933  102.4781   35.7134 H   0  0  0  0  0  0
   54.7637  100.6816   34.5787 H   0  0  0  0  0  0
   51.3949  100.1329   34.4643 H   0  0  0  0  0  0
   49.0018  100.2587   35.0014 H   0  0  0  0  0  0
   48.0541  102.3036   36.0113 H   0  0  0  0  0  0
   49.5204  104.2385   36.4824 H   0  0  0  0  0  0
  1  2  1  0  0  0
  1 27  1  0  0  0
  1 28  1  0  0  0
  1 29  1  0  0  0
  2  3  1  0  0  0
  3  4  2  0  0  0
  3  8  1  0  0  0
  4  5  1  0  0  0
  4 30  1  0  0  0
  5  6  2  0  0  0
  5 14  1  0  0  0
  6  7  1  0  0  0
  6 31  1  0  0  0
  7  8  2  0  0  0
  7 32  1  0  0  0
  8  9  1  0  0  0
  9 10  1  0  0  0
  9 13  2  0  0  0
 10 11  2  0  0  0
 10 33  1  0  0  0
 11 12  1  0  0  0
 12 13  1  0  0  0
 12 34  1  0  0  0
 13 35  1  0  0  0
 14 15  2  0  0  0
 14 16  1  0  0  0
 16 17  1  0  0  0
 16 36  1  0  0  0
 17 18  1  0  0  0
 17 37  1  0  0  0
 17 38  1  0  0  0
 18 19  1  0  0  0
 18 20  1  0  0  0
 18 39  1  0  0  0
 19 40  1  0  0  0
 20 21  2  0  0  0
 20 25  1  0  0  0
 21 22  1  0  0  0
 21 41  1  0  0  0
 22 23  2  0  0  0
 22 42  1  0  0  0
 23 24  1  0  0  0
 23 43  1  0  0  0
 24 25  2  0  0  0
 24 44  1  0  0  0
 25 26  1  0  0  0
M  END
> <s_m_entry_id>
27972

> <s_m_entry_name>
dock_pv.133

> <s_m_Source_Path>
/home/csk/Desktop/cluster/DUD-E-result/rock1

> <s_m_Source_File>
dock_pv.maegz

> <i_m_Source_File_Index>
133

> <chembl_id>
CHEMBL3937215

> <chembl_pref_name>
None

> <i_lp_mmshare_version>
53161

> <r_lp_tautomer_probability>
0.5

> <s_lp_Force_Field>
OPLS_2005

> <r_lp_Energy>
26.121369

> <b_lp_Chiralities_Consistent>
1

> <s_lp_Variant>
CHEMBL3231_lig697-1

> <s_i_glide_gridfile>
glide-grid_2etr

> <i_i_glide_lignum>
992

> <i_i_glide_rotatable_bonds>
8

> <r_i_docking_score>
-8.28298397137225

> <r_i_glide_ligand_efficiency>
-0.31857630659124

> <r_i_glide_ligand_efficiency_sa>
-0.943781054739314

> <r_i_glide_ligand_efficiency_ln>
-1.94523160698957

> <r_i_glide_gscore>
-8.28298397137225

> <r_i_glide_lipo>
-2.94371311671844

> <r_i_glide_hbond>
-0.671968044465242

> <r_i_glide_metal>
0

> <r_i_glide_rewards>
-1.86933064972794

> <r_i_glide_evdw>
-42.4279747009277

> <r_i_glide_ecoul>
-7.39421033859253

> <r_i_glide_erotb>
0.4887996001085

> <r_i_glide_esite>
-0.0562414747338616

> <r_i_glide_emodel>
-74.680163932002

> <r_i_glide_energy>
-49.8221850395203

> <r_i_glide_einternal>
2.97978663444519

> <i_i_glide_confnum>
21

> <i_i_glide_posenum>
390

> <r_i_glide_eff_state_penalty>
0

> <s_user_duplicate_titles>
CHEMBL3231_lig697

> <i_f3d_flags>
0

> <s_m_subgroup_title>
dock_pv

> <s_m_subgroupid>
dock_pv

> <b_m_subgroup_collapsed>
1

$$$$
CHEMBL3231_lig612
                    3D
 Schrodinger Suite 2021-1.
 55 57  0  0  1  0            999 V2000
   51.4449   97.7020   30.4325 C   0  0  0  0  0  0
   51.2441   98.3929   29.2020 O   0  0  0  0  0  0
   51.3301   99.7748   29.1603 C   0  0  0  0  0  0
   51.7517  100.5411   30.2603 C   0  0  0  0  0  0
   51.7689  101.9443   30.2108 C   0  0  0  0  0  0
   51.3703  102.5802   29.0357 C   0  0  0  0  0  0
   50.9629  101.8396   27.9393 C   0  0  0  0  0  0
   50.9441  100.4400   27.9785 C   0  0  0  0  0  0
   50.4834   99.7419   26.7379 C   0  0  0  0  0  0
   50.5500   98.3780   26.3906 C   0  0  0  0  0  0
   50.0447   98.1129   25.2111 N   0  0  0  0  0  0
   49.6431   99.2985   24.7540 N   0  0  0  0  0  0
   49.8787  100.3151   25.6249 C   0  0  0  0  0  0
   52.1192  102.7766   31.4126 C   0  0  0  0  0  0
   51.6454  103.9030   31.5286 O   0  0  0  0  0  0
   52.9134  102.2123   32.3363 N   0  0  0  0  0  0
   53.2735  102.7810   33.6357 C   0  0  0  0  0  0
   52.1443  103.4687   34.4258 C   0  0  0  0  0  0
   52.1970  104.8665   34.5154 C   0  0  0  0  0  0
   51.2167  105.5863   35.1951 C   0  0  0  0  0  0
   50.1592  104.9153   35.7996 C   0  0  0  0  0  0
   48.9315  105.8012   36.6277 Cl  0  0  0  0  0  0
   50.0844  103.5273   35.7198 C   0  0  0  0  0  0
   51.0654  102.7876   35.0401 C   0  0  0  0  0  0
   50.8310  100.9962   34.9677 S   0  0  0  0  0  0
   51.0245  100.5682   33.5843 O   0  0  0  0  0  0
   49.5481  100.7031   35.6117 O   0  0  0  0  0  0
   52.2209  100.3063   36.0673 C   0  0  0  0  0  0
   52.5871   98.8445   35.7232 C   0  0  0  0  0  0
   53.3708   98.1892   36.8724 C   0  0  0  0  0  0
   53.3794   98.6952   34.4074 C   0  0  0  0  0  0
   51.2489   96.6407   30.2828 H   0  0  0  0  0  0
   52.4735   97.8043   30.7858 H   0  0  0  0  0  0
   50.7614   98.0485   31.2106 H   0  0  0  0  0  0
   52.0281  100.0472   31.1777 H   0  0  0  0  0  0
   51.3687  103.6587   28.9627 H   0  0  0  0  0  0
   50.6633  102.3757   27.0515 H   0  0  0  0  0  0
   50.9705   97.5855   26.9897 H   0  0  0  0  0  0
   49.2143   99.4161   23.8402 H   0  0  0  0  0  0
   49.5981  101.3253   25.3776 H   0  0  0  0  0  0
   53.3672  101.3461   32.0859 H   0  0  0  0  0  0
   54.1107  103.4665   33.4879 H   0  0  0  0  0  0
   53.6975  101.9760   34.2277 H   0  0  0  0  0  0
   52.9913  105.4157   34.0257 H   0  0  0  0  0  0
   51.2797  106.6643   35.2354 H   0  0  0  0  0  0
   49.2497  103.0292   36.1898 H   0  0  0  0  0  0
   51.8561  100.3937   37.0911 H   0  0  0  0  0  0
   53.0886  100.9547   35.9977 H   0  0  0  0  0  0
   51.6488   98.3028   35.6091 H   0  0  0  0  0  0
   54.3435   98.6655   37.0108 H   0  0  0  0  0  0
   53.5465   97.1310   36.6768 H   0  0  0  0  0  0
   52.8430   98.2521   37.8232 H   0  0  0  0  0  0
   54.2940   99.2908   34.4193 H   0  0  0  0  0  0
   53.6739   97.6575   34.2430 H   0  0  0  0  0  0
   52.8112   98.9884   33.5282 H   0  0  0  0  0  0
  1  2  1  0  0  0
  1 32  1  0  0  0
  1 33  1  0  0  0
  1 34  1  0  0  0
  2  3  1  0  0  0
  3  4  2  0  0  0
  3  8  1  0  0  0
  4  5  1  0  0  0
  4 35  1  0  0  0
  5  6  2  0  0  0
  5 14  1  0  0  0
  6  7  1  0  0  0
  6 36  1  0  0  0
  7  8  2  0  0  0
  7 37  1  0  0  0
  8  9  1  0  0  0
  9 10  1  0  0  0
  9 13  2  0  0  0
 10 11  2  0  0  0
 10 38  1  0  0  0
 11 12  1  0  0  0
 12 13  1  0  0  0
 12 39  1  0  0  0
 13 40  1  0  0  0
 14 15  2  0  0  0
 14 16  1  0  0  0
 16 17  1  0  0  0
 16 41  1  0  0  0
 17 18  1  0  0  0
 17 42  1  0  0  0
 17 43  1  0  0  0
 18 19  2  0  0  0
 18 24  1  0  0  0
 19 20  1  0  0  0
 19 44  1  0  0  0
 20 21  2  0  0  0
 20 45  1  0  0  0
 21 22  1  0  0  0
 21 23  1  0  0  0
 23 24  2  0  0  0
 23 46  1  0  0  0
 24 25  1  0  0  0
 25 26  2  0  0  0
 25 27  2  0  0  0
 25 28  1  0  0  0
 28 29  1  0  0  0
 28 47  1  0  0  0
 28 48  1  0  0  0
 29 30  1  0  0  0
 29 31  1  0  0  0
 29 49  1  0  0  0
 30 50  1  0  0  0
 30 51  1  0  0  0
 30 52  1  0  0  0
 31 53  1  0  0  0
 31 54  1  0  0  0
 31 55  1  0  0  0
M  END
> <s_m_entry_id>
27973

> <s_m_entry_name>
dock_pv.134

> <s_m_Source_Path>
/home/csk/Desktop/cluster/DUD-E-result/rock1

> <s_m_Source_File>
dock_pv.maegz

> <i_m_Source_File_Index>
134

> <chembl_id>
CHEMBL3926252

> <chembl_pref_name>
None

> <i_lp_mmshare_version>
53161

> <r_lp_tautomer_probability>
0.5

> <s_lp_Force_Field>
OPLS_2005

> <r_lp_Energy>
18.230021

> <b_lp_Chiralities_Consistent>
1

> <s_lp_Variant>
CHEMBL3231_lig612-1

> <s_i_glide_gridfile>
glide-grid_2etr

> <i_i_glide_lignum>
898

> <i_i_glide_rotatable_bonds>
9

> <r_i_docking_score>
-8.2763529488184

> <r_i_glide_ligand_efficiency>
-0.266979127381239

> <r_i_glide_ligand_efficiency_sa>
-0.838683064387751

> <r_i_glide_ligand_efficiency_ln>
-1.86657122971545

> <r_i_glide_gscore>
-8.2763529488184

> <r_i_glide_lipo>
-2.50276004044435

> <r_i_glide_hbond>
-0.754475455296758

> <r_i_glide_metal>
0

> <r_i_glide_rewards>
-1.46829941135894

> <r_i_glide_evdw>
-47.1620178222656

> <r_i_glide_ecoul>
-10.6314220428467

> <r_i_glide_erotb>
0.462432496214112

> <r_i_glide_esite>
-0.0604363403921764

> <r_i_glide_emodel>
-84.9731876078099

> <r_i_glide_energy>
-57.7934398651123

> <r_i_glide_einternal>
4.62366056442261

> <i_i_glide_confnum>
18

> <i_i_glide_posenum>
314

> <r_i_glide_eff_state_penalty>
0

> <s_user_duplicate_titles>
CHEMBL3231_lig612

> <i_f3d_flags>
0

> <s_m_subgroup_title>
dock_pv

> <s_m_subgroupid>
dock_pv

> <b_m_subgroup_collapsed>
1

$$$$
CHEMBL3231_lig817
                    3D
 Schrodinger Suite 2021-1.
 54 56  0  0  1  0            999 V2000
   55.2123  106.1212   33.8677 C   0  0  0  0  0  0
   55.3698  104.6123   33.6108 C   0  0  0  0  0  0
   55.4326  103.6449   35.2417 S   0  0  0  0  0  0
   54.4842  104.2437   36.1878 O   0  0  0  0  0  0
   56.8427  103.5029   35.6107 O   0  0  0  0  0  0
   54.8456  102.0433   34.8207 N   0  0  1  0  0  0
   53.4209  101.7071   35.0413 C   0  0  0  0  0  0
   52.4583  102.5067   34.1390 C   0  0  1  0  0  0
   52.4296  101.9945   32.7641 N   0  0  0  0  0  0
   51.9477  102.6710   31.7051 C   0  0  0  0  0  0
   51.6430  103.8635   31.7699 O   0  0  0  0  0  0
   51.7221  101.8938   30.4285 C   0  0  0  0  0  0
   51.4328  102.5834   29.2483 C   0  0  0  0  0  0
   51.0858  101.8943   28.0953 C   0  0  0  0  0  0
   51.0202  100.4970   28.0765 C   0  0  0  0  0  0
   51.3446   99.7770   29.2427 C   0  0  0  0  0  0
   51.2437   98.3957   29.2145 O   0  0  0  0  0  0
   51.4099   97.6381   30.4116 C   0  0  0  0  0  0
   51.7031  100.4883   30.4022 C   0  0  0  0  0  0
   50.5493   99.8586   26.8008 C   0  0  0  0  0  0
   49.9501  100.4889   25.7159 C   0  0  0  0  0  0
   49.6635   99.5123   24.8106 N   0  0  0  0  0  0
   50.0429   98.3026   25.2111 N   0  0  0  0  0  0
   50.5783   98.5104   26.3909 C   0  0  0  0  0  0
   51.0682  102.6414   34.7610 C   0  0  0  0  0  0
   50.5838  103.9108   35.1005 C   0  0  0  0  0  0
   49.3315  104.0455   35.6902 C   0  0  0  0  0  0
   48.5688  102.9094   35.9414 C   0  0  0  0  0  0
   49.0429  101.6428   35.6102 C   0  0  0  0  0  0
   50.2965  101.5058   35.0237 C   0  0  0  0  0  0
   55.1468  106.6823   32.9341 H   0  0  0  0  0  0
   54.2957  106.3281   34.4212 H   0  0  0  0  0  0
   56.0431  106.5318   34.4337 H   0  0  0  0  0  0
   56.2777  104.3760   33.0579 H   0  0  0  0  0  0
   54.5459  104.2424   33.0050 H   0  0  0  0  0  0
   55.3412  101.5537   34.0708 H   0  0  0  0  0  0
   53.2064  101.9059   36.0920 H   0  0  0  0  0  0
   53.2900  100.6302   34.9143 H   0  0  0  0  0  0
   52.8455  103.5223   34.0962 H   0  0  0  0  0  0
   52.8216  101.0779   32.6090 H   0  0  0  0  0  0
   51.4449  103.6641   29.2183 H   0  0  0  0  0  0
   50.8430  102.4719   27.2166 H   0  0  0  0  0  0
   51.2422   96.5832   30.1933 H   0  0  0  0  0  0
   52.4212   97.7311   30.8104 H   0  0  0  0  0  0
   50.6904   97.9293   31.1781 H   0  0  0  0  0  0
   51.9211   99.9428   31.3070 H   0  0  0  0  0  0
   49.6829  101.5163   25.5162 H   0  0  0  0  0  0
   49.2217   99.6692   23.9079 H   0  0  0  0  0  0
   50.9834   97.6837   26.9537 H   0  0  0  0  0  0
   51.1750  104.7973   34.9132 H   0  0  0  0  0  0
   48.9575  105.0227   35.9559 H   0  0  0  0  0  0
   47.6042  103.0166   36.4101 H   0  0  0  0  0  0
   48.4433  100.7717   35.8213 H   0  0  0  0  0  0
   50.6654  100.5213   34.7733 H   0  0  0  0  0  0
  1  2  1  0  0  0
  1 31  1  0  0  0
  1 32  1  0  0  0
  1 33  1  0  0  0
  2  3  1  0  0  0
  2 34  1  0  0  0
  2 35  1  0  0  0
  3  4  2  0  0  0
  3  5  2  0  0  0
  3  6  1  0  0  0
  6  7  1  0  0  0
  6 36  1  0  0  0
  7  8  1  0  0  0
  7 37  1  0  0  0
  7 38  1  0  0  0
  8  9  1  0  0  0
  8 25  1  0  0  0
  8 39  1  0  0  0
  9 10  1  0  0  0
  9 40  1  0  0  0
 10 11  2  0  0  0
 10 12  1  0  0  0
 12 13  2  0  0  0
 12 19  1  0  0  0
 13 14  1  0  0  0
 13 41  1  0  0  0
 14 15  2  0  0  0
 14 42  1  0  0  0
 15 16  1  0  0  0
 15 20  1  0  0  0
 16 17  1  0  0  0
 16 19  2  0  0  0
 17 18  1  0  0  0
 18 43  1  0  0  0
 18 44  1  0  0  0
 18 45  1  0  0  0
 19 46  1  0  0  0
 20 21  2  0  0  0
 20 24  1  0  0  0
 21 22  1  0  0  0
 21 47  1  0  0  0
 22 23  1  0  0  0
 22 48  1  0  0  0
 23 24  2  0  0  0
 24 49  1  0  0  0
 25 26  2  0  0  0
 25 30  1  0  0  0
 26 27  1  0  0  0
 26 50  1  0  0  0
 27 28  2  0  0  0
 27 51  1  0  0  0
 28 29  1  0  0  0
 28 52  1  0  0  0
 29 30  2  0  0  0
 29 53  1  0  0  0
 30 54  1  0  0  0
M  END
> <s_m_entry_id>
27974

> <s_m_entry_name>
dock_pv.135

> <s_m_Source_Path>
/home/csk/Desktop/cluster/DUD-E-result/rock1

> <s_m_Source_File>
dock_pv.maegz

> <i_m_Source_File_Index>
135

> <chembl_id>
CHEMBL4113161

> <chembl_pref_name>
None

> <i_lp_mmshare_version>
53161

> <r_lp_tautomer_probability>
0.5

> <s_lp_Force_Field>
OPLS_2005

> <r_lp_Energy>
16.374653

> <b_lp_Chiralities_Consistent>
1

> <s_lp_Variant>
CHEMBL3231_lig817-1

> <s_i_glide_gridfile>
glide-grid_2etr

> <i_i_glide_lignum>
1145

> <i_i_glide_rotatable_bonds>
10

> <r_i_docking_score>
-8.27525332187297

> <r_i_glide_ligand_efficiency>
-0.275841777395766

> <r_i_glide_ligand_efficiency_sa>
-0.857104536252484

> <r_i_glide_ligand_efficiency_ln>
-1.88022772083622

> <r_i_glide_gscore>
-8.27525332187297

> <r_i_glide_lipo>
-2.91712217524687

> <r_i_glide_hbond>
-0.676135863274071

> <r_i_glide_metal>
0

> <r_i_glide_rewards>
-1.44502083810985

> <r_i_glide_evdw>
-47.1648101806641

> <r_i_glide_ecoul>
-8.30570983886719

> <r_i_glide_erotb>
0.530097747615579

> <r_i_glide_esite>
-0.162975207994479

> <r_i_glide_emodel>
-80.4078351616907

> <r_i_glide_energy>
-55.4705200195312

> <r_i_glide_einternal>
8.15522956848145

> <i_i_glide_confnum>
16

> <i_i_glide_posenum>
172

> <r_i_glide_eff_state_penalty>
0

> <s_user_duplicate_titles>
CHEMBL3231_lig817

> <i_f3d_flags>
0

> <s_m_subgroup_title>
dock_pv

> <s_m_subgroupid>
dock_pv

> <b_m_subgroup_collapsed>
1

$$$$
CHEMBL3231_lig787
                    3D
 Schrodinger Suite 2021-1.
 48 50  0  0  1  0            999 V2000
   51.4219   97.5052   30.4040 C   0  0  0  0  0  0
   51.2446   98.2915   29.2276 O   0  0  0  0  0  0
   51.3631   99.6699   29.2856 C   0  0  0  0  0  0
   51.7713  100.3410   30.4526 C   0  0  0  0  0  0
   51.8058  101.7414   30.5169 C   0  0  0  0  0  0
   51.4606  102.4734   29.3807 C   0  0  0  0  0  0
   51.0839  101.8237   28.2130 C   0  0  0  0  0  0
   51.0226  100.4252   28.1425 C   0  0  0  0  0  0
   50.5524   99.8229   26.8436 C   0  0  0  0  0  0
   50.5448   98.4812   26.4116 C   0  0  0  0  0  0
   50.0432   98.3067   25.2118 N   0  0  0  0  0  0
   49.7174   99.5331   24.8108 N   0  0  0  0  0  0
   50.0035  100.4843   25.7491 C   0  0  0  0  0  0
   52.1509  102.4669   31.7918 C   0  0  0  0  0  0
   51.5593  103.5039   32.0891 O   0  0  0  0  0  0
   53.1251  101.9237   32.5457 N   0  0  0  0  0  0
   53.6437  102.4680   33.8080 C   0  0  2  0  0  0
   55.1813  102.2848   33.8407 C   0  0  0  0  0  0
   55.8039  102.8844   35.0138 N   0  0  0  0  0  0
   52.9433  101.8301   35.0423 C   0  0  0  0  0  0
   51.4722  102.1914   35.2394 C   0  0  0  0  0  0
   50.5185  101.1783   35.3739 C   0  0  0  0  0  0
   49.1853  101.5034   35.6071 C   0  0  0  0  0  0
   48.8033  102.8406   35.6887 C   0  0  0  0  0  0
   49.7466  103.8559   35.5576 C   0  0  0  0  0  0
   51.0820  103.5303   35.3396 C   0  0  0  0  0  0
   51.2429   96.4566   30.1647 H   0  0  0  0  0  0
   52.4392   97.5859   30.7879 H   0  0  0  0  0  0
   50.7147   97.7856   31.1865 H   0  0  0  0  0  0
   52.0230   99.7787   31.3389 H   0  0  0  0  0  0
   51.4850  103.5543   29.3938 H   0  0  0  0  0  0
   50.8299  102.4291   27.3562 H   0  0  0  0  0  0
   50.9038   97.6331   26.9719 H   0  0  0  0  0  0
   49.2995   99.7176   23.9040 H   0  0  0  0  0  0
   49.7809  101.5242   25.5606 H   0  0  0  0  0  0
   53.6283  101.1395   32.1589 H   0  0  0  0  0  0
   53.4736  103.5489   33.8197 H   0  0  0  0  0  0
   55.4342  101.2240   33.8079 H   0  0  0  0  0  0
   55.6283  102.7419   32.9563 H   0  0  0  0  0  0
   55.4540  102.4307   35.8454 H   0  0  0  0  0  0
   56.7927  102.6615   34.9954 H   0  0  0  0  0  0
   53.4473  102.1404   35.9573 H   0  0  0  0  0  0
   53.0602  100.7468   34.9953 H   0  0  0  0  0  0
   50.8085  100.1395   35.3145 H   0  0  0  0  0  0
   48.4464  100.7242   35.7189 H   0  0  0  0  0  0
   47.7659  103.0869   35.8671 H   0  0  0  0  0  0
   49.4463  104.8915   35.6311 H   0  0  0  0  0  0
   51.8123  104.3214   35.2498 H   0  0  0  0  0  0
  1  2  1  0  0  0
  1 27  1  0  0  0
  1 28  1  0  0  0
  1 29  1  0  0  0
  2  3  1  0  0  0
  3  4  2  0  0  0
  3  8  1  0  0  0
  4  5  1  0  0  0
  4 30  1  0  0  0
  5  6  2  0  0  0
  5 14  1  0  0  0
  6  7  1  0  0  0
  6 31  1  0  0  0
  7  8  2  0  0  0
  7 32  1  0  0  0
  8  9  1  0  0  0
  9 10  1  0  0  0
  9 13  2  0  0  0
 10 11  2  0  0  0
 10 33  1  0  0  0
 11 12  1  0  0  0
 12 13  1  0  0  0
 12 34  1  0  0  0
 13 35  1  0  0  0
 14 15  2  0  0  0
 14 16  1  0  0  0
 16 17  1  0  0  0
 16 36  1  0  0  0
 17 18  1  0  0  0
 17 20  1  0  0  0
 17 37  1  0  0  0
 18 19  1  0  0  0
 18 38  1  0  0  0
 18 39  1  0  0  0
 19 40  1  0  0  0
 19 41  1  0  0  0
 20 21  1  0  0  0
 20 42  1  0  0  0
 20 43  1  0  0  0
 21 22  2  0  0  0
 21 26  1  0  0  0
 22 23  1  0  0  0
 22 44  1  0  0  0
 23 24  2  0  0  0
 23 45  1  0  0  0
 24 25  1  0  0  0
 24 46  1  0  0  0
 25 26  2  0  0  0
 25 47  1  0  0  0
 26 48  1  0  0  0
M  END
> <s_m_entry_id>
27975

> <s_m_entry_name>
dock_pv.136

> <s_m_Source_Path>
/home/csk/Desktop/cluster/DUD-E-result/rock1

> <s_m_Source_File>
dock_pv.maegz

> <i_m_Source_File_Index>
136

> <chembl_id>
CHEMBL3964418

> <chembl_pref_name>
None

> <i_lp_mmshare_version>
53161

> <r_lp_tautomer_probability>
0.5

> <s_lp_Force_Field>
OPLS_2005

> <r_lp_Energy>
24.107921

> <b_lp_Chiralities_Consistent>
1

> <s_lp_Variant>
CHEMBL3231_lig787-1

> <s_i_glide_gridfile>
glide-grid_2etr

> <i_i_glide_lignum>
1112

> <i_i_glide_rotatable_bonds>
8

> <r_i_docking_score>
-8.27313057907605

> <r_i_glide_ligand_efficiency>
-0.318197329964463

> <r_i_glide_ligand_efficiency_sa>
-0.942658337973688

> <r_i_glide_ligand_efficiency_ln>
-1.94291757014042

> <r_i_glide_gscore>
-8.27313057907605

> <r_i_glide_lipo>
-2.8784955791098

> <r_i_glide_hbond>
-0.633830378068972

> <r_i_glide_metal>
0

> <r_i_glide_rewards>
-1.99580011942384

> <r_i_glide_evdw>
-43.5116081237793

> <r_i_glide_ecoul>
-7.2424578666687

> <r_i_glide_erotb>
0.543300596175636

> <r_i_glide_esite>
-0.0463560124598042

> <r_i_glide_emodel>
-74.7106141383361

> <r_i_glide_energy>
-50.754065990448

> <r_i_glide_einternal>
5.24890327453613

> <i_i_glide_confnum>
8

> <i_i_glide_posenum>
131

> <r_i_glide_eff_state_penalty>
0

> <s_user_duplicate_titles>
CHEMBL3231_lig787

> <i_f3d_flags>
0

> <s_m_subgroup_title>
dock_pv

> <s_m_subgroupid>
dock_pv

> <b_m_subgroup_collapsed>
1

$$$$
CHEMBL3231_lig757
                    3D
 Schrodinger Suite 2021-1.
 44 46  0  0  1  0            999 V2000
   53.5325  100.2500   34.8950 O   0  0  0  0  0  0
   53.8954  101.6198   34.8349 C   0  0  0  0  0  0
   52.8457  102.4936   34.1059 C   0  0  1  0  0  0
   52.6592  102.0475   32.7206 N   0  0  0  0  0  0
   52.0343  102.7274   31.7425 C   0  0  0  0  0  0
   51.6435  103.8865   31.8927 O   0  0  0  0  0  0
   51.7644  101.9871   30.4496 C   0  0  0  0  0  0
   51.2674  102.6739   29.3381 C   0  0  0  0  0  0
   50.9098  101.9869   28.1838 C   0  0  0  0  0  0
   51.0428  100.5941   28.0923 C   0  0  0  0  0  0
   51.5595   99.8864   29.1977 C   0  0  0  0  0  0
   51.6422   98.5073   29.1256 O   0  0  0  0  0  0
   51.7841   97.7294   30.3159 C   0  0  0  0  0  0
   53.0035   97.8324   30.8496 F   0  0  0  0  0  0
   50.8427   98.0037   31.2113 F   0  0  0  0  0  0
   51.9316  100.5993   30.3506 C   0  0  0  0  0  0
   50.5766   99.9349   26.8186 C   0  0  0  0  0  0
   50.5475   98.5704   26.4465 C   0  0  0  0  0  0
   50.0431   98.3496   25.2530 N   0  0  0  0  0  0
   49.7268   99.5650   24.8108 N   0  0  0  0  0  0
   50.0376  100.5549   25.6968 C   0  0  0  0  0  0
   51.5335  102.6207   34.9048 C   0  0  0  0  0  0
   51.3081  103.7597   35.6938 C   0  0  0  0  0  0
   52.2401  104.7390   35.7646 F   0  0  0  0  0  0
   50.1309  103.8975   36.4263 C   0  0  0  0  0  0
   49.1588  102.8990   36.3837 C   0  0  0  0  0  0
   49.3713  101.7604   35.6100 C   0  0  0  0  0  0
   50.5486  101.6169   34.8763 C   0  0  0  0  0  0
   50.7168  100.4963   34.1336 F   0  0  0  0  0  0
   54.2632   99.7516   35.2763 H   0  0  0  0  0  0
   54.8581  101.6898   34.3232 H   0  0  0  0  0  0
   54.0585  101.9825   35.8498 H   0  0  0  0  0  0
   53.2984  103.4863   34.0405 H   0  0  0  0  0  0
   53.0195  101.1274   32.5146 H   0  0  0  0  0  0
   51.1283  103.7459   29.3654 H   0  0  0  0  0  0
   50.5095  102.5596   27.3614 H   0  0  0  0  0  0
   51.6430   96.6784   30.0646 H   0  0  0  0  0  0
   52.3148  100.0584   31.2019 H   0  0  0  0  0  0
   50.8876   97.7366   27.0425 H   0  0  0  0  0  0
   49.3089   99.7169   23.8950 H   0  0  0  0  0  0
   49.8315  101.5888   25.4590 H   0  0  0  0  0  0
   49.9735  104.7825   37.0246 H   0  0  0  0  0  0
   48.2436  103.0051   36.9504 H   0  0  0  0  0  0
   48.6226  100.9837   35.5779 H   0  0  0  0  0  0
  1  2  1  0  0  0
  1 30  1  0  0  0
  2  3  1  0  0  0
  2 31  1  0  0  0
  2 32  1  0  0  0
  3  4  1  0  0  0
  3 22  1  0  0  0
  3 33  1  0  0  0
  4  5  1  0  0  0
  4 34  1  0  0  0
  5  6  2  0  0  0
  5  7  1  0  0  0
  7  8  2  0  0  0
  7 16  1  0  0  0
  8  9  1  0  0  0
  8 35  1  0  0  0
  9 10  2  0  0  0
  9 36  1  0  0  0
 10 11  1  0  0  0
 10 17  1  0  0  0
 11 12  1  0  0  0
 11 16  2  0  0  0
 12 13  1  0  0  0
 13 14  1  0  0  0
 13 15  1  0  0  0
 13 37  1  0  0  0
 16 38  1  0  0  0
 17 18  1  0  0  0
 17 21  2  0  0  0
 18 19  2  0  0  0
 18 39  1  0  0  0
 19 20  1  0  0  0
 20 21  1  0  0  0
 20 40  1  0  0  0
 21 41  1  0  0  0
 22 23  2  0  0  0
 22 28  1  0  0  0
 23 24  1  0  0  0
 23 25  1  0  0  0
 25 26  2  0  0  0
 25 42  1  0  0  0
 26 27  1  0  0  0
 26 43  1  0  0  0
 27 28  2  0  0  0
 27 44  1  0  0  0
 28 29  1  0  0  0
M  END
> <s_m_entry_id>
27976

> <s_m_entry_name>
dock_pv.137

> <s_m_Source_Path>
/home/csk/Desktop/cluster/DUD-E-result/rock1

> <s_m_Source_File>
dock_pv.maegz

> <i_m_Source_File_Index>
137

> <chembl_id>
CHEMBL4114203

> <chembl_pref_name>
None

> <i_lp_mmshare_version>
53161

> <r_lp_tautomer_probability>
0.5

> <s_lp_Force_Field>
OPLS_2005

> <r_lp_Energy>
18.288256

> <b_lp_Chiralities_Consistent>
1

> <s_lp_Variant>
CHEMBL3231_lig757-1

> <s_i_glide_gridfile>
glide-grid_2etr

> <i_i_glide_lignum>
1075

> <i_i_glide_rotatable_bonds>
9

> <r_i_docking_score>
-8.27269447390959

> <r_i_glide_ligand_efficiency>
-0.285265326686538

> <r_i_glide_ligand_efficiency_sa>
-0.876425461980092

> <r_i_glide_ligand_efficiency_ln>
-1.89423725709353

> <r_i_glide_gscore>
-8.27269447390959

> <r_i_glide_lipo>
-2.84990709283742

> <r_i_glide_hbond>
-0.625390548017107

> <r_i_glide_metal>
0

> <r_i_glide_rewards>
-2.14578760444481

> <r_i_glide_evdw>
-42.3442726135254

> <r_i_glide_ecoul>
-6.44303560256958

> <r_i_glide_erotb>
0.493553561717563

> <r_i_glide_esite>
-0.0614938192661074

> <r_i_glide_emodel>
-73.3175349066121

> <r_i_glide_energy>
-48.787308216095

> <r_i_glide_einternal>
2.32487177848816

> <i_i_glide_confnum>
3

> <i_i_glide_posenum>
360

> <r_i_glide_eff_state_penalty>
0

> <s_user_duplicate_titles>
CHEMBL3231_lig757

> <i_f3d_flags>
0

> <s_m_subgroup_title>
dock_pv

> <s_m_subgroupid>
dock_pv

> <b_m_subgroup_collapsed>
1

$$$$
CHEMBL3231_lig849
                    3D
 Schrodinger Suite 2021-1.
 50 52  0  0  1  0            999 V2000
   53.1668   98.2412   34.6386 C   0  0  0  0  0  0
   52.4029   99.0634   35.5166 O   0  0  0  0  0  0
   52.4577  100.4359   35.3661 C   0  0  0  0  0  0
   51.7694  101.2022   36.3064 C   0  0  0  0  0  0
   51.7729  102.5953   36.2378 C   0  0  0  0  0  0
   52.4829  103.2419   35.2269 C   0  0  0  0  0  0
   53.1887  102.4977   34.2773 C   0  0  0  0  0  0
   53.1601  101.0974   34.3466 C   0  0  0  0  0  0
   53.9956  103.2006   33.1778 C   0  0  1  0  0  0
   55.4829  102.9292   33.3502 C   0  0  0  0  0  0
   53.5908  102.7944   31.8313 N   0  0  0  0  0  0
   52.4025  103.1031   31.2959 C   0  0  0  0  0  0
   51.6430  103.9030   31.8334 O   0  0  0  0  0  0
   51.9920  102.3589   30.0497 C   0  0  0  0  0  0
   52.3743  101.0188   29.8878 C   0  0  0  0  0  0
   51.9318  100.2776   28.7981 C   0  0  0  0  0  0
   51.0803  100.8460   27.8504 C   0  0  0  0  0  0
   50.7034  102.1820   28.0106 C   0  0  0  0  0  0
   51.1627  102.9609   29.0819 C   0  0  0  0  0  0
   50.8412  104.3024   29.2116 O   0  0  0  0  0  0
   50.0357  104.9532   28.2359 C   0  0  0  0  0  0
   50.5840  100.0883   26.6592 C   0  0  0  0  0  0
   50.0421  100.6471   25.5119 C   0  0  0  0  0  0
   49.7373   99.6118   24.6866 N   0  0  0  0  0  0
   50.0423   98.4302   25.2110 N   0  0  0  0  0  0
   50.5224   98.6959   26.4060 C   0  0  0  0  0  0
   50.9037   97.5298   27.2798 C   0  0  0  0  0  0
   53.0577   97.1978   34.9334 H   0  0  0  0  0  0
   52.8225   98.3310   33.6071 H   0  0  0  0  0  0
   54.2301   98.4826   34.6837 H   0  0  0  0  0  0
   51.2400  100.7034   37.1032 H   0  0  0  0  0  0
   51.2328  103.1735   36.9727 H   0  0  0  0  0  0
   52.4853  104.3219   35.1851 H   0  0  0  0  0  0
   53.7023  100.5343   33.6029 H   0  0  0  0  0  0
   53.8619  104.2835   33.2614 H   0  0  0  0  0  0
   55.8536  103.2691   34.3175 H   0  0  0  0  0  0
   55.6430  101.8540   33.2773 H   0  0  0  0  0  0
   56.0603  103.4258   32.5698 H   0  0  0  0  0  0
   54.2817  102.3264   31.2626 H   0  0  0  0  0  0
   53.0066  100.5273   30.6148 H   0  0  0  0  0  0
   52.2653   99.2581   28.7108 H   0  0  0  0  0  0
   50.0493  102.6212   27.2754 H   0  0  0  0  0  0
   49.9864  106.0169   28.4638 H   0  0  0  0  0  0
   50.4434  104.8564   27.2284 H   0  0  0  0  0  0
   49.0169  104.5677   28.2581 H   0  0  0  0  0  0
   49.8423  101.6638   25.2159 H   0  0  0  0  0  0
   49.3163   99.7087   23.7663 H   0  0  0  0  0  0
   51.9762   97.5061   27.4590 H   0  0  0  0  0  0
   50.4071   97.5632   28.2494 H   0  0  0  0  0  0
   50.6462   96.5806   26.8107 H   0  0  0  0  0  0
  1  2  1  0  0  0
  1 28  1  0  0  0
  1 29  1  0  0  0
  1 30  1  0  0  0
  2  3  1  0  0  0
  3  4  2  0  0  0
  3  8  1  0  0  0
  4  5  1  0  0  0
  4 31  1  0  0  0
  5  6  2  0  0  0
  5 32  1  0  0  0
  6  7  1  0  0  0
  6 33  1  0  0  0
  7  8  2  0  0  0
  7  9  1  0  0  0
  8 34  1  0  0  0
  9 10  1  0  0  0
  9 11  1  0  0  0
  9 35  1  0  0  0
 10 36  1  0  0  0
 10 37  1  0  0  0
 10 38  1  0  0  0
 11 12  1  0  0  0
 11 39  1  0  0  0
 12 13  2  0  0  0
 12 14  1  0  0  0
 14 15  2  0  0  0
 14 19  1  0  0  0
 15 16  1  0  0  0
 15 40  1  0  0  0
 16 17  2  0  0  0
 16 41  1  0  0  0
 17 18  1  0  0  0
 17 22  1  0  0  0
 18 19  2  0  0  0
 18 42  1  0  0  0
 19 20  1  0  0  0
 20 21  1  0  0  0
 21 43  1  0  0  0
 21 44  1  0  0  0
 21 45  1  0  0  0
 22 23  2  0  0  0
 22 26  1  0  0  0
 23 24  1  0  0  0
 23 46  1  0  0  0
 24 25  1  0  0  0
 24 47  1  0  0  0
 25 26  2  0  0  0
 26 27  1  0  0  0
 27 48  1  0  0  0
 27 49  1  0  0  0
 27 50  1  0  0  0
M  END
> <s_m_entry_id>
27977

> <s_m_entry_name>
dock_pv.138

> <s_m_Source_Path>
/home/csk/Desktop/cluster/DUD-E-result/rock1

> <s_m_Source_File>
dock_pv.maegz

> <i_m_Source_File_Index>
138

> <chembl_id>
CHEMBL4115244

> <chembl_pref_name>
None

> <i_lp_mmshare_version>
53161

> <r_lp_tautomer_probability>
0.5

> <s_lp_Force_Field>
OPLS_2005

> <r_lp_Energy>
25.70758

> <b_lp_Chiralities_Consistent>
1

> <s_lp_Variant>
CHEMBL3231_lig849-1

> <s_i_glide_gridfile>
glide-grid_2etr

> <i_i_glide_lignum>
1195

> <i_i_glide_rotatable_bonds>
7

> <r_i_docking_score>
-8.27079076172743

> <r_i_glide_ligand_efficiency>
-0.306325583767682

> <r_i_glide_ligand_efficiency_sa>
-0.918976750293448

> <r_i_glide_ligand_efficiency_ln>
-1.92530373468774

> <r_i_glide_gscore>
-8.27079076172743

> <r_i_glide_lipo>
-2.53600334448775

> <r_i_glide_hbond>
-0.638837821757112

> <r_i_glide_metal>
0

> <r_i_glide_rewards>
-1.86993388814697

> <r_i_glide_evdw>
-41.3186531066895

> <r_i_glide_ecoul>
-10.5530576705933

> <r_i_glide_erotb>
0.504179113471219

> <r_i_glide_esite>
-0.0813035148833526

> <r_i_glide_emodel>
-77.4106703223596

> <r_i_glide_energy>
-51.8717107772827

> <r_i_glide_einternal>
1.83575057983398

> <i_i_glide_confnum>
11

> <i_i_glide_posenum>
343

> <r_i_glide_eff_state_penalty>
0

> <s_user_duplicate_titles>
CHEMBL3231_lig849

> <i_f3d_flags>
0

> <s_m_subgroup_title>
dock_pv

> <s_m_subgroupid>
dock_pv

> <b_m_subgroup_collapsed>
1

$$$$
CHEMBL3231_lig790
                    3D
 Schrodinger Suite 2021-1.
 50 52  0  0  1  0            999 V2000
   51.4076   97.6370   30.4104 C   0  0  0  0  0  0
   51.2438   98.3962   29.2156 O   0  0  0  0  0  0
   51.3130   99.7793   29.2495 C   0  0  0  0  0  0
   51.6435  100.4948   30.4158 C   0  0  0  0  0  0
   51.6434  101.9001   30.4439 C   0  0  0  0  0  0
   51.3706  102.5839   29.2557 C   0  0  0  0  0  0
   51.0511  101.8923   28.0965 C   0  0  0  0  0  0
   50.9950  100.4955   28.0776 C   0  0  0  0  0  0
   50.5338   99.8564   26.7997 C   0  0  0  0  0  0
   50.5814   98.5099   26.3888 C   0  0  0  0  0  0
   50.0430   98.2977   25.2110 N   0  0  0  0  0  0
   49.6438   99.5025   24.8109 N   0  0  0  0  0  0
   49.9207  100.4802   25.7184 C   0  0  0  0  0  0
   51.8654  102.6913   31.7158 C   0  0  0  0  0  0
   51.6449  103.9024   31.7297 O   0  0  0  0  0  0
   52.2635  102.0172   32.8115 N   0  0  0  0  0  0
   52.4913  102.6030   34.1377 C   0  0  0  0  0  0
   51.2897  103.3176   34.7586 C   0  0  0  0  0  0
   50.3075  102.5916   35.4386 C   0  0  0  0  0  0
   49.2302  103.2514   36.0284 C   0  0  0  0  0  0
   49.1386  104.6419   35.9572 C   0  0  0  0  0  0
   50.1314  105.3972   35.3126 C   0  0  0  0  0  0
   51.2004  104.7139   34.7085 C   0  0  0  0  0  0
   49.9800  106.9050   35.2111 C   0  0  0  0  0  0
   48.8430  107.3632   35.0816 O   0  0  0  0  0  0
   51.0741  107.7134   35.2112 N   0  0  0  0  0  0
   51.0118  109.0880   34.7040 C   0  0  0  0  0  0
   52.4145  107.3435   35.6722 C   0  0  0  0  0  0
   51.2431   96.5819   30.1906 H   0  0  0  0  0  0
   52.4164   97.7359   30.8133 H   0  0  0  0  0  0
   50.6834   97.9243   31.1740 H   0  0  0  0  0  0
   51.8591   99.9510   31.3213 H   0  0  0  0  0  0
   51.3814  103.6647   29.2209 H   0  0  0  0  0  0
   50.8257  102.4673   27.2123 H   0  0  0  0  0  0
   50.9994   97.6874   26.9497 H   0  0  0  0  0  0
   49.1994   99.6548   23.9095 H   0  0  0  0  0  0
   49.6423  101.5047   25.5225 H   0  0  0  0  0  0
   52.5734  101.0662   32.6852 H   0  0  0  0  0  0
   53.3519  103.2745   34.0950 H   0  0  0  0  0  0
   52.7979  101.7989   34.8084 H   0  0  0  0  0  0
   50.3714  101.5145   35.5013 H   0  0  0  0  0  0
   48.4635  102.6853   36.5386 H   0  0  0  0  0  0
   48.2869  105.1307   36.4109 H   0  0  0  0  0  0
   51.9576  105.2585   34.1593 H   0  0  0  0  0  0
   50.0233  109.3703   34.3401 H   0  0  0  0  0  0
   51.7093  109.2106   33.8742 H   0  0  0  0  0  0
   51.2907  109.7950   35.4861 H   0  0  0  0  0  0
   52.4359  106.4000   36.2177 H   0  0  0  0  0  0
   53.0939  107.2694   34.8206 H   0  0  0  0  0  0
   52.8051  108.1065   36.3469 H   0  0  0  0  0  0
  1  2  1  0  0  0
  1 29  1  0  0  0
  1 30  1  0  0  0
  1 31  1  0  0  0
  2  3  1  0  0  0
  3  4  2  0  0  0
  3  8  1  0  0  0
  4  5  1  0  0  0
  4 32  1  0  0  0
  5  6  2  0  0  0
  5 14  1  0  0  0
  6  7  1  0  0  0
  6 33  1  0  0  0
  7  8  2  0  0  0
  7 34  1  0  0  0
  8  9  1  0  0  0
  9 10  1  0  0  0
  9 13  2  0  0  0
 10 11  2  0  0  0
 10 35  1  0  0  0
 11 12  1  0  0  0
 12 13  1  0  0  0
 12 36  1  0  0  0
 13 37  1  0  0  0
 14 15  2  0  0  0
 14 16  1  0  0  0
 16 17  1  0  0  0
 16 38  1  0  0  0
 17 18  1  0  0  0
 17 39  1  0  0  0
 17 40  1  0  0  0
 18 19  2  0  0  0
 18 23  1  0  0  0
 19 20  1  0  0  0
 19 41  1  0  0  0
 20 21  2  0  0  0
 20 42  1  0  0  0
 21 22  1  0  0  0
 21 43  1  0  0  0
 22 23  2  0  0  0
 22 24  1  0  0  0
 23 44  1  0  0  0
 24 25  2  0  0  0
 24 26  1  0  0  0
 26 27  1  0  0  0
 26 28  1  0  0  0
 27 45  1  0  0  0
 27 46  1  0  0  0
 27 47  1  0  0  0
 28 48  1  0  0  0
 28 49  1  0  0  0
 28 50  1  0  0  0
M  END
> <s_m_entry_id>
27978

> <s_m_entry_name>
dock_pv.139

> <s_m_Source_Path>
/home/csk/Desktop/cluster/DUD-E-result/rock1

> <s_m_Source_File>
dock_pv.maegz

> <i_m_Source_File_Index>
139

> <chembl_id>
CHEMBL3980770

> <chembl_pref_name>
None

> <i_lp_mmshare_version>
53161

> <r_lp_tautomer_probability>
0.5

> <s_lp_Force_Field>
OPLS_2005

> <r_lp_Energy>
33.84691

> <b_lp_Chiralities_Consistent>
1

> <s_lp_Variant>
CHEMBL3231_lig790-1

> <s_i_glide_gridfile>
glide-grid_2etr

> <i_i_glide_lignum>
1117

> <i_i_glide_rotatable_bonds>
8

> <r_i_docking_score>
-8.27063056004498

> <r_i_glide_ligand_efficiency>
-0.295379662858749

> <r_i_glide_ligand_efficiency_sa>
-0.89694662575696

> <r_i_glide_ligand_efficiency_ln>
-1.90910436952352

> <r_i_glide_gscore>
-8.27063056004498

> <r_i_glide_lipo>
-2.50539931127546

> <r_i_glide_hbond>
-0.678017448764244

> <r_i_glide_metal>
0

> <r_i_glide_rewards>
-1.7648012907407

> <r_i_glide_evdw>
-45.7817916870117

> <r_i_glide_ecoul>
-9.68441104888916

> <r_i_glide_erotb>
0.568359291187481

> <r_i_glide_esite>
-0.149020558768104

> <r_i_glide_emodel>
-82.6123248042599

> <r_i_glide_energy>
-55.4662027359009

> <r_i_glide_einternal>
2.51771426200867

> <i_i_glide_confnum>
22

> <i_i_glide_posenum>
138

> <r_i_glide_eff_state_penalty>
0

> <s_user_duplicate_titles>
CHEMBL3231_lig790

> <i_f3d_flags>
0

> <s_m_subgroup_title>
dock_pv

> <s_m_subgroupid>
dock_pv

> <b_m_subgroup_collapsed>
1

$$$$
CHEMBL3231_lig461
                    3D
 Schrodinger Suite 2021-1.
 37 40  0  0  1  0            999 V2000
   49.9956   99.5177   24.9805 C   0  0  0  0  0  0
   50.0430   98.1847   25.2111 N   0  0  0  0  0  0
   50.4487   97.7710   26.4347 C   0  0  0  0  0  0
   50.8086   98.6558   27.4519 C   0  0  0  0  0  0
   50.7363  100.0380   27.2115 C   0  0  0  0  0  0
   50.3284  100.4665   25.9407 C   0  0  0  0  0  0
   51.0430  101.0480   28.2732 C   0  0  0  0  0  0
   51.5216  100.6709   29.4509 N   0  0  0  0  0  0
   51.6457  101.6662   30.2922 C   0  0  0  0  0  0
   51.3092  103.2333   29.6108 S   0  0  0  0  0  0
   50.8360  102.4263   28.1590 C   0  0  0  0  0  0
   52.0459  101.4552   31.6065 N   0  0  0  0  0  0
   51.5943  102.1399   32.6815 C   0  0  0  0  0  0
   52.0466  101.6322   34.0794 C   0  0  1  0  0  0
   50.8267  103.1029   32.5960 O   0  0  0  0  0  0
   53.0039  102.6281   34.7934 C   0  0  0  0  0  0
   52.3615  103.8745   35.0882 O   0  0  0  0  0  0
   50.8725  101.4142   34.8910 O   0  0  0  0  0  0
   50.3429  102.5532   35.4747 C   0  0  0  0  0  0
   51.0899  103.7376   35.6148 C   0  0  0  0  0  0
   50.5075  104.8639   36.1955 C   0  0  0  0  0  0
   49.1824  104.8090   36.6357 C   0  0  0  0  0  0
   48.4434  103.6321   36.4952 C   0  0  0  0  0  0
   49.0256  102.4978   35.9255 C   0  0  0  0  0  0
   49.6501   99.8316   24.0111 H   0  0  0  0  0  0
   50.4797   96.7037   26.5926 H   0  0  0  0  0  0
   51.1159   98.2685   28.4128 H   0  0  0  0  0  0
   50.2516  101.5133   25.6902 H   0  0  0  0  0  0
   50.4434  102.9937   27.3293 H   0  0  0  0  0  0
   52.5799  100.6149   31.7743 H   0  0  0  0  0  0
   52.5369  100.6697   33.9263 H   0  0  0  0  0  0
   53.9104  102.7951   34.2100 H   0  0  0  0  0  0
   53.3230  102.1787   35.7366 H   0  0  0  0  0  0
   51.0726  105.7816   36.2793 H   0  0  0  0  0  0
   48.7260  105.6861   37.0707 H   0  0  0  0  0  0
   47.4144  103.5948   36.8190 H   0  0  0  0  0  0
   48.4522  101.5889   35.8165 H   0  0  0  0  0  0
  1  6  1  0  0  0
  1  2  2  0  0  0
  1 25  1  0  0  0
  2  3  1  0  0  0
  3  4  2  0  0  0
  3 26  1  0  0  0
  4  5  1  0  0  0
  4 27  1  0  0  0
  5  6  2  0  0  0
  5  7  1  0  0  0
  6 28  1  0  0  0
  7  8  1  0  0  0
  7 11  2  0  0  0
  8  9  2  0  0  0
  9 12  1  0  0  0
  9 10  1  0  0  0
 10 11  1  0  0  0
 11 29  1  0  0  0
 12 13  1  0  0  0
 12 30  1  0  0  0
 13 14  1  0  0  0
 13 15  2  0  0  0
 14 16  1  0  0  0
 14 18  1  0  0  0
 14 31  1  0  0  0
 16 17  1  0  0  0
 16 32  1  0  0  0
 16 33  1  0  0  0
 17 20  1  0  0  0
 18 19  1  0  0  0
 19 20  2  0  0  0
 19 24  1  0  0  0
 20 21  1  0  0  0
 21 22  2  0  0  0
 21 34  1  0  0  0
 22 23  1  0  0  0
 22 35  1  0  0  0
 23 24  2  0  0  0
 23 36  1  0  0  0
 24 37  1  0  0  0
M  END
> <s_m_entry_id>
27979

> <s_m_entry_name>
dock_pv.140

> <s_m_Source_Path>
/home/csk/Desktop/cluster/DUD-E-result/rock1

> <s_m_Source_File>
dock_pv.maegz

> <i_m_Source_File_Index>
140

> <chembl_id>
CHEMBL510515

> <chembl_pref_name>
None

> <i_lp_mmshare_version>
53161

> <r_lp_tautomer_probability>
0.999000488399163

> <s_lp_Force_Field>
OPLS_2005

> <r_lp_Energy>
15.887464

> <b_lp_Chiralities_Consistent>
1

> <s_lp_Variant>
CHEMBL3231_lig461-2

> <s_i_glide_gridfile>
glide-grid_2etr

> <i_i_glide_lignum>
648

> <i_i_glide_rotatable_bonds>
4

> <r_i_docking_score>
-8.26609081047764

> <r_i_glide_ligand_efficiency>
-0.344420450436568

> <r_i_glide_ligand_efficiency_sa>
-0.993480492242004

> <r_i_glide_ligand_efficiency_ln>
-1.97845483713867

> <r_i_glide_gscore>
-8.26609081047764

> <r_i_glide_lipo>
-3.23345110003372

> <r_i_glide_hbond>
-0.33863649485448

> <r_i_glide_metal>
0

> <r_i_glide_rewards>
-2.43660717331932

> <r_i_glide_evdw>
-41.7979507446289

> <r_i_glide_ecoul>
-5.25068044662476

> <r_i_glide_erotb>
0.657239327552207

> <r_i_glide_esite>
-0.0371357655971702

> <r_i_glide_emodel>
-67.7253812806223

> <r_i_glide_energy>
-47.0486311912537

> <r_i_glide_einternal>
5.53263425827026

> <i_i_glide_confnum>
26

> <i_i_glide_posenum>
284

> <r_i_glide_eff_state_penalty>
0

> <s_user_duplicate_titles>
CHEMBL3231_lig461

> <i_f3d_flags>
0

> <s_m_subgroup_title>
dock_pv

> <s_m_subgroupid>
dock_pv

> <b_m_subgroup_collapsed>
1

$$$$
CHEMBL3231_lig1554
                    3D
 Schrodinger Suite 2021-1.
 52 55  0  0  1  0            999 V2000
   51.3262  100.0823   33.7046 O   0  0  0  0  0  0
   53.2131  101.3901   33.6728 N   0  0  0  0  0  0
   53.6414  103.9032   31.0487 N   0  0  0  0  0  0
   52.4440   98.7958   36.0106 N   0  0  0  0  0  0
   50.0410   98.3041   25.1481 N   0  0  0  0  0  0
   50.6937  103.4675   36.2950 C   0  0  0  0  0  0
   51.8536  102.6265   36.4370 C   0  0  0  0  0  0
   50.8934  104.8674   36.0486 C   0  0  0  0  0  0
   51.7488  101.1056   36.6785 C   0  0  0  0  0  0
   52.6296  100.2379   35.7409 C   0  0  2  0  0  0
   52.3374  100.5397   34.2460 C   0  0  0  0  0  0
   53.1276  103.2049   36.3936 C   0  0  0  0  0  0
   53.1342  101.9689   32.4004 C   0  0  0  0  0  0
   49.3455  103.0016   36.3838 C   0  0  0  0  0  0
   52.2063  105.3849   35.9620 C   0  0  0  0  0  0
   49.7778  105.7262   35.9063 C   0  0  0  0  0  0
   52.5616  101.9826   30.0415 C   0  0  0  0  0  0
   53.3048  104.5563   36.1438 C   0  0  0  0  0  0
   52.5814  101.3290   31.2826 C   0  0  0  0  0  0
   48.2717  103.8753   36.2409 C   0  0  0  0  0  0
   53.6643  103.2492   32.2314 C   0  0  0  0  0  0
   48.4860  105.2261   36.0099 C   0  0  0  0  0  0
   53.1069  103.2684   29.9791 C   0  0  0  0  0  0
   52.0178  101.3731   28.8168 C   0  0  0  0  0  0
   50.9188   99.5538   27.4903 C   0  0  0  0  0  0
   51.4422  100.1571   28.7209 C   0  0  0  0  0  0
   50.4912  100.3189   26.3952 C   0  0  0  0  0  0
   50.8845   98.1600   27.3990 C   0  0  0  0  0  0
   50.0561   99.6562   25.2480 C   0  0  0  0  0  0
   50.4431   97.5764   26.2150 C   0  0  0  0  0  0
   53.9538  101.7433   34.2600 H   0  0  0  0  0  0
   53.1368   98.2443   35.5216 H   0  0  0  0  0  0
   52.5651   98.6022   36.9985 H   0  0  0  0  0  0
   50.7305  100.7371   36.6022 H   0  0  0  0  0  0
   52.0446  100.9188   37.7084 H   0  0  0  0  0  0
   53.6774  100.4607   35.9540 H   0  0  0  0  0  0
   54.0085  102.5975   36.5470 H   0  0  0  0  0  0
   49.1202  101.9652   36.5724 H   0  0  0  0  0  0
   52.3561  106.4373   35.7638 H   0  0  0  0  0  0
   49.9371  106.7831   35.7291 H   0  0  0  0  0  0
   54.3017  104.9680   36.0955 H   0  0  0  0  0  0
   52.1954  100.3279   31.3839 H   0  0  0  0  0  0
   47.2618  103.4995   36.3175 H   0  0  0  0  0  0
   54.1096  103.7880   33.0535 H   0  0  0  0  0  0
   47.6426  105.8934   35.9154 H   0  0  0  0  0  0
   53.1307  103.8246   29.0546 H   0  0  0  0  0  0
   52.1133  101.9662   27.9163 H   0  0  0  0  0  0
   51.3346   99.5484   29.6095 H   0  0  0  0  0  0
   50.4918  101.3998   26.4247 H   0  0  0  0  0  0
   51.2187   97.5385   28.2191 H   0  0  0  0  0  0
   49.7165  100.2083   24.3828 H   0  0  0  0  0  0
   50.4308   96.5017   26.1057 H   0  0  0  0  0  0
  1 11  2  0  0  0
  2 11  1  0  0  0
  2 13  1  0  0  0
  2 31  1  0  0  0
  3 21  1  0  0  0
  3 23  2  0  0  0
  4 10  1  0  0  0
  4 32  1  0  0  0
  4 33  1  0  0  0
  5 29  2  0  0  0
  5 30  1  0  0  0
  6  7  1  0  0  0
  6  8  1  0  0  0
  6 14  2  0  0  0
  7  9  1  0  0  0
  7 12  2  0  0  0
  8 15  1  0  0  0
  8 16  2  0  0  0
  9 10  1  0  0  0
  9 34  1  0  0  0
  9 35  1  0  0  0
 10 11  1  0  0  0
 10 36  1  0  0  0
 12 18  1  0  0  0
 12 37  1  0  0  0
 13 19  1  0  0  0
 13 21  2  0  0  0
 14 20  1  0  0  0
 14 38  1  0  0  0
 15 18  2  0  0  0
 15 39  1  0  0  0
 16 22  1  0  0  0
 16 40  1  0  0  0
 17 19  2  0  0  0
 17 23  1  0  0  0
 17 24  1  0  0  0
 18 41  1  0  0  0
 19 42  1  0  0  0
 20 22  2  0  0  0
 20 43  1  0  0  0
 21 44  1  0  0  0
 22 45  1  0  0  0
 23 46  1  0  0  0
 24 26  2  3  0  0
 24 47  1  0  0  0
 25 26  1  0  0  0
 25 27  2  0  0  0
 25 28  1  0  0  0
 26 48  1  0  0  0
 27 29  1  0  0  0
 27 49  1  0  0  0
 28 30  2  0  0  0
 28 50  1  0  0  0
 29 51  1  0  0  0
 30 52  1  0  0  0
M  END
> <s_m_entry_id>
27980

> <s_m_entry_name>
dock_pv.141

> <s_m_Source_Path>
/home/csk/Desktop/cluster/DUD-E-result/rock1

> <s_m_Source_File>
dock_pv.maegz

> <i_m_Source_File_Index>
141

> <chembl_id>
CHEMBL1985580

> <chembl_pref_name>
None

> <i_lp_mmshare_version>
53161

> <r_lp_tautomer_probability>
1

> <s_lp_Force_Field>
OPLS_2005

> <r_lp_Energy>
29.433265

> <b_lp_Chiralities_Consistent>
1

> <s_lp_Variant>
CHEMBL3231_lig1554-1

> <s_i_glide_gridfile>
glide-grid_2etr

> <i_i_glide_lignum>
2199

> <i_i_glide_rotatable_bonds>
7

> <r_i_docking_score>
-8.26566584337077

> <r_i_glide_ligand_efficiency>
-0.275522194779026

> <r_i_glide_ligand_efficiency_sa>
-0.856111518758538

> <r_i_glide_ligand_efficiency_ln>
-1.87804934125657

> <r_i_glide_gscore>
-8.26566584337077

> <r_i_glide_lipo>
-3.33454247339225

> <r_i_glide_hbond>
-0.364796345653277

> <r_i_glide_metal>
0

> <r_i_glide_rewards>
-2.05182410049443

> <r_i_glide_evdw>
-48.2977142333984

> <r_i_glide_ecoul>
-5.65113496780396

> <r_i_glide_erotb>
0.753644637696072

> <r_i_glide_esite>
-0.00559160468637537

> <r_i_glide_emodel>
-78.2194738227667

> <r_i_glide_energy>
-53.9488492012024

> <r_i_glide_einternal>
5.69538831710815

> <i_i_glide_confnum>
6

> <i_i_glide_posenum>
388

> <r_i_glide_eff_state_penalty>
0

> <s_user_duplicate_titles>
CHEMBL3231_lig1554

> <i_f3d_flags>
0

> <s_m_subgroup_title>
dock_pv

> <s_m_subgroupid>
dock_pv

> <b_m_subgroup_collapsed>
1

$$$$
CHEMBL3231_lig577
                    3D
 Schrodinger Suite 2021-1.
 44 47  0  0  1  0            999 V2000
   51.4349   97.6781   30.4306 C   0  0  0  0  0  0
   51.2435   98.4188   29.2288 O   0  0  0  0  0  0
   51.3444   99.8009   29.2411 C   0  0  0  0  0  0
   51.7263  100.5267   30.3856 C   0  0  0  0  0  0
   51.7474  101.9319   30.3912 C   0  0  0  0  0  0
   51.4296  102.6059   29.2093 C   0  0  0  0  0  0
   51.0650  101.9027   28.0707 C   0  0  0  0  0  0
   51.0058  100.5059   28.0683 C   0  0  0  0  0  0
   50.5332   99.8570   26.7985 C   0  0  0  0  0  0
   49.9206  100.4778   25.7136 C   0  0  0  0  0  0
   49.6432   99.4977   24.8107 N   0  0  0  0  0  0
   50.0441   98.2939   25.2113 N   0  0  0  0  0  0
   50.5794   98.5100   26.3907 C   0  0  0  0  0  0
   52.0255  102.7335   31.6418 C   0  0  0  0  0  0
   51.6431  103.9024   31.7245 O   0  0  0  0  0  0
   52.6580  102.1053   32.6487 N   0  0  0  0  0  0
   52.8968  102.6943   33.9671 C   0  0  0  0  0  0
   54.0860  103.6481   34.0274 C   0  0  0  0  0  0
   54.1877  102.2864   34.6522 C   0  0  0  0  0  0
   51.6329  103.0023   34.7880 C   0  0  0  0  0  0
   51.2731  104.3278   35.0655 C   0  0  0  0  0  0
   50.1218  104.6140   35.8010 C   0  0  0  0  0  0
   49.3201  103.5763   36.2731 C   0  0  0  0  0  0
   49.6681  102.2538   36.0074 C   0  0  0  0  0  0
   50.8155  101.9621   35.2670 C   0  0  0  0  0  0
   51.2016  100.3029   34.9687 Cl  0  0  0  0  0  0
   51.2453   96.6229   30.2360 H   0  0  0  0  0  0
   52.4572   97.7681   30.8020 H   0  0  0  0  0  0
   50.7384   97.9928   31.2093 H   0  0  0  0  0  0
   51.9629   99.9965   31.2951 H   0  0  0  0  0  0
   51.4458  103.6861   29.1676 H   0  0  0  0  0  0
   50.8135  102.4682   27.1872 H   0  0  0  0  0  0
   49.6493  101.5024   25.5119 H   0  0  0  0  0  0
   49.1999   99.6494   23.9085 H   0  0  0  0  0  0
   50.9994   97.6913   26.9559 H   0  0  0  0  0  0
   53.0977  101.2177   32.4618 H   0  0  0  0  0  0
   54.6304  103.8574   33.1062 H   0  0  0  0  0  0
   54.0540  104.5182   34.6825 H   0  0  0  0  0  0
   54.1876  102.1968   35.7376 H   0  0  0  0  0  0
   54.8209  101.5329   34.1828 H   0  0  0  0  0  0
   51.8686  105.1490   34.6920 H   0  0  0  0  0  0
   49.8553  105.6411   36.0040 H   0  0  0  0  0  0
   48.4263  103.7941   36.8412 H   0  0  0  0  0  0
   49.0440  101.4533   36.3795 H   0  0  0  0  0  0
  1  2  1  0  0  0
  1 27  1  0  0  0
  1 28  1  0  0  0
  1 29  1  0  0  0
  2  3  1  0  0  0
  3  4  2  0  0  0
  3  8  1  0  0  0
  4  5  1  0  0  0
  4 30  1  0  0  0
  5  6  2  0  0  0
  5 14  1  0  0  0
  6  7  1  0  0  0
  6 31  1  0  0  0
  7  8  2  0  0  0
  7 32  1  0  0  0
  8  9  1  0  0  0
  9 10  2  0  0  0
  9 13  1  0  0  0
 10 11  1  0  0  0
 10 33  1  0  0  0
 11 12  1  0  0  0
 11 34  1  0  0  0
 12 13  2  0  0  0
 13 35  1  0  0  0
 14 15  2  0  0  0
 14 16  1  0  0  0
 16 17  1  0  0  0
 16 36  1  0  0  0
 17 18  1  0  0  0
 17 19  1  0  0  0
 17 20  1  0  0  0
 18 19  1  0  0  0
 18 37  1  0  0  0
 18 38  1  0  0  0
 19 39  1  0  0  0
 19 40  1  0  0  0
 20 21  2  0  0  0
 20 25  1  0  0  0
 21 22  1  0  0  0
 21 41  1  0  0  0
 22 23  2  0  0  0
 22 42  1  0  0  0
 23 24  1  0  0  0
 23 43  1  0  0  0
 24 25  2  0  0  0
 24 44  1  0  0  0
 25 26  1  0  0  0
M  END
> <s_m_entry_id>
27981

> <s_m_entry_name>
dock_pv.142

> <s_m_Source_Path>
/home/csk/Desktop/cluster/DUD-E-result/rock1

> <s_m_Source_File>
dock_pv.maegz

> <i_m_Source_File_Index>
142

> <chembl_id>
CHEMBL3923391

> <chembl_pref_name>
None

> <i_lp_mmshare_version>
53161

> <r_lp_tautomer_probability>
0.5

> <s_lp_Force_Field>
OPLS_2005

> <r_lp_Energy>
37.563427

> <b_lp_Chiralities_Consistent>
1

> <s_lp_Variant>
CHEMBL3231_lig577-1

> <s_i_glide_gridfile>
glide-grid_2etr

> <i_i_glide_lignum>
856

> <i_i_glide_rotatable_bonds>
6

> <r_i_docking_score>
-8.26467499291005

> <r_i_glide_ligand_efficiency>
-0.317872115111925

> <r_i_glide_ligand_efficiency_sa>
-0.941694890252702

> <r_i_glide_ligand_efficiency_ln>
-1.94093180347438

> <r_i_glide_gscore>
-8.26467499291005

> <r_i_glide_lipo>
-2.89768456940148

> <r_i_glide_hbond>
-0.679758169278748

> <r_i_glide_metal>
0

> <r_i_glide_rewards>
-1.87694610037051

> <r_i_glide_evdw>
-42.0108108520508

> <r_i_glide_ecoul>
-7.68007135391235

> <r_i_glide_erotb>
0.498312790976992

> <r_i_glide_esite>
-0.0560476991469091

> <r_i_glide_emodel>
-73.5176512460476

> <r_i_glide_energy>
-49.6908822059631

> <r_i_glide_einternal>
1.57694971561432

> <i_i_glide_confnum>
70

> <i_i_glide_posenum>
90

> <r_i_glide_eff_state_penalty>
0

> <s_user_duplicate_titles>
CHEMBL3231_lig577

> <i_f3d_flags>
0

> <s_m_subgroup_title>
dock_pv

> <s_m_subgroupid>
dock_pv

> <b_m_subgroup_collapsed>
1

$$$$
CHEMBL3231_lig400
                    3D
 Schrodinger Suite 2021-1.
 52 54  0  0  1  0            999 V2000
   52.1263  103.3279   31.1898 N   0  0  0  0  0  0
   52.0405  103.0266   32.4986 C   0  0  0  0  0  0
   51.6307  101.9536   32.9427 O   0  0  0  0  0  0
   52.3845  104.0708   33.2716 N   0  0  0  0  0  0
   52.2050  104.1524   34.7287 C   0  0  1  0  0  0
   52.9620  105.3711   35.3097 C   0  0  0  0  0  0
   54.5040  105.2851   35.1756 C   0  0  0  0  0  0
   50.7275  104.1112   35.1622 C   0  0  0  0  0  0
   50.1661  102.8985   35.5791 C   0  0  0  0  0  0
   48.8441  102.8470   36.0099 C   0  0  0  0  0  0
   48.0823  104.0123   36.0385 C   0  0  0  0  0  0
   48.6344  105.2294   35.6492 C   0  0  0  0  0  0
   49.9543  105.2791   35.2116 C   0  0  0  0  0  0
   55.2429  106.4817   35.5987 N   0  0  0  0  0  0
   55.0073  107.6192   34.7086 C   0  0  0  0  0  0
   55.0054  106.8560   36.9923 C   0  0  0  0  0  0
   51.7351  102.4959   30.1297 C   0  0  0  0  0  0
   51.0337  103.0831   29.0781 C   0  0  0  0  0  0
   50.6115  102.3035   28.0062 C   0  0  0  0  0  0
   50.9136  100.9399   27.9487 C   0  0  0  0  0  0
   51.6368  100.3579   28.9964 C   0  0  0  0  0  0
   52.0449  101.1288   30.0839 C   0  0  0  0  0  0
   49.6777   99.4823   24.8111 N   0  0  0  0  0  0
   50.0436   98.3467   25.4078 N   0  0  0  0  0  0
   50.5213   98.7372   26.5700 C   0  0  0  0  0  0
   50.4740  100.1320   26.7668 C   0  0  0  0  0  0
   49.9133  100.5857   25.5798 C   0  0  0  0  0  0
   52.4351  104.2547   30.9396 H   0  0  0  0  0  0
   52.9179  104.8238   32.8554 H   0  0  0  0  0  0
   52.6903  103.2733   35.1623 H   0  0  0  0  0  0
   52.5952  106.2948   34.8625 H   0  0  0  0  0  0
   52.7221  105.4128   36.3731 H   0  0  0  0  0  0
   54.8603  104.4389   35.7645 H   0  0  0  0  0  0
   54.7835  105.0246   34.1531 H   0  0  0  0  0  0
   50.7510  101.9907   35.5608 H   0  0  0  0  0  0
   48.4138  101.9075   36.3233 H   0  0  0  0  0  0
   47.0548  103.9709   36.3693 H   0  0  0  0  0  0
   48.0422  106.1308   35.6872 H   0  0  0  0  0  0
   50.3677  106.2304   34.9103 H   0  0  0  0  0  0
   55.6432  108.4601   34.9815 H   0  0  0  0  0  0
   55.2343  107.3575   33.6730 H   0  0  0  0  0  0
   53.9757  107.9705   34.7468 H   0  0  0  0  0  0
   55.6764  107.6620   37.2919 H   0  0  0  0  0  0
   53.9841  107.2046   37.1531 H   0  0  0  0  0  0
   55.1893  106.0108   37.6588 H   0  0  0  0  0  0
   50.8026  104.1374   29.0860 H   0  0  0  0  0  0
   50.0580  102.7769   27.2083 H   0  0  0  0  0  0
   51.8891   99.3084   28.9732 H   0  0  0  0  0  0
   52.6078  100.6639   30.8806 H   0  0  0  0  0  0
   49.2663   99.5040   23.8829 H   0  0  0  0  0  0
   50.9002   98.0149   27.2780 H   0  0  0  0  0  0
   49.6547  101.5693   25.2189 H   0  0  0  0  0  0
  1  2  1  0  0  0
  1 17  1  0  0  0
  1 28  1  0  0  0
  2  3  2  0  0  0
  2  4  1  0  0  0
  4  5  1  0  0  0
  4 29  1  0  0  0
  5  6  1  0  0  0
  5  8  1  0  0  0
  5 30  1  0  0  0
  6  7  1  0  0  0
  6 31  1  0  0  0
  6 32  1  0  0  0
  7 14  1  0  0  0
  7 33  1  0  0  0
  7 34  1  0  0  0
  8  9  1  0  0  0
  8 13  2  0  0  0
  9 10  2  0  0  0
  9 35  1  0  0  0
 10 11  1  0  0  0
 10 36  1  0  0  0
 11 12  2  0  0  0
 11 37  1  0  0  0
 12 13  1  0  0  0
 12 38  1  0  0  0
 13 39  1  0  0  0
 14 15  1  0  0  0
 14 16  1  0  0  0
 15 40  1  0  0  0
 15 41  1  0  0  0
 15 42  1  0  0  0
 16 43  1  0  0  0
 16 44  1  0  0  0
 16 45  1  0  0  0
 17 18  1  0  0  0
 17 22  2  0  0  0
 18 19  2  0  0  0
 18 46  1  0  0  0
 19 20  1  0  0  0
 19 47  1  0  0  0
 20 21  2  0  0  0
 20 26  1  0  0  0
 21 22  1  0  0  0
 21 48  1  0  0  0
 22 49  1  0  0  0
 23 24  1  0  0  0
 23 27  1  0  0  0
 23 50  1  0  0  0
 24 25  2  0  0  0
 25 26  1  0  0  0
 25 51  1  0  0  0
 26 27  2  0  0  0
 27 52  1  0  0  0
M  END
> <s_m_entry_id>
27983

> <s_m_entry_name>
dock_pv.144

> <s_m_Source_Path>
/home/csk/Desktop/cluster/DUD-E-result/rock1

> <s_m_Source_File>
dock_pv.maegz

> <i_m_Source_File_Index>
144

> <chembl_id>
CHEMBL2332059

> <chembl_pref_name>
None

> <i_lp_mmshare_version>
53161

> <r_lp_tautomer_probability>
0.5

> <s_lp_Force_Field>
OPLS_2005

> <r_lp_Energy>
20.815249

> <b_lp_Chiralities_Consistent>
1

> <s_lp_Variant>
CHEMBL3231_lig400-2

> <s_i_glide_gridfile>
glide-grid_2etr

> <i_i_glide_lignum>
562

> <i_i_glide_rotatable_bonds>
9

> <r_i_docking_score>
-8.25539031455305

> <r_i_glide_ligand_efficiency>
-0.305755196835298

> <r_i_glide_ligand_efficiency_sa>
-0.917265589498176

> <r_i_glide_ligand_efficiency_ln>
-1.92171876448176

> <r_i_glide_gscore>
-8.25539031455305

> <r_i_glide_lipo>
-2.84699568016903

> <r_i_glide_hbond>
-0.566818721397425

> <r_i_glide_metal>
0

> <r_i_glide_rewards>
-1.88124396743843

> <r_i_glide_evdw>
-43.6955909729004

> <r_i_glide_ecoul>
-8.90854358673096

> <r_i_glide_erotb>
0.712691533419229

> <r_i_glide_esite>
-0.151962392312734

> <r_i_glide_emodel>
-78.1526635882447

> <r_i_glide_energy>
-52.6041345596313

> <r_i_glide_einternal>
6.7527871131897

> <i_i_glide_confnum>
6

> <i_i_glide_posenum>
370

> <r_i_glide_eff_state_penalty>
0

> <s_user_duplicate_titles>
CHEMBL3231_lig400

> <i_f3d_flags>
0

> <s_m_subgroup_title>
dock_pv

> <s_m_subgroupid>
dock_pv

> <b_m_subgroup_collapsed>
1

$$$$
CHEMBL3231_lig2073
                    3D
 Schrodinger Suite 2021-1.
 40 42  0  0  1  0            999 V2000
   51.5520   99.5199   29.1023 C   0  0  0  0  0  0
   52.1329  100.6922   29.2957 N   0  0  0  0  0  0
   52.6673  100.7842   30.4861 C   0  0  0  0  0  0
   52.4598   99.4142   31.5201 S   0  0  0  0  0  0
   51.5995   98.6642   30.2131 C   0  0  0  0  0  0
   53.4381  101.8393   30.9028 N   0  0  0  0  0  0
   52.9292  102.9719   31.4207 C   0  0  0  0  0  0
   53.9714  104.0144   31.8253 C   0  0  0  0  0  0
   51.7258  103.2047   31.5731 O   0  0  0  0  0  0
   54.4362  103.9253   33.2801 C   0  0  0  0  0  0
   54.5579  105.1032   34.0233 C   0  0  0  0  0  0
   55.0528  105.0897   35.3359 C   0  0  0  0  0  0
   55.4197  103.8672   35.9006 C   0  0  0  0  0  0
   55.3182  102.6855   35.1677 C   0  0  0  0  0  0
   54.8379  102.7146   33.8593 C   0  0  0  0  0  0
   50.9540   99.1974   27.7727 C   0  0  0  0  0  0
   50.9016   97.8644   27.3631 C   0  0  0  0  0  0
   50.4426   97.5513   26.0867 C   0  0  0  0  0  0
   49.9876   98.4918   25.2271 N   0  0  0  0  0  0
   49.9679   99.7751   25.6573 C   0  0  0  0  0  0
   50.4606  100.1754   26.8999 C   0  0  0  0  0  0
   55.2401  106.2200   36.1087 O   0  0  0  0  0  0
   54.9196  107.4973   35.5589 C   0  0  0  0  0  0
   49.3894  100.7027   24.8108 N   0  0  0  0  0  0
   51.2052   97.6640   30.3189 H   0  0  0  0  0  0
   54.4413  101.7467   30.8145 H   0  0  0  0  0  0
   53.5812  105.0099   31.6082 H   0  0  0  0  0  0
   54.8434  103.9025   31.1835 H   0  0  0  0  0  0
   54.2768  106.0354   33.5611 H   0  0  0  0  0  0
   55.8034  103.8352   36.9096 H   0  0  0  0  0  0
   55.6267  101.7481   35.6073 H   0  0  0  0  0  0
   54.7934  101.7914   33.3010 H   0  0  0  0  0  0
   51.2441   97.0749   28.0111 H   0  0  0  0  0  0
   50.4435   96.5282   25.7405 H   0  0  0  0  0  0
   50.4483  101.2160   27.1885 H   0  0  0  0  0  0
   55.1286  108.2719   36.2966 H   0  0  0  0  0  0
   55.5213  107.7173   34.6749 H   0  0  0  0  0  0
   53.8627  107.5686   35.2973 H   0  0  0  0  0  0
   49.3386  101.6720   25.0842 H   0  0  0  0  0  0
   49.0655  100.3933   23.8968 H   0  0  0  0  0  0
  1  2  1  0  0  0
  1  5  2  0  0  0
  1 16  1  0  0  0
  2  3  2  0  0  0
  3  4  1  0  0  0
  3  6  1  0  0  0
  4  5  1  0  0  0
  5 25  1  0  0  0
  6  7  1  0  0  0
  6 26  1  0  0  0
  7  8  1  0  0  0
  7  9  2  0  0  0
  8 10  1  0  0  0
  8 27  1  0  0  0
  8 28  1  0  0  0
 10 11  2  0  0  0
 10 15  1  0  0  0
 11 12  1  0  0  0
 11 29  1  0  0  0
 12 13  2  0  0  0
 12 22  1  0  0  0
 13 14  1  0  0  0
 13 30  1  0  0  0
 14 15  2  0  0  0
 14 31  1  0  0  0
 15 32  1  0  0  0
 16 17  2  0  0  0
 16 21  1  0  0  0
 17 18  1  0  0  0
 17 33  1  0  0  0
 18 19  2  0  0  0
 18 34  1  0  0  0
 19 20  1  0  0  0
 20 21  2  0  0  0
 20 24  1  0  0  0
 21 35  1  0  0  0
 22 23  1  0  0  0
 23 36  1  0  0  0
 23 37  1  0  0  0
 23 38  1  0  0  0
 24 39  1  0  0  0
 24 40  1  0  0  0
M  END
> <s_m_entry_id>
27984

> <s_m_entry_name>
dock_pv.145

> <s_m_Source_Path>
/home/csk/Desktop/cluster/DUD-E-result/rock1

> <s_m_Source_File>
dock_pv.maegz

> <i_m_Source_File_Index>
145

> <chembl_id>
CHEMBL3581140

> <chembl_pref_name>
None

> <i_lp_mmshare_version>
53161

> <r_lp_tautomer_probability>
0.999000261054364

> <s_lp_Force_Field>
OPLS_2005

> <r_lp_Energy>
11.433736

> <b_lp_Chiralities_Consistent>
1

> <s_lp_Variant>
CHEMBL3231_lig2073-1

> <s_i_glide_gridfile>
glide-grid_2etr

> <i_i_glide_lignum>
3000

> <i_i_glide_rotatable_bonds>
6

> <r_i_docking_score>
-8.2548918209834

> <r_i_glide_ligand_efficiency>
-0.343953825874308

> <r_i_glide_ligand_efficiency_sa>
-0.992134514094602

> <r_i_glide_ligand_efficiency_ln>
-1.97577440506456

> <r_i_glide_gscore>
-8.2548918209834

> <r_i_glide_lipo>
-1.96174582803375

> <r_i_glide_hbond>
-0.63865518407385

> <r_i_glide_metal>
0

> <r_i_glide_rewards>
-2.34150993504343

> <r_i_glide_evdw>
-38.7497825622559

> <r_i_glide_ecoul>
-12.4845561981201

> <r_i_glide_erotb>
0.572000022055048

> <r_i_glide_esite>
-0.0748083380566084

> <r_i_glide_emodel>
-72.332589601779

> <r_i_glide_energy>
-51.234338760376

> <r_i_glide_einternal>
8.0275936126709

> <i_i_glide_confnum>
9

> <i_i_glide_posenum>
138

> <r_i_glide_eff_state_penalty>
0

> <s_user_duplicate_titles>
CHEMBL3231_lig2073

> <i_f3d_flags>
0

> <s_m_subgroup_title>
dock_pv

> <s_m_subgroupid>
dock_pv

> <b_m_subgroup_collapsed>
1

$$$$
CHEMBL3231_lig779
                    3D
 Schrodinger Suite 2021-1.
 43 45  0  0  1  0            999 V2000
   51.4253   97.6672   30.4196 C   0  0  0  0  0  0
   51.2515   98.4151   29.2183 O   0  0  0  0  0  0
   51.3640   99.7954   29.2330 C   0  0  0  0  0  0
   51.7573  100.5143   30.3789 C   0  0  0  0  0  0
   51.7893  101.9188   30.3941 C   0  0  0  0  0  0
   51.4682  102.6019   29.2180 C   0  0  0  0  0  0
   51.0940  101.9035   28.0760 C   0  0  0  0  0  0
   51.0258  100.5076   28.0654 C   0  0  0  0  0  0
   50.5438   99.8642   26.7953 C   0  0  0  0  0  0
   49.9212  100.4852   25.7158 C   0  0  0  0  0  0
   49.6432   99.5050   24.8104 N   0  0  0  0  0  0
   50.0431   98.3022   25.2124 N   0  0  0  0  0  0
   50.5868   98.5167   26.3876 C   0  0  0  0  0  0
   52.0725  102.7002   31.6582 C   0  0  0  0  0  0
   51.6431  103.8507   31.7944 O   0  0  0  0  0  0
   52.7593  102.0583   32.6212 N   0  0  0  0  0  0
   52.9302  102.5254   33.9995 C   0  0  2  0  0  0
   53.9954  101.6774   34.7162 C   0  0  0  0  0  0
   51.6135  102.5911   34.8013 C   0  0  0  0  0  0
   51.3162  103.7592   35.5211 C   0  0  0  0  0  0
   52.1697  104.8063   35.5140 F   0  0  0  0  0  0
   50.1357  103.8672   36.2555 C   0  0  0  0  0  0
   49.2374  102.8058   36.2954 C   0  0  0  0  0  0
   49.5270  101.6284   35.6112 C   0  0  0  0  0  0
   50.7086  101.5078   34.8774 C   0  0  0  0  0  0
   51.0040   99.9878   34.1033 Cl  0  0  0  0  0  0
   51.2401   96.6122   30.2157 H   0  0  0  0  0  0
   52.4449   97.7532   30.8003 H   0  0  0  0  0  0
   50.7240   97.9798   31.1957 H   0  0  0  0  0  0
   51.9900   99.9743   31.2836 H   0  0  0  0  0  0
   51.4926  103.6827   29.1834 H   0  0  0  0  0  0
   50.8422  102.4743   27.1970 H   0  0  0  0  0  0
   49.6431  101.5087   25.5180 H   0  0  0  0  0  0
   49.1957   99.6564   23.9119 H   0  0  0  0  0  0
   51.0099   97.6959   26.9474 H   0  0  0  0  0  0
   53.2569  101.2193   32.3675 H   0  0  0  0  0  0
   53.3411  103.5349   33.9061 H   0  0  0  0  0  0
   54.1977  102.0647   35.7145 H   0  0  0  0  0  0
   53.6920  100.6368   34.8219 H   0  0  0  0  0  0
   54.9393  101.6876   34.1700 H   0  0  0  0  0  0
   49.9230  104.7792   36.7933 H   0  0  0  0  0  0
   48.3221  102.8890   36.8623 H   0  0  0  0  0  0
   48.8370  100.7995   35.6636 H   0  0  0  0  0  0
  1  2  1  0  0  0
  1 27  1  0  0  0
  1 28  1  0  0  0
  1 29  1  0  0  0
  2  3  1  0  0  0
  3  4  2  0  0  0
  3  8  1  0  0  0
  4  5  1  0  0  0
  4 30  1  0  0  0
  5  6  2  0  0  0
  5 14  1  0  0  0
  6  7  1  0  0  0
  6 31  1  0  0  0
  7  8  2  0  0  0
  7 32  1  0  0  0
  8  9  1  0  0  0
  9 10  2  0  0  0
  9 13  1  0  0  0
 10 11  1  0  0  0
 10 33  1  0  0  0
 11 12  1  0  0  0
 11 34  1  0  0  0
 12 13  2  0  0  0
 13 35  1  0  0  0
 14 15  2  0  0  0
 14 16  1  0  0  0
 16 17  1  0  0  0
 16 36  1  0  0  0
 17 18  1  0  0  0
 17 19  1  0  0  0
 17 37  1  0  0  0
 18 38  1  0  0  0
 18 39  1  0  0  0
 18 40  1  0  0  0
 19 20  2  0  0  0
 19 25  1  0  0  0
 20 21  1  0  0  0
 20 22  1  0  0  0
 22 23  2  0  0  0
 22 41  1  0  0  0
 23 24  1  0  0  0
 23 42  1  0  0  0
 24 25  2  0  0  0
 24 43  1  0  0  0
 25 26  1  0  0  0
M  END
> <s_m_entry_id>
27985

> <s_m_entry_name>
dock_pv.146

> <s_m_Source_Path>
/home/csk/Desktop/cluster/DUD-E-result/rock1

> <s_m_Source_File>
dock_pv.maegz

> <i_m_Source_File_Index>
146

> <chembl_id>
CHEMBL3926244

> <chembl_pref_name>
None

> <i_lp_mmshare_version>
53161

> <r_lp_tautomer_probability>
0.5

> <s_lp_Force_Field>
OPLS_2005

> <r_lp_Energy>
22.698603

> <b_lp_Chiralities_Consistent>
1

> <s_lp_Variant>
CHEMBL3231_lig779-1

> <s_i_glide_gridfile>
glide-grid_2etr

> <i_i_glide_lignum>
1101

> <i_i_glide_rotatable_bonds>
6

> <r_i_docking_score>
-8.25240285707804

> <r_i_glide_ligand_efficiency>
-0.317400109887617

> <r_i_glide_ligand_efficiency_sa>
-0.94029657663294

> <r_i_glide_ligand_efficiency_ln>
-1.93804973264239

> <r_i_glide_gscore>
-8.25240285707804

> <r_i_glide_lipo>
-2.97907077176807

> <r_i_glide_hbond>
-0.674810863257908

> <r_i_glide_metal>
0

> <r_i_glide_rewards>
-1.81718703272438

> <r_i_glide_evdw>
-41.4281768798828

> <r_i_glide_ecoul>
-6.86943483352661

> <r_i_glide_erotb>
0.387322339666396

> <r_i_glide_esite>
-0.0668324599709375

> <r_i_glide_emodel>
-70.9711377496572

> <r_i_glide_energy>
-48.2976117134094

> <r_i_glide_einternal>
2.48762273788452

> <i_i_glide_confnum>
12

> <i_i_glide_posenum>
227

> <r_i_glide_eff_state_penalty>
0

> <s_user_duplicate_titles>
CHEMBL3231_lig779

> <i_f3d_flags>
0

> <s_m_subgroup_title>
dock_pv

> <s_m_subgroupid>
dock_pv

> <b_m_subgroup_collapsed>
1

$$$$
CHEMBL3231_lig769
                    3D
 Schrodinger Suite 2021-1.
 54 56  0  0  1  0            999 V2000
   50.2454  104.6834   28.4867 C   0  0  0  0  0  0
   50.8374  103.9038   29.5267 O   0  0  0  0  0  0
   51.1015  102.5567   29.3379 C   0  0  0  0  0  0
   50.7745  101.9079   28.1359 C   0  0  0  0  0  0
   51.0185  100.5500   27.9427 C   0  0  0  0  0  0
   51.6434   99.8291   28.9573 C   0  0  0  0  0  0
   51.9741  100.4480   30.1562 C   0  0  0  0  0  0
   51.6920  101.8087   30.3861 C   0  0  0  0  0  0
   51.9673  102.4222   31.7517 C   0  0  0  0  0  0
   51.6425  103.5775   32.0253 O   0  0  0  0  0  0
   52.5244  101.6162   32.6740 N   0  0  0  0  0  0
   52.7895  101.9273   34.0807 C   0  0  2  0  0  0
   53.5806  100.7897   34.7914 C   0  0  0  0  0  0
   54.6786  100.0728   33.9611 C   0  0  0  0  0  0
   54.1500   99.2542   32.8590 N   0  0  0  0  0  0
   55.2432   98.8467   31.9794 C   0  0  0  0  0  0
   53.4507   98.0606   33.3347 C   0  0  0  0  0  0
   51.5331  102.2997   34.8800 C   0  0  0  0  0  0
   50.4331  101.4341   34.8941 C   0  0  0  0  0  0
   49.2884  101.7682   35.6116 C   0  0  0  0  0  0
   49.2421  102.9670   36.3183 C   0  0  0  0  0  0
   50.3310  103.8365   36.3111 C   0  0  0  0  0  0
   51.4772  103.5024   35.5909 C   0  0  0  0  0  0
   50.5726   99.8816   26.6886 C   0  0  0  0  0  0
   50.0665  100.4659   25.5354 C   0  0  0  0  0  0
   49.7609   99.4353   24.6981 N   0  0  0  0  0  0
   50.0432   98.2387   25.2121 N   0  0  0  0  0  0
   50.5313   98.5066   26.3985 C   0  0  0  0  0  0
   50.1615  105.7194   28.8112 H   0  0  0  0  0  0
   50.8448  104.6809   27.5757 H   0  0  0  0  0  0
   49.2400  104.3321   28.2575 H   0  0  0  0  0  0
   50.2974  102.4530   27.3381 H   0  0  0  0  0  0
   51.8566   98.7782   28.8382 H   0  0  0  0  0  0
   52.4267   99.8256   30.9134 H   0  0  0  0  0  0
   52.9934  100.7755   32.3530 H   0  0  0  0  0  0
   53.4531  102.7971   34.0643 H   0  0  0  0  0  0
   54.0683  101.2258   35.6645 H   0  0  0  0  0  0
   52.8967  100.0479   35.2035 H   0  0  0  0  0  0
   55.3170  100.8468   33.5308 H   0  0  0  0  0  0
   55.3209   99.4762   34.6124 H   0  0  0  0  0  0
   54.8745   98.2713   31.1288 H   0  0  0  0  0  0
   55.7636   99.7163   31.5748 H   0  0  0  0  0  0
   55.9765   98.2334   32.5064 H   0  0  0  0  0  0
   53.1115   97.4493   32.4972 H   0  0  0  0  0  0
   54.0928   97.4416   33.9636 H   0  0  0  0  0  0
   52.5621   98.3237   33.9069 H   0  0  0  0  0  0
   50.4673  100.5043   34.3463 H   0  0  0  0  0  0
   48.4427  101.0990   35.6235 H   0  0  0  0  0  0
   48.3536  103.2215   36.8768 H   0  0  0  0  0  0
   50.2905  104.7670   36.8584 H   0  0  0  0  0  0
   52.3179  104.1809   35.5822 H   0  0  0  0  0  0
   49.8812  101.4884   25.2368 H   0  0  0  0  0  0
   49.3500   99.5460   23.7756 H   0  0  0  0  0  0
   50.8398   97.7087   27.0576 H   0  0  0  0  0  0
  1  2  1  0  0  0
  1 29  1  0  0  0
  1 30  1  0  0  0
  1 31  1  0  0  0
  2  3  1  0  0  0
  3  4  2  0  0  0
  3  8  1  0  0  0
  4  5  1  0  0  0
  4 32  1  0  0  0
  5  6  2  0  0  0
  5 24  1  0  0  0
  6  7  1  0  0  0
  6 33  1  0  0  0
  7  8  2  0  0  0
  7 34  1  0  0  0
  8  9  1  0  0  0
  9 10  2  0  0  0
  9 11  1  0  0  0
 11 12  1  0  0  0
 11 35  1  0  0  0
 12 13  1  0  0  0
 12 18  1  0  0  0
 12 36  1  0  0  0
 13 14  1  0  0  0
 13 37  1  0  0  0
 13 38  1  0  0  0
 14 15  1  0  0  0
 14 39  1  0  0  0
 14 40  1  0  0  0
 15 16  1  0  0  0
 15 17  1  0  0  0
 16 41  1  0  0  0
 16 42  1  0  0  0
 16 43  1  0  0  0
 17 44  1  0  0  0
 17 45  1  0  0  0
 17 46  1  0  0  0
 18 19  2  0  0  0
 18 23  1  0  0  0
 19 20  1  0  0  0
 19 47  1  0  0  0
 20 21  2  0  0  0
 20 48  1  0  0  0
 21 22  1  0  0  0
 21 49  1  0  0  0
 22 23  2  0  0  0
 22 50  1  0  0  0
 23 51  1  0  0  0
 24 25  2  0  0  0
 24 28  1  0  0  0
 25 26  1  0  0  0
 25 52  1  0  0  0
 26 27  1  0  0  0
 26 53  1  0  0  0
 27 28  2  0  0  0
 28 54  1  0  0  0
M  END
> <s_m_entry_id>
27987

> <s_m_entry_name>
dock_pv.148

> <s_m_Source_Path>
/home/csk/Desktop/cluster/DUD-E-result/rock1

> <s_m_Source_File>
dock_pv.maegz

> <i_m_Source_File_Index>
148

> <chembl_id>
CHEMBL3975905

> <chembl_pref_name>
None

> <i_lp_mmshare_version>
53161

> <r_lp_tautomer_probability>
0.5

> <s_lp_Force_Field>
OPLS_2005

> <r_lp_Energy>
30.285656

> <b_lp_Chiralities_Consistent>
1

> <s_lp_Variant>
CHEMBL3231_lig769-1

> <s_i_glide_gridfile>
glide-grid_2etr

> <i_i_glide_lignum>
1089

> <i_i_glide_rotatable_bonds>
9

> <r_i_docking_score>
-8.24448579558586

> <r_i_glide_ligand_efficiency>
-0.294445921270924

> <r_i_glide_ligand_efficiency_sa>
-0.894111236351935

> <r_i_glide_ligand_efficiency_ln>
-1.90306939024271

> <r_i_glide_gscore>
-8.24448579558586

> <r_i_glide_lipo>
-2.90904114123457

> <r_i_glide_hbond>
-0.731020896076736

> <r_i_glide_metal>
0

> <r_i_glide_rewards>
-1.74216137967577

> <r_i_glide_evdw>
-45.1817932128906

> <r_i_glide_ecoul>
-7.51784038543701

> <r_i_glide_erotb>
0.568243482250614

> <r_i_glide_esite>
-0.0437401423893186

> <r_i_glide_emodel>
-78.7219823355388

> <r_i_glide_energy>
-52.6996335983276

> <r_i_glide_einternal>
2.26507258415222

> <i_i_glide_confnum>
13

> <i_i_glide_posenum>
227

> <r_i_glide_eff_state_penalty>
0

> <s_user_duplicate_titles>
CHEMBL3231_lig769

> <i_f3d_flags>
0

> <s_m_subgroup_title>
dock_pv

> <s_m_subgroupid>
dock_pv

> <b_m_subgroup_collapsed>
1

$$$$
CHEMBL3231_lig1928
                    3D
 Schrodinger Suite 2021-1.
 44 47  0  0  1  0            999 V2000
   53.6430  104.3891   31.9916 O   0  0  0  0  0  0
   49.6432  100.7029   24.4111 O   0  0  0  0  0  0
   56.4431  100.6264   35.5805 O   0  0  0  0  0  0
   50.8975   97.4386   29.6406 N   0  0  0  0  0  0
   51.4159   97.1048   30.8107 N   0  0  0  0  0  0
   52.6353   97.8572   32.6496 N   0  0  0  0  0  0
   51.9197   99.2174   30.5746 C   0  0  0  0  0  0
   51.2886   98.6739   29.4149 C   0  0  0  0  0  0
   52.0839   98.1131   31.4198 C   0  0  0  0  0  0
   52.3386  100.6150   30.8894 C   0  0  0  0  0  0
   50.9427   99.2603   28.0738 C   0  0  0  0  0  0
   53.0422  101.3967   29.9745 C   0  0  0  0  0  0
   52.0361  101.1335   32.1518 C   0  0  0  0  0  0
   53.6159   98.5678   33.3450 C   0  0  0  0  0  0
   50.6505  100.6178   27.9144 C   0  0  0  0  0  0
   50.8454   98.4038   26.9643 C   0  0  0  0  0  0
   53.4849  102.6701   30.3291 C   0  0  0  0  0  0
   52.4667  102.4045   32.5090 C   0  0  0  0  0  0
   53.2026  103.1587   31.6027 C   0  0  0  0  0  0
   50.2548  101.1033   26.6719 C   0  0  0  0  0  0
   50.4194   98.8823   25.7325 C   0  0  0  0  0  0
   50.1128  100.2287   25.5988 C   0  0  0  0  0  0
   54.6861   99.1816   32.6936 C   0  0  0  0  0  0
   53.5173   98.6184   34.7360 C   0  0  0  0  0  0
   55.5280   99.9398   34.8256 C   0  0  0  0  0  0
   55.6459   99.8594   33.4373 C   0  0  0  0  0  0
   54.4646   99.3194   35.4752 C   0  0  0  0  0  0
   54.2929  104.8030   31.4095 H   0  0  0  0  0  0
   49.3776  100.0566   23.7465 H   0  0  0  0  0  0
   57.3254  100.7507   35.1958 H   0  0  0  0  0  0
   51.2910   96.1854   31.2269 H   0  0  0  0  0  0
   52.3630   97.0137   33.1346 H   0  0  0  0  0  0
   53.2430  101.0047   28.9904 H   0  0  0  0  0  0
   51.4861  100.5407   32.8681 H   0  0  0  0  0  0
   50.6904  101.2943   28.7538 H   0  0  0  0  0  0
   51.0685   97.3511   27.0608 H   0  0  0  0  0  0
   54.0506  103.2628   29.6248 H   0  0  0  0  0  0
   52.2540  102.7934   33.4937 H   0  0  0  0  0  0
   50.0162  102.1498   26.5509 H   0  0  0  0  0  0
   50.3190   98.2088   24.8964 H   0  0  0  0  0  0
   54.7880   99.1218   31.6195 H   0  0  0  0  0  0
   52.7000   98.1342   35.2485 H   0  0  0  0  0  0
   56.4755  100.3028   32.9161 H   0  0  0  0  0  0
   54.3810   99.3757   36.5504 H   0  0  0  0  0  0
  1 19  1  0  0  0
  1 28  1  0  0  0
  2 22  1  0  0  0
  2 29  1  0  0  0
  3 25  1  0  0  0
  3 30  1  0  0  0
  4  5  1  0  0  0
  4  8  2  0  0  0
  5  9  1  0  0  0
  5 31  1  0  0  0
  6  9  1  0  0  0
  6 14  1  0  0  0
  6 32  1  0  0  0
  7  8  1  0  0  0
  7  9  2  0  0  0
  7 10  1  0  0  0
  8 11  1  0  0  0
 10 12  2  0  0  0
 10 13  1  0  0  0
 11 15  2  0  0  0
 11 16  1  0  0  0
 12 17  1  0  0  0
 12 33  1  0  0  0
 13 18  2  0  0  0
 13 34  1  0  0  0
 14 23  2  0  0  0
 14 24  1  0  0  0
 15 20  1  0  0  0
 15 35  1  0  0  0
 16 21  2  0  0  0
 16 36  1  0  0  0
 17 19  2  0  0  0
 17 37  1  0  0  0
 18 19  1  0  0  0
 18 38  1  0  0  0
 20 22  2  0  0  0
 20 39  1  0  0  0
 21 22  1  0  0  0
 21 40  1  0  0  0
 23 26  1  0  0  0
 23 41  1  0  0  0
 24 27  2  0  0  0
 24 42  1  0  0  0
 25 26  2  0  0  0
 25 27  1  0  0  0
 26 43  1  0  0  0
 27 44  1  0  0  0
M  END
> <s_m_entry_id>
27988

> <s_m_entry_name>
dock_pv.149

> <s_m_Source_Path>
/home/csk/Desktop/cluster/DUD-E-result/rock1

> <s_m_Source_File>
dock_pv.maegz

> <i_m_Source_File_Index>
149

> <chembl_id>
CHEMBL1969042

> <chembl_pref_name>
None

> <i_lp_mmshare_version>
53161

> <r_lp_tautomer_probability>
0.157399999843178

> <s_lp_Force_Field>
OPLS_2005

> <r_lp_Energy>
22.114744

> <b_lp_Chiralities_Consistent>
1

> <s_lp_Variant>
CHEMBL3231_lig1928-2

> <s_i_glide_gridfile>
glide-grid_2etr

> <i_i_glide_lignum>
2797

> <i_i_glide_rotatable_bonds>
7

> <r_i_docking_score>
-8.24373796290448

> <r_i_glide_ligand_efficiency>
-0.305323628255722

> <r_i_glide_ligand_efficiency_sa>
-0.915970883760868

> <r_i_glide_ligand_efficiency_ln>
-1.91900628912201

> <r_i_glide_gscore>
-8.24373796290448

> <r_i_glide_lipo>
-2.17266625189226

> <r_i_glide_hbond>
-1.09108842325562

> <r_i_glide_metal>
0

> <r_i_glide_rewards>
-1.92545316666667

> <r_i_glide_evdw>
-33.6559524536133

> <r_i_glide_ecoul>
-12.9043779373169

> <r_i_glide_erotb>
0.593614415198765

> <r_i_glide_esite>
-0.0296902230105003

> <r_i_glide_emodel>
-65.4346011651228

> <r_i_glide_energy>
-46.5603303909302

> <r_i_glide_einternal>
6.51918411254883

> <i_i_glide_confnum>
9

> <i_i_glide_posenum>
111

> <r_i_glide_eff_state_penalty>
0

> <s_user_duplicate_titles>
CHEMBL3231_lig1928,CHEMBL3231_lig1928

> <i_f3d_flags>
0

> <s_m_subgroup_title>
dock_pv

> <s_m_subgroupid>
dock_pv

> <b_m_subgroup_collapsed>
1

$$$$
CHEMBL3231_lig554
                    3D
 Schrodinger Suite 2021-1.
 41 43  0  0  1  0            999 V2000
   49.5016  108.2745   34.7862 C   0  0  0  0  0  0
   50.4420  107.2232   34.4250 N   0  0  0  0  0  0
   50.4311  105.9781   35.0750 C   0  0  0  0  0  0
   49.4135  105.5638   35.9482 C   0  0  0  0  0  0
   49.4355  104.2775   36.4936 C   0  0  0  0  0  0
   50.4627  103.3927   36.1611 C   0  0  0  0  0  0
   51.4740  103.7926   35.2816 C   0  0  0  0  0  0
   52.5911  102.8316   34.8708 C   0  0  0  0  0  0
   52.3371  102.0023   33.6778 N   0  0  0  0  0  0
   51.8536  102.4306   32.4957 C   0  0  0  0  0  0
   51.2430  103.4913   32.3608 O   0  0  0  0  0  0
   52.1030  101.5613   31.4922 N   0  0  0  0  0  0
   51.6817  101.7004   30.1701 C   0  0  0  0  0  0
   51.5358  100.6603   29.3848 N   0  0  0  0  0  0
   51.0502  100.9795   28.1895 C   0  0  0  0  0  0
   50.8421  102.3487   28.0110 C   0  0  0  0  0  0
   51.3253  103.2320   29.4069 S   0  0  0  0  0  0
   50.7349   99.9348   27.1667 C   0  0  0  0  0  0
   50.8010   98.5596   27.4466 C   0  0  0  0  0  0
   50.4474   97.6504   26.4474 C   0  0  0  0  0  0
   50.0430   98.0290   25.2125 N   0  0  0  0  0  0
   49.9956   99.3546   24.9506 C   0  0  0  0  0  0
   50.3309  100.3282   25.8838 C   0  0  0  0  0  0
   51.4735  105.1001   34.7860 C   0  0  0  0  0  0
   49.6424  109.1390   34.1368 H   0  0  0  0  0  0
   48.4704  107.9303   34.6793 H   0  0  0  0  0  0
   49.6586  108.5956   35.8177 H   0  0  0  0  0  0
   51.2737  107.4747   33.8845 H   0  0  0  0  0  0
   48.5940  106.2185   36.1977 H   0  0  0  0  0  0
   48.6473  103.9593   37.1607 H   0  0  0  0  0  0
   50.4584  102.3922   36.5660 H   0  0  0  0  0  0
   53.5160  103.3916   34.7173 H   0  0  0  0  0  0
   52.8088  102.1632   35.7055 H   0  0  0  0  0  0
   52.7869  101.0987   33.6892 H   0  0  0  0  0  0
   52.5618  100.6913   31.7194 H   0  0  0  0  0  0
   50.4423  102.8769   27.1575 H   0  0  0  0  0  0
   51.1014   98.1987   28.4206 H   0  0  0  0  0  0
   50.4841   96.5876   26.6314 H   0  0  0  0  0  0
   49.6452   99.6427   23.9762 H   0  0  0  0  0  0
   50.2551  101.3651   25.6005 H   0  0  0  0  0  0
   52.2569  105.4105   34.1086 H   0  0  0  0  0  0
  1  2  1  0  0  0
  1 25  1  0  0  0
  1 26  1  0  0  0
  1 27  1  0  0  0
  2  3  1  0  0  0
  2 28  1  0  0  0
  3  4  2  0  0  0
  3 24  1  0  0  0
  4  5  1  0  0  0
  4 29  1  0  0  0
  5  6  2  0  0  0
  5 30  1  0  0  0
  6  7  1  0  0  0
  6 31  1  0  0  0
  7  8  1  0  0  0
  7 24  2  0  0  0
  8  9  1  0  0  0
  8 32  1  0  0  0
  8 33  1  0  0  0
  9 10  1  0  0  0
  9 34  1  0  0  0
 10 11  2  0  0  0
 10 12  1  0  0  0
 12 13  1  0  0  0
 12 35  1  0  0  0
 13 14  2  0  0  0
 13 17  1  0  0  0
 14 15  1  0  0  0
 15 16  2  0  0  0
 15 18  1  0  0  0
 16 17  1  0  0  0
 16 36  1  0  0  0
 18 19  2  0  0  0
 18 23  1  0  0  0
 19 20  1  0  0  0
 19 37  1  0  0  0
 20 21  2  0  0  0
 20 38  1  0  0  0
 21 22  1  0  0  0
 22 23  2  0  0  0
 22 39  1  0  0  0
 23 40  1  0  0  0
 24 41  1  0  0  0
M  END
> <s_m_entry_id>
27989

> <s_m_entry_name>
dock_pv.150

> <s_m_Source_Path>
/home/csk/Desktop/cluster/DUD-E-result/rock1

> <s_m_Source_File>
dock_pv.maegz

> <i_m_Source_File_Index>
150

> <chembl_id>
CHEMBL3923247

> <chembl_pref_name>
None

> <i_lp_mmshare_version>
53161

> <r_lp_tautomer_probability>
0.999000488399163

> <s_lp_Force_Field>
OPLS_2005

> <r_lp_Energy>
7.124102

> <b_lp_Chiralities_Consistent>
1

> <s_lp_Variant>
CHEMBL3231_lig554-1

> <s_i_glide_gridfile>
glide-grid_2etr

> <i_i_glide_lignum>
832

> <i_i_glide_rotatable_bonds>
7

> <r_i_docking_score>
-8.23876502255432

> <r_i_glide_ligand_efficiency>
-0.343281875939763

> <r_i_glide_ligand_efficiency_sa>
-0.990196275087923

> <r_i_glide_ligand_efficiency_ln>
-1.97191452218992

> <r_i_glide_gscore>
-8.23876502255432

> <r_i_glide_lipo>
-2.72848769471304

> <r_i_glide_hbond>
-0.567761523876039

> <r_i_glide_metal>
0

> <r_i_glide_rewards>
-2.41133472124058

> <r_i_glide_evdw>
-39.0006980895996

> <r_i_glide_ecoul>
-9.43950176239014

> <r_i_glide_erotb>
0.98562033759082

> <r_i_glide_esite>
-0.150841251476976

> <r_i_glide_emodel>
-72.8979626088269

> <r_i_glide_energy>
-48.4401998519897

> <r_i_glide_einternal>
2.57174015045166

> <i_i_glide_confnum>
2

> <i_i_glide_posenum>
372

> <r_i_glide_eff_state_penalty>
0

> <s_user_duplicate_titles>
CHEMBL3231_lig554

> <i_f3d_flags>
0

> <s_m_subgroup_title>
dock_pv

> <s_m_subgroupid>
dock_pv

> <b_m_subgroup_collapsed>
1

$$$$
CHEMBL3231_lig661
                    3D
 Schrodinger Suite 2021-1.
 43 46  0  0  1  0            999 V2000
   50.3863  104.2968   28.0115 C   0  0  0  0  0  0
   50.4430  102.9094   27.6952 O   0  0  0  0  0  0
   51.0095  102.0067   28.5789 C   0  0  0  0  0  0
   51.4726  102.3949   29.8487 C   0  0  0  0  0  0
   52.0433  101.4750   30.7416 C   0  0  0  0  0  0
   52.1646  100.1451   30.3216 C   0  0  0  0  0  0
   51.7110   99.7453   29.0682 C   0  0  0  0  0  0
   51.1158  100.6555   28.1865 C   0  0  0  0  0  0
   50.6124  100.1265   26.8632 C   0  0  0  0  0  0
   50.0928  100.8201   25.7738 C   0  0  0  0  0  0
   49.7805   99.8917   24.8178 N   0  0  0  0  0  0
   50.0432   98.6459   25.2109 N   0  0  0  0  0  0
   50.5378   98.7873   26.4193 C   0  0  0  0  0  0
   52.4816  101.8687   32.1407 C   0  0  0  0  0  0
   52.8834  101.0159   32.9340 O   0  0  0  0  0  0
   52.3589  103.1664   32.4829 N   0  0  0  0  0  0
   52.5652  103.7235   33.8230 C   0  0  0  0  0  0
   51.2558  104.0414   34.5437 C   0  0  0  0  0  0
   50.9223  105.3776   34.8056 C   0  0  0  0  0  0
   49.7433  105.7280   35.4623 C   0  0  0  0  0  0
   48.8381  104.7676   35.9150 C   0  0  0  0  0  0
   49.1777  103.4321   35.6854 C   0  0  0  0  0  0
   48.5460  102.2487   36.0109 N   0  0  0  0  0  0
   49.2430  101.1732   35.6104 N   0  0  0  0  0  0
   50.3171  101.6228   35.0193 C   0  0  0  0  0  0
   50.3680  103.0523   35.0153 C   0  0  0  0  0  0
   50.0422  104.8527   27.1398 H   0  0  0  0  0  0
   49.6799  104.4841   28.8186 H   0  0  0  0  0  0
   51.3617  104.7010   28.2859 H   0  0  0  0  0  0
   51.3743  103.4231   30.1493 H   0  0  0  0  0  0
   52.6048   99.4001   30.9718 H   0  0  0  0  0  0
   51.8269   98.7069   28.8008 H   0  0  0  0  0  0
   49.9174  101.8734   25.6065 H   0  0  0  0  0  0
   49.3736  100.0966   23.9092 H   0  0  0  0  0  0
   50.8421   97.9160   26.9808 H   0  0  0  0  0  0
   52.1992  103.8326   31.7482 H   0  0  0  0  0  0
   53.1381  103.0457   34.4595 H   0  0  0  0  0  0
   53.1759  104.6236   33.7204 H   0  0  0  0  0  0
   51.5874  106.1676   34.4814 H   0  0  0  0  0  0
   49.5305  106.7755   35.6306 H   0  0  0  0  0  0
   47.9283  105.0481   36.4242 H   0  0  0  0  0  0
   47.6841  102.1249   36.5300 H   0  0  0  0  0  0
   51.0423  100.9334   34.6158 H   0  0  0  0  0  0
  1  2  1  0  0  0
  1 27  1  0  0  0
  1 28  1  0  0  0
  1 29  1  0  0  0
  2  3  1  0  0  0
  3  4  2  0  0  0
  3  8  1  0  0  0
  4  5  1  0  0  0
  4 30  1  0  0  0
  5  6  2  0  0  0
  5 14  1  0  0  0
  6  7  1  0  0  0
  6 31  1  0  0  0
  7  8  2  0  0  0
  7 32  1  0  0  0
  8  9  1  0  0  0
  9 10  2  0  0  0
  9 13  1  0  0  0
 10 11  1  0  0  0
 10 33  1  0  0  0
 11 12  1  0  0  0
 11 34  1  0  0  0
 12 13  2  0  0  0
 13 35  1  0  0  0
 14 15  2  0  0  0
 14 16  1  0  0  0
 16 17  1  0  0  0
 16 36  1  0  0  0
 17 18  1  0  0  0
 17 37  1  0  0  0
 17 38  1  0  0  0
 18 19  2  0  0  0
 18 26  1  0  0  0
 19 20  1  0  0  0
 19 39  1  0  0  0
 20 21  2  0  0  0
 20 40  1  0  0  0
 21 22  1  0  0  0
 21 41  1  0  0  0
 22 23  1  0  0  0
 22 26  2  0  0  0
 23 24  1  0  0  0
 23 42  1  0  0  0
 24 25  2  0  0  0
 25 26  1  0  0  0
 25 43  1  0  0  0
M  END
> <s_m_entry_id>
27990

> <s_m_entry_name>
dock_pv.151

> <s_m_Source_Path>
/home/csk/Desktop/cluster/DUD-E-result/rock1

> <s_m_Source_File>
dock_pv.maegz

> <i_m_Source_File_Index>
151

> <chembl_id>
CHEMBL3936240

> <chembl_pref_name>
None

> <i_lp_mmshare_version>
53161

> <r_lp_tautomer_probability>
0.490196078431373

> <s_lp_Force_Field>
OPLS_2005

> <r_lp_Energy>
21.005566

> <b_lp_Chiralities_Consistent>
1

> <s_lp_Variant>
CHEMBL3231_lig661-1

> <s_i_glide_gridfile>
glide-grid_2etr

> <i_i_glide_lignum>
951

> <i_i_glide_rotatable_bonds>
6

> <r_i_docking_score>
-8.23601924421954

> <r_i_glide_ligand_efficiency>
-0.316769970931521

> <r_i_glide_ligand_efficiency_sa>
-0.938429792454982

> <r_i_glide_ligand_efficiency_ln>
-1.93420209492159

> <r_i_glide_gscore>
-8.23601924421954

> <r_i_glide_lipo>
-2.69591066954302

> <r_i_glide_hbond>
-0.661601271377522

> <r_i_glide_metal>
0

> <r_i_glide_rewards>
-2.17695653110017

> <r_i_glide_evdw>
-46.8509368896484

> <r_i_glide_ecoul>
-4.96777963638306

> <r_i_glide_erotb>
0.441431846265397

> <r_i_glide_esite>
-0.0552688285243368

> <r_i_glide_emodel>
-76.0960269050809

> <r_i_glide_energy>
-51.8187165260315

> <r_i_glide_einternal>
2.33324217796326

> <i_i_glide_confnum>
7

> <i_i_glide_posenum>
31

> <r_i_glide_eff_state_penalty>
0

> <s_user_duplicate_titles>
CHEMBL3231_lig661

> <i_f3d_flags>
0

> <s_m_subgroup_title>
dock_pv

> <s_m_subgroupid>
dock_pv

> <b_m_subgroup_collapsed>
1

$$$$
CHEMBL3231_lig231
                    3D
 Schrodinger Suite 2021-1.
 24 25  0  0  1  0            999 V2000
   50.0430   98.6318   25.5007 N   0  0  0  0  0  0
   50.6400   97.8352   26.4154 C   0  0  0  0  0  0
   51.1833   98.3030   27.6104 C   0  0  0  0  0  0
   49.9647   99.9536   25.7713 C   0  0  0  0  0  0
   50.4983  100.5559   26.9490 C   0  0  0  0  0  0
   51.1265   99.6906   27.8956 C   0  0  0  0  0  0
   51.6689  100.2400   29.0866 C   0  0  0  0  0  0
   51.5898  101.6126   29.3385 C   0  0  0  0  0  0
   50.9741  102.4510   28.4120 C   0  0  0  0  0  0
   50.4430  101.9457   27.2310 C   0  0  0  0  0  0
   49.2904  100.7030   24.8110 N   0  0  0  0  0  0
   52.2202  102.2028   30.5933 C   0  0  0  0  0  0
   51.2430  102.8613   31.4487 N   0  0  0  0  0  0
   50.6776   96.7819   26.1761 H   0  0  0  0  0  0
   51.6430   97.6237   28.3123 H   0  0  0  0  0  0
   52.1537   99.5815   29.7932 H   0  0  0  0  0  0
   50.9282  103.5140   28.6010 H   0  0  0  0  0  0
   49.9964  102.6249   26.5216 H   0  0  0  0  0  0
   49.2430  101.7044   24.9170 H   0  0  0  0  0  0
   49.0308  100.2721   23.9266 H   0  0  0  0  0  0
   52.9779  102.9289   30.2931 H   0  0  0  0  0  0
   52.7394  101.4297   31.1625 H   0  0  0  0  0  0
   50.6913  102.1390   31.8909 H   0  0  0  0  0  0
   51.7562  103.2993   32.2031 H   0  0  0  0  0  0
  1  2  2  0  0  0
  1  4  1  0  0  0
  2  3  1  0  0  0
  2 14  1  0  0  0
  3  6  2  0  0  0
  3 15  1  0  0  0
  4  5  2  0  0  0
  4 11  1  0  0  0
  5 10  1  0  0  0
  5  6  1  0  0  0
  6  7  1  0  0  0
  7  8  2  0  0  0
  7 16  1  0  0  0
  8  9  1  0  0  0
  8 12  1  0  0  0
  9 10  2  0  0  0
  9 17  1  0  0  0
 10 18  1  0  0  0
 11 19  1  0  0  0
 11 20  1  0  0  0
 12 13  1  0  0  0
 12 21  1  0  0  0
 12 22  1  0  0  0
 13 23  1  0  0  0
 13 24  1  0  0  0
M  END
> <s_m_entry_id>
27991

> <s_m_entry_name>
dock_pv.152

> <s_m_Source_Path>
/home/csk/Desktop/cluster/DUD-E-result/rock1

> <s_m_Source_File>
dock_pv.maegz

> <i_m_Source_File_Index>
152

> <chembl_id>
CHEMBL1643355

> <chembl_pref_name>
None

> <i_lp_mmshare_version>
53161

> <r_lp_tautomer_probability>
1

> <s_lp_Force_Field>
OPLS_2005

> <r_lp_Energy>
5.113473

> <b_lp_Chiralities_Consistent>
1

> <s_lp_Variant>
CHEMBL3231_lig231-1

> <s_i_glide_gridfile>
glide-grid_2etr

> <i_i_glide_lignum>
375

> <i_i_glide_rotatable_bonds>
1

> <r_i_docking_score>
-8.23251760026536

> <r_i_glide_ligand_efficiency>
-0.633270584635797

> <r_i_glide_ligand_efficiency_sa>
-1.48903109109426

> <r_i_glide_ligand_efficiency_ln>
-2.30929440358934

> <r_i_glide_gscore>
-8.23251760026536

> <r_i_glide_lipo>
-2.18670110881649

> <r_i_glide_hbond>
-0.369478415389811

> <r_i_glide_metal>
0

> <r_i_glide_rewards>
-3.5364166969697

> <r_i_glide_evdw>
-24.650541305542

> <r_i_glide_ecoul>
-6.04929542541504

> <r_i_glide_erotb>
0

> <r_i_glide_esite>
0

> <r_i_glide_emodel>
-46.0741676760358

> <r_i_glide_energy>
-30.699836730957

> <r_i_glide_einternal>
0.353333860635757

> <i_i_glide_confnum>
1

> <i_i_glide_posenum>
367

> <r_i_glide_eff_state_penalty>
0

> <s_user_duplicate_titles>
CHEMBL3231_lig231

> <i_f3d_flags>
0

> <s_m_subgroup_title>
dock_pv

> <s_m_subgroupid>
dock_pv

> <b_m_subgroup_collapsed>
1

$$$$
CHEMBL3231_lig713
                    3D
 Schrodinger Suite 2021-1.
 41 43  0  0  1  0            999 V2000
   50.4429  103.8577   28.2918 C   0  0  0  0  0  0
   50.4438  102.4837   27.9159 O   0  0  0  0  0  0
   51.1849  101.5671   28.6454 C   0  0  0  0  0  0
   51.7962  101.8852   29.8732 C   0  0  0  0  0  0
   52.5230  100.9300   30.6063 C   0  0  0  0  0  0
   52.6415   99.6419   30.0777 C   0  0  0  0  0  0
   52.0429   99.3137   28.8713 C   0  0  0  0  0  0
   51.3142  100.2572   28.1413 C   0  0  0  0  0  0
   50.7304   99.7993   26.8388 C   0  0  0  0  0  0
   50.5397   98.4758   26.3957 C   0  0  0  0  0  0
   50.0426   98.3901   25.1883 N   0  0  0  0  0  0
   49.8674   99.6584   24.8110 N   0  0  0  0  0  0
   50.2637  100.5518   25.7681 C   0  0  0  0  0  0
   53.1227  101.2226   31.9651 C   0  0  0  0  0  0
   53.6651  100.3296   32.6174 O   0  0  0  0  0  0
   52.9472  102.4613   32.4604 N   0  0  0  0  0  0
   53.0814  102.8144   33.8751 C   0  0  0  0  0  0
   51.7811  102.6023   34.6503 C   0  0  0  0  0  0
   51.2041  101.3286   34.7474 C   0  0  0  0  0  0
   49.9987  101.1455   35.4210 C   0  0  0  0  0  0
   49.3709  102.2280   36.0308 C   0  0  0  0  0  0
   49.9573  103.4948   35.9763 C   0  0  0  0  0  0
   51.1546  103.6823   35.2789 C   0  0  0  0  0  0
   49.3355  104.6127   36.6626 C   0  0  0  0  0  0
   48.8443  105.5020   37.2104 N   0  0  0  0  0  0
   49.9615  104.4463   27.5120 H   0  0  0  0  0  0
   49.8829  104.0125   29.2125 H   0  0  0  0  0  0
   51.4520  104.2551   28.4126 H   0  0  0  0  0  0
   51.6870  102.8802   30.2710 H   0  0  0  0  0  0
   53.1922   98.8757   30.6055 H   0  0  0  0  0  0
   52.1668   98.3059   28.5085 H   0  0  0  0  0  0
   50.7739   97.5777   26.9484 H   0  0  0  0  0  0
   49.4745   99.9033   23.9073 H   0  0  0  0  0  0
   50.1863  101.6169   25.6090 H   0  0  0  0  0  0
   52.6418  103.1895   31.8362 H   0  0  0  0  0  0
   53.4031  103.8554   33.9414 H   0  0  0  0  0  0
   53.8631  102.2197   34.3545 H   0  0  0  0  0  0
   51.6830  100.4738   34.2941 H   0  0  0  0  0  0
   49.5559  100.1617   35.4777 H   0  0  0  0  0  0
   48.4431  102.0668   36.5619 H   0  0  0  0  0  0
   51.6063  104.6634   35.2260 H   0  0  0  0  0  0
  1  2  1  0  0  0
  1 26  1  0  0  0
  1 27  1  0  0  0
  1 28  1  0  0  0
  2  3  1  0  0  0
  3  4  2  0  0  0
  3  8  1  0  0  0
  4  5  1  0  0  0
  4 29  1  0  0  0
  5  6  2  0  0  0
  5 14  1  0  0  0
  6  7  1  0  0  0
  6 30  1  0  0  0
  7  8  2  0  0  0
  7 31  1  0  0  0
  8  9  1  0  0  0
  9 10  1  0  0  0
  9 13  2  0  0  0
 10 11  2  0  0  0
 10 32  1  0  0  0
 11 12  1  0  0  0
 12 13  1  0  0  0
 12 33  1  0  0  0
 13 34  1  0  0  0
 14 15  2  0  0  0
 14 16  1  0  0  0
 16 17  1  0  0  0
 16 35  1  0  0  0
 17 18  1  0  0  0
 17 36  1  0  0  0
 17 37  1  0  0  0
 18 19  2  0  0  0
 18 23  1  0  0  0
 19 20  1  0  0  0
 19 38  1  0  0  0
 20 21  2  0  0  0
 20 39  1  0  0  0
 21 22  1  0  0  0
 21 40  1  0  0  0
 22 23  2  0  0  0
 22 24  1  0  0  0
 23 41  1  0  0  0
 24 25  3  0  0  0
M  END
> <s_m_entry_id>
27992

> <s_m_entry_name>
dock_pv.153

> <s_m_Source_Path>
/home/csk/Desktop/cluster/DUD-E-result/rock1

> <s_m_Source_File>
dock_pv.maegz

> <i_m_Source_File_Index>
153

> <chembl_id>
CHEMBL3914478

> <chembl_pref_name>
None

> <i_lp_mmshare_version>
53161

> <r_lp_tautomer_probability>
0.5

> <s_lp_Force_Field>
OPLS_2005

> <r_lp_Energy>
21.133067

> <b_lp_Chiralities_Consistent>
1

> <s_lp_Variant>
CHEMBL3231_lig713-1

> <s_i_glide_gridfile>
glide-grid_2etr

> <i_i_glide_lignum>
1013

> <i_i_glide_rotatable_bonds>
6

> <r_i_docking_score>
-8.22259932857574

> <r_i_glide_ligand_efficiency>
-0.328903973143029

> <r_i_glide_ligand_efficiency_sa>
-0.96172105060702

> <r_i_glide_ligand_efficiency_ln>
-1.94900245229015

> <r_i_glide_gscore>
-8.22259932857574

> <r_i_glide_lipo>
-2.77643350169539

> <r_i_glide_hbond>
-0.721573560608557

> <r_i_glide_metal>
0

> <r_i_glide_rewards>
-2.37961932940298

> <r_i_glide_evdw>
-44.3231315612793

> <r_i_glide_ecoul>
-4.59075975418091

> <r_i_glide_erotb>
0.596745638703136

> <r_i_glide_esite>
-0.03694803438085

> <r_i_glide_emodel>
-72.2107808553188

> <r_i_glide_energy>
-48.9138913154602

> <r_i_glide_einternal>
2.84163331985474

> <i_i_glide_confnum>
50

> <i_i_glide_posenum>
372

> <r_i_glide_eff_state_penalty>
0

> <s_user_duplicate_titles>
CHEMBL3231_lig713

> <i_f3d_flags>
0

> <s_m_subgroup_title>
dock_pv

> <s_m_subgroupid>
dock_pv

> <b_m_subgroup_collapsed>
1

$$$$
CHEMBL3231_lig461
                    3D
 Schrodinger Suite 2021-1.
 37 40  0  0  1  0            999 V2000
   50.4512   97.8521   26.4985 C   0  0  0  0  0  0
   50.0452   98.2255   25.2610 N   0  0  0  0  0  0
   49.9896   99.5511   24.9934 C   0  0  0  0  0  0
   50.3079  100.5304   25.9286 C   0  0  0  0  0  0
   50.7086  100.1433   27.2167 C   0  0  0  0  0  0
   50.7993   98.7689   27.4942 C   0  0  0  0  0  0
   50.9964  101.1853   28.2571 C   0  0  0  0  0  0
   51.5267  100.8545   29.4286 N   0  0  0  0  0  0
   51.6721  101.8788   30.2375 C   0  0  0  0  0  0
   51.2405  103.4108   29.5295 S   0  0  0  0  0  0
   50.7196  102.5485   28.1279 C   0  0  0  0  0  0
   52.1229  101.6946   31.5437 N   0  0  0  0  0  0
   52.0657  102.5746   32.5736 C   0  0  0  0  0  0
   52.5731  102.0548   33.9515 C   0  0  2  0  0  0
   51.6428  103.7285   32.4694 O   0  0  0  0  0  0
   51.8458  100.7584   34.4217 C   0  0  0  0  0  0
   50.4374  100.9861   34.5566 O   0  0  0  0  0  0
   52.3732  103.0726   34.9571 O   0  0  0  0  0  0
   51.0707  103.1814   35.4179 C   0  0  0  0  0  0
   50.1355  102.1438   35.2506 C   0  0  0  0  0  0
   48.8323  102.3046   35.7174 C   0  0  0  0  0  0
   48.4664  103.4899   36.3620 C   0  0  0  0  0  0
   49.4045  104.5092   36.5481 C   0  0  0  0  0  0
   50.7104  104.3551   36.0774 C   0  0  0  0  0  0
   50.4931   96.7889   26.6904 H   0  0  0  0  0  0
   49.6546   99.8309   24.0113 H   0  0  0  0  0  0
   50.2260  101.5691   25.6498 H   0  0  0  0  0  0
   51.1069   98.4123   28.4641 H   0  0  0  0  0  0
   50.2697  103.0742   27.2987 H   0  0  0  0  0  0
   52.4711  100.7702   31.7507 H   0  0  0  0  0  0
   53.6455  101.8946   33.8224 H   0  0  0  0  0  0
   52.2591  100.4673   35.3895 H   0  0  0  0  0  0
   52.0308   99.9207   33.7479 H   0  0  0  0  0  0
   48.1014  101.5210   35.5717 H   0  0  0  0  0  0
   47.4548  103.6170   36.7166 H   0  0  0  0  0  0
   49.1186  105.4221   37.0460 H   0  0  0  0  0  0
   51.4387  105.1412   36.2112 H   0  0  0  0  0  0
  1  6  1  0  0  0
  1  2  2  0  0  0
  1 25  1  0  0  0
  2  3  1  0  0  0
  3  4  2  0  0  0
  3 26  1  0  0  0
  4  5  1  0  0  0
  4 27  1  0  0  0
  5  6  2  0  0  0
  5  7  1  0  0  0
  6 28  1  0  0  0
  7  8  1  0  0  0
  7 11  2  0  0  0
  8  9  2  0  0  0
  9 12  1  0  0  0
  9 10  1  0  0  0
 10 11  1  0  0  0
 11 29  1  0  0  0
 12 13  1  0  0  0
 12 30  1  0  0  0
 13 14  1  0  0  0
 13 15  2  0  0  0
 14 16  1  0  0  0
 14 18  1  0  0  0
 14 31  1  0  0  0
 16 17  1  0  0  0
 16 32  1  0  0  0
 16 33  1  0  0  0
 17 20  1  0  0  0
 18 19  1  0  0  0
 19 20  2  0  0  0
 19 24  1  0  0  0
 20 21  1  0  0  0
 21 22  2  0  0  0
 21 34  1  0  0  0
 22 23  1  0  0  0
 22 35  1  0  0  0
 23 24  2  0  0  0
 23 36  1  0  0  0
 24 37  1  0  0  0
M  END
> <s_m_entry_id>
27993

> <s_m_entry_name>
dock_pv.154

> <s_m_Source_Path>
/home/csk/Desktop/cluster/DUD-E-result/rock1

> <s_m_Source_File>
dock_pv.maegz

> <i_m_Source_File_Index>
154

> <chembl_id>
CHEMBL510515

> <chembl_pref_name>
None

> <i_lp_mmshare_version>
53161

> <r_lp_tautomer_probability>
0.999000488399163

> <s_lp_Force_Field>
OPLS_2005

> <r_lp_Energy>
15.887471

> <b_lp_Chiralities_Consistent>
1

> <s_lp_Variant>
CHEMBL3231_lig461-1

> <s_i_glide_gridfile>
glide-grid_2etr

> <i_i_glide_lignum>
647

> <i_i_glide_rotatable_bonds>
4

> <r_i_docking_score>
-8.21086455421131

> <r_i_glide_ligand_efficiency>
-0.342119356425471

> <r_i_glide_ligand_efficiency_sa>
-0.986842988551553

> <r_i_glide_ligand_efficiency_ln>
-1.96523665984637

> <r_i_glide_gscore>
-8.21086455421131

> <r_i_glide_lipo>
-3.26988815020316

> <r_i_glide_hbond>
-0.290831193120646

> <r_i_glide_metal>
0

> <r_i_glide_rewards>
-2.45346595659111

> <r_i_glide_evdw>
-42.3739013671875

> <r_i_glide_ecoul>
-4.59079170227051

> <r_i_glide_erotb>
0.657239327552207

> <r_i_glide_esite>
-0.0466047581486499

> <r_i_glide_emodel>
-70.5650229939245

> <r_i_glide_energy>
-46.964693069458

> <r_i_glide_einternal>
0.743057548999786

> <i_i_glide_confnum>
24

> <i_i_glide_posenum>
105

> <r_i_glide_eff_state_penalty>
0

> <s_user_duplicate_titles>
CHEMBL3231_lig461

> <i_f3d_flags>
0

> <s_m_subgroup_title>
dock_pv

> <s_m_subgroupid>
dock_pv

> <b_m_subgroup_collapsed>
1

$$$$
CHEMBL3231_lig431
                    3D
 Schrodinger Suite 2021-1.
 47 49  0  0  1  0            999 V2000
   46.8678  103.7143   34.9350 C   0  0  0  0  0  0
   47.7605  104.6832   35.4756 O   0  0  0  0  0  0
   48.3785  104.3432   36.7143 C   0  0  0  0  0  0
   49.4037  103.2045   36.6156 C   0  0  0  0  0  0
   50.4467  103.6011   35.7354 O   0  0  0  0  0  0
   51.5517  102.7889   35.5880 C   0  0  0  0  0  0
   51.7035  101.5225   36.1761 C   0  0  0  0  0  0
   52.8606  100.7754   35.9546 C   0  0  0  0  0  0
   53.8666  101.2732   35.1257 C   0  0  0  0  0  0
   53.7201  102.5230   34.5180 C   0  0  0  0  0  0
   54.8129  103.0824   33.6096 C   0  0  0  0  0  0
   54.6428  102.7604   32.1892 N   0  0  0  0  0  0
   53.5636  103.0694   31.4527 C   0  0  0  0  0  0
   52.7252  103.9053   31.7947 O   0  0  0  0  0  0
   53.4691  102.2861   30.3634 N   0  0  0  0  0  0
   52.3886  102.2144   29.4907 C   0  0  0  0  0  0
   52.1943  101.1560   28.7483 N   0  0  0  0  0  0
   51.1576  101.2800   27.9332 C   0  0  0  0  0  0
   50.4898  102.5027   28.0233 C   0  0  0  0  0  0
   51.2428  103.5032   29.2111 S   0  0  0  0  0  0
   50.7904  100.1759   27.0056 C   0  0  0  0  0  0
   50.1507  100.4776   25.7965 C   0  0  0  0  0  0
   49.8053   99.4340   24.9441 C   0  0  0  0  0  0
   50.0430   98.1326   25.2328 N   0  0  0  0  0  0
   50.6637   97.8497   26.4043 C   0  0  0  0  0  0
   51.0596   98.8339   27.3091 C   0  0  0  0  0  0
   52.5762  103.2816   34.7825 C   0  0  0  0  0  0
   46.4332  104.1081   34.0165 H   0  0  0  0  0  0
   46.0441  103.5038   35.6129 H   0  0  0  0  0  0
   47.3707  102.7802   34.6855 H   0  0  0  0  0  0
   48.8899  105.2384   37.0701 H   0  0  0  0  0  0
   47.6430  104.1060   37.4764 H   0  0  0  0  0  0
   49.8042  103.0222   37.6107 H   0  0  0  0  0  0
   48.9354  102.2820   36.2702 H   0  0  0  0  0  0
   50.9378  101.1043   36.8092 H   0  0  0  0  0  0
   52.9746   99.8068   36.4186 H   0  0  0  0  0  0
   54.7539  100.6834   34.9505 H   0  0  0  0  0  0
   54.8778  104.1676   33.7272 H   0  0  0  0  0  0
   55.7791  102.7010   33.9409 H   0  0  0  0  0  0
   55.4206  102.3023   31.7321 H   0  0  0  0  0  0
   54.1988  101.6027   30.2291 H   0  0  0  0  0  0
   49.6446  102.8609   27.4555 H   0  0  0  0  0  0
   49.9272  101.4968   25.5174 H   0  0  0  0  0  0
   49.3075   99.6366   24.0121 H   0  0  0  0  0  0
   50.8423   96.8058   26.6141 H   0  0  0  0  0  0
   51.5521   98.5562   28.2296 H   0  0  0  0  0  0
   52.4654  104.2586   34.3347 H   0  0  0  0  0  0
  1  2  1  0  0  0
  1 28  1  0  0  0
  1 29  1  0  0  0
  1 30  1  0  0  0
  2  3  1  0  0  0
  3  4  1  0  0  0
  3 31  1  0  0  0
  3 32  1  0  0  0
  4  5  1  0  0  0
  4 33  1  0  0  0
  4 34  1  0  0  0
  5  6  1  0  0  0
  6  7  2  0  0  0
  6 27  1  0  0  0
  7  8  1  0  0  0
  7 35  1  0  0  0
  8  9  2  0  0  0
  8 36  1  0  0  0
  9 10  1  0  0  0
  9 37  1  0  0  0
 10 11  1  0  0  0
 10 27  2  0  0  0
 11 12  1  0  0  0
 11 38  1  0  0  0
 11 39  1  0  0  0
 12 13  1  0  0  0
 12 40  1  0  0  0
 13 14  2  0  0  0
 13 15  1  0  0  0
 15 16  1  0  0  0
 15 41  1  0  0  0
 16 17  2  0  0  0
 16 20  1  0  0  0
 17 18  1  0  0  0
 18 19  2  0  0  0
 18 21  1  0  0  0
 19 20  1  0  0  0
 19 42  1  0  0  0
 21 22  2  0  0  0
 21 26  1  0  0  0
 22 23  1  0  0  0
 22 43  1  0  0  0
 23 24  2  0  0  0
 23 44  1  0  0  0
 24 25  1  0  0  0
 25 26  2  0  0  0
 25 45  1  0  0  0
 26 46  1  0  0  0
 27 47  1  0  0  0
M  END
> <s_m_entry_id>
27994

> <s_m_entry_name>
dock_pv.155

> <s_m_Source_Path>
/home/csk/Desktop/cluster/DUD-E-result/rock1

> <s_m_Source_File>
dock_pv.maegz

> <i_m_Source_File_Index>
155

> <chembl_id>
CHEMBL3218017

> <chembl_pref_name>
None

> <i_lp_mmshare_version>
53161

> <r_lp_tautomer_probability>
0.999000488399163

> <s_lp_Force_Field>
OPLS_2005

> <r_lp_Energy>
11.388387

> <b_lp_Chiralities_Consistent>
1

> <s_lp_Variant>
CHEMBL3231_lig431-1

> <s_i_glide_gridfile>
glide-grid_2etr

> <i_i_glide_lignum>
615

> <i_i_glide_rotatable_bonds>
10

> <r_i_docking_score>
-8.20960929256263

> <r_i_glide_ligand_efficiency>
-0.304059603428246

> <r_i_glide_ligand_efficiency_sa>
-0.912178809282606

> <r_i_glide_ligand_efficiency_ln>
-1.91106169732153

> <r_i_glide_gscore>
-8.20960929256263

> <r_i_glide_lipo>
-3.24146788071335

> <r_i_glide_hbond>
-0.490036974997392

> <r_i_glide_metal>
0

> <r_i_glide_rewards>
-2.1233960923076

> <r_i_glide_evdw>
-47.0495338439941

> <r_i_glide_ecoul>
-7.11033535003662

> <r_i_glide_erotb>
1.18389582048626

> <r_i_glide_esite>
-0.119577170325347

> <r_i_glide_emodel>
-78.3748278464413

> <r_i_glide_energy>
-54.1598691940308

> <r_i_glide_einternal>
6.97613286972046

> <i_i_glide_confnum>
162

> <i_i_glide_posenum>
367

> <r_i_glide_eff_state_penalty>
0

> <s_user_duplicate_titles>
CHEMBL3231_lig431

> <i_f3d_flags>
0

> <s_m_subgroup_title>
dock_pv

> <s_m_subgroupid>
dock_pv

> <b_m_subgroup_collapsed>
1

$$$$
CHEMBL3231_lig528
                    3D
 Schrodinger Suite 2021-1.
 69 73  0  0  1  0            999 V2000
   52.5556  102.1865   33.7832 C   0  0  1  0  0  0
   52.7426  102.5762   32.2984 C   0  0  0  0  0  0
   53.8954  103.1605   31.9077 C   0  0  0  0  0  0
   54.8727  103.4886   32.7943 N   0  0  0  0  0  0
   54.8024  103.3530   34.1344 C   0  0  0  0  0  0
   53.7506  102.6099   34.5697 N   0  0  0  0  0  0
   55.5331  103.9831   34.8952 O   0  0  0  0  0  0
   54.2373  103.5243   30.4721 C   0  0  0  0  0  0
   51.7035  102.3023   31.3300 C   0  0  0  0  0  0
   51.9998  101.2695   30.5080 N   0  0  0  0  0  0
   50.7169  103.0320   31.2313 O   0  0  0  0  0  0
   51.4210  100.9660   29.2623 C   0  0  0  0  0  0
   51.4465   99.6311   28.8490 C   0  0  0  0  0  0
   50.4430  101.6709   27.1255 C   0  0  0  0  0  0
   50.9277  101.9622   28.4039 C   0  0  0  0  0  0
   50.4494  100.3299   26.7368 C   0  0  0  0  0  0
   50.9386   99.3028   27.5809 C   0  0  0  0  0  0
   50.7528   98.1114   26.8209 C   0  0  0  0  0  0
   50.2293   98.3589   25.6485 N   0  0  0  0  0  0
   50.0446   99.6916   25.5799 N   0  0  0  0  0  0
   51.2367  102.6049   34.4328 C   0  0  0  0  0  0
   50.9532  103.9628   34.6202 C   0  0  0  0  0  0
   49.7470  104.3848   35.2109 C   0  0  0  0  0  0
   48.8367  103.3979   35.6334 C   0  0  0  0  0  0
   49.1315  102.0455   35.4686 C   0  0  0  0  0  0
   50.3186  101.6471   34.8662 C   0  0  0  0  0  0
   47.6449  103.7211   36.1924 F   0  0  0  0  0  0
   49.4210  105.8591   35.3643 C   0  0  0  0  0  0
   50.2207  106.7213   34.7104 N   0  0  0  0  0  0
   48.4434  106.2419   36.0104 O   0  0  0  0  0  0
   49.9398  108.1405   34.5158 C   0  0  0  0  0  0
   50.5499  109.0827   35.5842 C   0  0  0  0  0  0
   52.0688  108.9513   35.7696 C   0  0  0  0  0  0
   52.6020  108.1824   36.8302 C   0  0  0  0  0  0
   53.9845  108.0260   36.9491 C   0  0  0  0  0  0
   54.8442  108.6350   36.0439 C   0  0  0  0  0  0
   54.3307  109.4227   35.0241 C   0  0  0  0  0  0
   52.9516  109.6041   34.8832 C   0  0  0  0  0  0
   51.7235  107.5216   37.8871 C   0  0  0  0  0  0
   52.4638  110.5232   33.7643 C   0  0  0  0  0  0
   52.5737  101.0956   33.8260 H   0  0  0  0  0  0
   55.7032  103.9547   32.4592 H   0  0  0  0  0  0
   53.7390  102.4209   35.5612 H   0  0  0  0  0  0
   54.1891  102.6591   29.8119 H   0  0  0  0  0  0
   53.5721  104.3028   30.0940 H   0  0  0  0  0  0
   55.2423  103.9028   30.4121 H   0  0  0  0  0  0
   52.7311  100.6473   30.8132 H   0  0  0  0  0  0
   51.8385   98.8576   29.4934 H   0  0  0  0  0  0
   50.0773  102.4519   26.4756 H   0  0  0  0  0  0
   50.9471  102.9957   28.7122 H   0  0  0  0  0  0
   50.9922   97.1033   27.1200 H   0  0  0  0  0  0
   49.6468  100.1085   24.7488 H   0  0  0  0  0  0
   51.6924  104.6753   34.2836 H   0  0  0  0  0  0
   48.4307  101.2981   35.8089 H   0  0  0  0  0  0
   50.5205  100.5943   34.7415 H   0  0  0  0  0  0
   51.1121  106.4073   34.3527 H   0  0  0  0  0  0
   48.8703  108.3082   34.3801 H   0  0  0  0  0  0
   50.4191  108.3420   33.5589 H   0  0  0  0  0  0
   50.0421  108.9330   36.5310 H   0  0  0  0  0  0
   50.3046  110.1179   35.3436 H   0  0  0  0  0  0
   54.4009  107.4338   37.7510 H   0  0  0  0  0  0
   55.9144  108.5162   36.1374 H   0  0  0  0  0  0
   55.0241  109.9023   34.3448 H   0  0  0  0  0  0
   50.9472  106.9156   37.4307 H   0  0  0  0  0  0
   52.2928  106.8658   38.5468 H   0  0  0  0  0  0
   51.2431  108.2869   38.4967 H   0  0  0  0  0  0
   51.6198  110.1011   33.2257 H   0  0  0  0  0  0
   53.2401  110.7004   33.0183 H   0  0  0  0  0  0
   52.1491  111.4818   34.1753 H   0  0  0  0  0  0
  1  2  1  0  0  0
  1  6  1  0  0  0
  1 21  1  0  0  0
  1 41  1  0  0  0
  2  3  2  0  0  0
  2  9  1  0  0  0
  3  4  1  0  0  0
  3  8  1  0  0  0
  4  5  1  0  0  0
  4 42  1  0  0  0
  5  6  1  0  0  0
  5  7  2  0  0  0
  6 43  1  0  0  0
  8 44  1  0  0  0
  8 45  1  0  0  0
  8 46  1  0  0  0
  9 10  1  0  0  0
  9 11  2  0  0  0
 10 12  1  0  0  0
 10 47  1  0  0  0
 12 13  2  0  0  0
 12 15  1  0  0  0
 13 17  1  0  0  0
 13 48  1  0  0  0
 14 16  1  0  0  0
 14 15  2  0  0  0
 14 49  1  0  0  0
 15 50  1  0  0  0
 16 17  2  0  0  0
 16 20  1  0  0  0
 17 18  1  0  0  0
 18 19  2  0  0  0
 18 51  1  0  0  0
 19 20  1  0  0  0
 20 52  1  0  0  0
 21 22  2  0  0  0
 21 26  1  0  0  0
 22 23  1  0  0  0
 22 53  1  0  0  0
 23 24  2  0  0  0
 23 28  1  0  0  0
 24 25  1  0  0  0
 24 27  1  0  0  0
 25 26  2  0  0  0
 25 54  1  0  0  0
 26 55  1  0  0  0
 28 29  1  0  0  0
 28 30  2  0  0  0
 29 31  1  0  0  0
 29 56  1  0  0  0
 31 32  1  0  0  0
 31 57  1  0  0  0
 31 58  1  0  0  0
 32 33  1  0  0  0
 32 59  1  0  0  0
 32 60  1  0  0  0
 33 34  2  0  0  0
 33 38  1  0  0  0
 34 35  1  0  0  0
 34 39  1  0  0  0
 35 36  2  0  0  0
 35 61  1  0  0  0
 36 37  1  0  0  0
 36 62  1  0  0  0
 37 38  2  0  0  0
 37 63  1  0  0  0
 38 40  1  0  0  0
 39 64  1  0  0  0
 39 65  1  0  0  0
 39 66  1  0  0  0
 40 67  1  0  0  0
 40 68  1  0  0  0
 40 69  1  0  0  0
M  END
> <s_m_entry_id>
27995

> <s_m_entry_name>
dock_pv.156

> <s_m_Source_Path>
/home/csk/Desktop/cluster/DUD-E-result/rock1

> <s_m_Source_File>
dock_pv.maegz

> <i_m_Source_File_Index>
156

> <chembl_id>
CHEMBL3808918

> <chembl_pref_name>
None

> <i_lp_mmshare_version>
53161

> <r_lp_tautomer_probability>
0.980392156860701

> <s_lp_Force_Field>
OPLS_2005

> <r_lp_Energy>
53.835805

> <b_lp_Chiralities_Consistent>
1

> <s_lp_Variant>
CHEMBL3231_lig528-2

> <s_i_glide_gridfile>
glide-grid_2etr

> <i_i_glide_lignum>
790

> <i_i_glide_rotatable_bonds>
9

> <r_i_docking_score>
-8.20407819285933

> <r_i_glide_ligand_efficiency>
-0.205101954821483

> <r_i_glide_ligand_efficiency_sa>
-0.701438817859706

> <r_i_glide_ligand_efficiency_ln>
-1.74968844329347

> <r_i_glide_gscore>
-8.20407819285933

> <r_i_glide_lipo>
-2.52882240145518

> <r_i_glide_hbond>
-0.250976738034864

> <r_i_glide_metal>
0

> <r_i_glide_rewards>
-1.48782895706114

> <r_i_glide_evdw>
-59.3526153564453

> <r_i_glide_ecoul>
-10.0080823898315

> <r_i_glide_erotb>
0.636741711801219

> <r_i_glide_esite>
-0.104348681812357

> <r_i_glide_emodel>
-99.5696297894795

> <r_i_glide_energy>
-69.3606977462769

> <r_i_glide_einternal>
10.1621294021606

> <i_i_glide_confnum>
30

> <i_i_glide_posenum>
186

> <r_i_glide_eff_state_penalty>
0

> <s_user_duplicate_titles>
CHEMBL3231_lig528

> <i_f3d_flags>
0

> <s_m_subgroup_title>
dock_pv

> <s_m_subgroupid>
dock_pv

> <b_m_subgroup_collapsed>
1

$$$$
CHEMBL3231_lig699
                    3D
 Schrodinger Suite 2021-1.
 44 46  0  0  1  0            999 V2000
   51.5526   97.7307   30.4286 C   0  0  0  0  0  0
   51.3424   98.4402   29.2120 O   0  0  0  0  0  0
   51.4613   99.8200   29.1880 C   0  0  0  0  0  0
   51.9632  100.5632   30.2767 C   0  0  0  0  0  0
   52.0069  101.9667   30.2438 C   0  0  0  0  0  0
   51.5435  102.6246   29.1050 C   0  0  0  0  0  0
   51.0730  101.9036   28.0178 C   0  0  0  0  0  0
   51.0357  100.5057   28.0315 C   0  0  0  0  0  0
   50.5283   99.8400   26.7845 C   0  0  0  0  0  0
   50.5713   98.4861   26.3955 C   0  0  0  0  0  0
   50.0434   98.2571   25.2141 N   0  0  0  0  0  0
   49.6430   99.4559   24.8016 N   0  0  0  0  0  0
   49.9069  100.4457   25.6980 C   0  0  0  0  0  0
   52.5197  102.7884   31.3990 C   0  0  0  0  0  0
   52.0436  103.9028   31.6223 O   0  0  0  0  0  0
   53.5318  102.2519   32.1027 N   0  0  0  0  0  0
   54.2910  102.9145   33.1669 C   0  0  0  0  0  0
   53.6937  102.7556   34.5870 C   0  0  0  0  0  0
   52.3682  103.4691   34.8533 C   0  0  0  0  0  0
   51.3061  102.7839   35.4559 C   0  0  0  0  0  0
   50.1043  103.4407   35.7290 C   0  0  0  0  0  0
   49.9546  104.7878   35.3977 C   0  0  0  0  0  0
   51.0054  105.4759   34.7919 C   0  0  0  0  0  0
   50.8427  106.7807   34.4112 O   0  0  0  0  0  0
   52.2110  104.8234   34.5362 C   0  0  0  0  0  0
   51.3003   96.6801   30.2813 H   0  0  0  0  0  0
   52.5962   97.7794   30.7454 H   0  0  0  0  0  0
   50.9125   98.1061   31.2284 H   0  0  0  0  0  0
   52.3025  100.0523   31.1654 H   0  0  0  0  0  0
   51.5676  103.7041   29.0437 H   0  0  0  0  0  0
   50.7460  102.4597   27.1532 H   0  0  0  0  0  0
   50.9963   97.6745   26.9670 H   0  0  0  0  0  0
   49.2045   99.5958   23.8958 H   0  0  0  0  0  0
   49.6341  101.4680   25.4823 H   0  0  0  0  0  0
   53.8963  101.3656   31.7865 H   0  0  0  0  0  0
   54.3562  103.9750   32.9150 H   0  0  0  0  0  0
   55.3245  102.5668   33.1536 H   0  0  0  0  0  0
   54.4135  103.1344   35.3139 H   0  0  0  0  0  0
   53.5972  101.6925   34.8095 H   0  0  0  0  0  0
   51.4118  101.7406   35.7207 H   0  0  0  0  0  0
   49.2885  102.9064   36.1945 H   0  0  0  0  0  0
   49.0210  105.2921   35.6022 H   0  0  0  0  0  0
   51.5672  107.1026   33.8426 H   0  0  0  0  0  0
   53.0172  105.3715   34.0708 H   0  0  0  0  0  0
  1  2  1  0  0  0
  1 26  1  0  0  0
  1 27  1  0  0  0
  1 28  1  0  0  0
  2  3  1  0  0  0
  3  4  2  0  0  0
  3  8  1  0  0  0
  4  5  1  0  0  0
  4 29  1  0  0  0
  5  6  2  0  0  0
  5 14  1  0  0  0
  6  7  1  0  0  0
  6 30  1  0  0  0
  7  8  2  0  0  0
  7 31  1  0  0  0
  8  9  1  0  0  0
  9 10  1  0  0  0
  9 13  2  0  0  0
 10 11  2  0  0  0
 10 32  1  0  0  0
 11 12  1  0  0  0
 12 13  1  0  0  0
 12 33  1  0  0  0
 13 34  1  0  0  0
 14 15  2  0  0  0
 14 16  1  0  0  0
 16 17  1  0  0  0
 16 35  1  0  0  0
 17 18  1  0  0  0
 17 36  1  0  0  0
 17 37  1  0  0  0
 18 19  1  0  0  0
 18 38  1  0  0  0
 18 39  1  0  0  0
 19 20  2  0  0  0
 19 25  1  0  0  0
 20 21  1  0  0  0
 20 40  1  0  0  0
 21 22  2  0  0  0
 21 41  1  0  0  0
 22 23  1  0  0  0
 22 42  1  0  0  0
 23 24  1  0  0  0
 23 25  2  0  0  0
 24 43  1  0  0  0
 25 44  1  0  0  0
M  END
> <s_m_entry_id>
27996

> <s_m_entry_name>
dock_pv.157

> <s_m_Source_Path>
/home/csk/Desktop/cluster/DUD-E-result/rock1

> <s_m_Source_File>
dock_pv.maegz

> <i_m_Source_File_Index>
157

> <chembl_id>
CHEMBL3976118

> <chembl_pref_name>
None

> <i_lp_mmshare_version>
53161

> <r_lp_tautomer_probability>
0.499999999998682

> <s_lp_Force_Field>
OPLS_2005

> <r_lp_Energy>
20.84327

> <b_lp_Chiralities_Consistent>
1

> <s_lp_Variant>
CHEMBL3231_lig699-1

> <s_i_glide_gridfile>
glide-grid_2etr

> <i_i_glide_lignum>
995

> <i_i_glide_rotatable_bonds>
8

> <r_i_docking_score>
-8.20392282366796

> <r_i_glide_ligand_efficiency>
-0.328156912946719

> <r_i_glide_ligand_efficiency_sa>
-0.959536633343837

> <r_i_glide_ligand_efficiency_ln>
-1.94457556093732

> <r_i_glide_gscore>
-8.20392282366796

> <r_i_glide_lipo>
-2.13068425804647

> <r_i_glide_hbond>
-0.7860800270432

> <r_i_glide_metal>
0

> <r_i_glide_rewards>
-2.06925351019869

> <r_i_glide_evdw>
-38.4628944396973

> <r_i_glide_ecoul>
-12.8746252059937

> <r_i_glide_erotb>
0.697355633290412

> <r_i_glide_esite>
-0.0609221587861066

> <r_i_glide_emodel>
-76.935436132691

> <r_i_glide_energy>
-51.3375196456909

> <r_i_glide_einternal>
3.94292497634888

> <i_i_glide_confnum>
56

> <i_i_glide_posenum>
154

> <r_i_glide_eff_state_penalty>
0

> <s_user_duplicate_titles>
CHEMBL3231_lig699

> <i_f3d_flags>
0

> <s_m_subgroup_title>
dock_pv

> <s_m_subgroupid>
dock_pv

> <b_m_subgroup_collapsed>
1

$$$$
CHEMBL3231_lig46
                    3D
 Schrodinger Suite 2021-1.
 47 50  0  0  1  0            999 V2000
   52.5419  101.9469   32.9271 C   0  0  2  0  0  0
   52.5712  102.5658   31.5291 C   0  0  0  0  0  0
   53.5831  103.4015   31.2139 C   0  0  0  0  0  0
   54.4428  103.9030   32.1421 N   0  0  0  0  0  0
   54.3717  103.7474   33.4828 C   0  0  0  0  0  0
   53.1046  102.9809   33.9606 C   0  0  0  0  0  0
   55.2091  104.2224   34.2461 O   0  0  0  0  0  0
   53.8642  103.8927   29.8009 C   0  0  0  0  0  0
   51.6402  102.1007   30.5370 C   0  0  0  0  0  0
   50.5904  102.7030   30.2987 O   0  0  0  0  0  0
   52.1112  101.0256   29.8826 N   0  0  0  0  0  0
   51.5214  100.3487   28.8108 C   0  0  0  0  0  0
   51.5636   98.9517   28.8264 C   0  0  0  0  0  0
   51.0791   98.2008   27.7577 C   0  0  0  0  0  0
   50.9581  101.0404   27.7315 C   0  0  0  0  0  0
   50.4605  100.2998   26.6508 C   0  0  0  0  0  0
   50.5375   98.8717   26.6548 C   0  0  0  0  0  0
   50.0427   98.3156   25.5084 N   0  0  0  0  0  0
   49.6430   99.3902   24.8109 N   0  0  0  0  0  0
   49.8345  100.5988   25.4194 C   0  0  0  0  0  0
   53.2223  100.5631   32.9474 C   0  0  0  0  0  0
   54.6162  100.4212   32.9058 C   0  0  0  0  0  0
   55.1972   99.1566   32.8502 C   0  0  0  0  0  0
   54.3932   98.0123   32.8310 C   0  0  0  0  0  0
   53.0036   98.1502   32.8702 C   0  0  0  0  0  0
   52.4248   99.4151   32.9328 C   0  0  0  0  0  0
   55.0261   96.6211   32.7593 C   0  0  0  0  0  0
   55.2402   96.3028   31.4830 F   0  0  0  0  0  0
   54.2257   95.6955   33.2923 F   0  0  0  0  0  0
   56.1860   96.5811   33.4161 F   0  0  0  0  0  0
   52.0907   98.3026   29.8896 F   0  0  0  0  0  0
   51.5030  101.7595   33.2089 H   0  0  0  0  0  0
   55.2045  104.5003   31.8255 H   0  0  0  0  0  0
   52.3907  103.7990   34.0595 H   0  0  0  0  0  0
   53.2593  102.5494   34.9502 H   0  0  0  0  0  0
   54.4429  103.1353   29.2721 H   0  0  0  0  0  0
   52.9546  104.0758   29.2281 H   0  0  0  0  0  0
   54.4429  104.8096   29.7769 H   0  0  0  0  0  0
   52.9511  100.6068   30.2555 H   0  0  0  0  0  0
   51.1350   97.1226   27.7819 H   0  0  0  0  0  0
   50.9222  102.1189   27.7180 H   0  0  0  0  0  0
   49.2236   99.3023   23.8917 H   0  0  0  0  0  0
   49.5186  101.5028   24.9305 H   0  0  0  0  0  0
   55.2686  101.2798   32.8869 H   0  0  0  0  0  0
   56.2754   99.0678   32.8048 H   0  0  0  0  0  0
   52.3718   97.2730   32.8241 H   0  0  0  0  0  0
   51.3481   99.5025   32.9328 H   0  0  0  0  0  0
  1  6  1  0  0  0
  1 21  1  0  0  0
  1  2  1  0  0  0
  1 32  1  0  0  0
  2  9  1  0  0  0
  2  3  2  0  0  0
  3  8  1  0  0  0
  3  4  1  0  0  0
  4  5  1  0  0  0
  4 33  1  0  0  0
  5  6  1  0  0  0
  5  7  2  0  0  0
  6 34  1  0  0  0
  6 35  1  0  0  0
  8 36  1  0  0  0
  8 37  1  0  0  0
  8 38  1  0  0  0
  9 10  2  0  0  0
  9 11  1  0  0  0
 11 39  1  0  0  0
 11 12  1  0  0  0
 12 13  1  0  0  0
 12 15  2  0  0  0
 13 14  2  0  0  0
 13 31  1  0  0  0
 14 17  1  0  0  0
 14 40  1  0  0  0
 15 41  1  0  0  0
 15 16  1  0  0  0
 16 17  1  0  0  0
 16 20  2  0  0  0
 17 18  2  0  0  0
 18 19  1  0  0  0
 19 42  1  0  0  0
 19 20  1  0  0  0
 20 43  1  0  0  0
 21 22  2  0  0  0
 21 26  1  0  0  0
 22 23  1  0  0  0
 22 44  1  0  0  0
 23 24  2  0  0  0
 23 45  1  0  0  0
 24 25  1  0  0  0
 24 27  1  0  0  0
 25 26  2  0  0  0
 25 46  1  0  0  0
 26 47  1  0  0  0
 27 28  1  0  0  0
 27 29  1  0  0  0
 27 30  1  0  0  0
M  END
> <s_m_entry_id>
27997

> <s_m_entry_name>
dock_pv.158

> <s_m_Source_Path>
/home/csk/Desktop/cluster/DUD-E-result/rock1

> <s_m_Source_File>
dock_pv.maegz

> <i_m_Source_File_Index>
158

> <chembl_id>
CHEMBL375312

> <chembl_pref_name>
None

> <i_lp_mmshare_version>
53161

> <r_lp_tautomer_probability>
0.019607843137214

> <s_lp_Force_Field>
OPLS_2005

> <r_lp_Energy>
46.052357

> <b_lp_Chiralities_Consistent>
1

> <s_lp_Variant>
CHEMBL3231_lig46-3

> <s_i_glide_gridfile>
glide-grid_2etr

> <i_i_glide_lignum>
57

> <i_i_glide_rotatable_bonds>
5

> <r_i_docking_score>
-8.20127143592275

> <r_i_glide_ligand_efficiency>
-0.264557143094282

> <r_i_glide_ligand_efficiency_sa>
-0.831074689817019

> <r_i_glide_ligand_efficiency_ln>
-1.84963804758544

> <r_i_glide_gscore>
-8.20127143592275

> <r_i_glide_lipo>
-1.97362334354626

> <r_i_glide_hbond>
-0.63637714903331

> <r_i_glide_metal>
0

> <r_i_glide_rewards>
-1.96771327075819

> <r_i_glide_evdw>
-43.2886581420898

> <r_i_glide_ecoul>
-11.2266407012939

> <r_i_glide_erotb>
0.425750548183419

> <r_i_glide_esite>
-0.200879208469817

> <r_i_glide_emodel>
-78.5595874320907

> <r_i_glide_energy>
-54.5152988433838

> <r_i_glide_einternal>
5.30169534683228

> <i_i_glide_confnum>
51

> <i_i_glide_posenum>
166

> <r_i_glide_eff_state_penalty>
0

> <s_user_duplicate_titles>
CHEMBL3231_lig46,CHEMBL3231_lig46,365478

> <i_f3d_flags>
0

> <s_m_subgroup_title>
dock_pv

> <s_m_subgroupid>
dock_pv

> <b_m_subgroup_collapsed>
1

$$$$
CHEMBL3231_lig1327
                    3D
 Schrodinger Suite 2021-1.
 45 47  0  0  1  0            999 V2000
   52.0430  104.2778   32.0101 O   0  0  0  0  0  0
   55.6421  103.5034   32.8960 O   0  0  0  0  0  0
   53.0276  102.4878   32.9771 N   0  0  0  0  0  0
   50.0431   98.2748   25.2108 N   0  0  0  0  0  0
   51.3391  100.6984   28.5180 C   0  0  0  0  0  0
   52.0437  102.2481   30.7618 C   0  0  0  0  0  0
   50.9139   99.8613   27.3617 C   0  0  0  0  0  0
   52.3816  103.0946   31.9662 C   0  0  0  0  0  0
   52.2934  100.2368   29.4334 C   0  0  0  0  0  0
   50.7712  101.9611   28.7214 C   0  0  0  0  0  0
   52.6427  100.9975   30.5434 C   0  0  0  0  0  0
   51.1200  102.7269   29.8257 C   0  0  0  0  0  0
   53.5574  103.1588   34.1750 C   0  0  1  0  0  0
   50.8691   98.4609   27.4640 C   0  0  0  0  0  0
   50.5207  100.4440   26.1453 C   0  0  0  0  0  0
   53.0033  102.5348   35.4757 C   0  0  0  0  0  0
   51.4845  102.6014   35.6093 C   0  0  0  0  0  0
   50.4430   97.7090   26.3714 C   0  0  0  0  0  0
   50.0857   99.6248   25.1052 C   0  0  0  0  0  0
   55.1068  103.2094   34.1748 C   0  0  0  0  0  0
   50.8629  103.8272   35.8741 C   0  0  0  0  0  0
   50.7161  101.4413   35.4748 C   0  0  0  0  0  0
   49.4773  103.8889   36.0040 C   0  0  0  0  0  0
   49.3321  101.5047   35.6108 C   0  0  0  0  0  0
   48.7195  102.7283   35.8740 C   0  0  0  0  0  0
   55.3150  104.3542   32.5800 H   0  0  0  0  0  0
   53.2668  101.5139   32.8692 H   0  0  0  0  0  0
   52.7726   99.2788   29.2961 H   0  0  0  0  0  0
   50.0419  102.3554   28.0295 H   0  0  0  0  0  0
   53.3866  100.5970   31.2188 H   0  0  0  0  0  0
   50.6575  103.6956   29.9396 H   0  0  0  0  0  0
   53.2336  104.2030   34.1689 H   0  0  0  0  0  0
   51.1518   97.9527   28.3741 H   0  0  0  0  0  0
   50.5430  101.5128   25.9967 H   0  0  0  0  0  0
   53.4387  103.0357   36.3404 H   0  0  0  0  0  0
   53.3274  101.4944   35.5546 H   0  0  0  0  0  0
   50.4099   96.6292   26.4120 H   0  0  0  0  0  0
   49.7633  100.0446   24.1624 H   0  0  0  0  0  0
   55.4624  103.9707   34.8682 H   0  0  0  0  0  0
   55.5276  102.2519   34.4903 H   0  0  0  0  0  0
   51.4511  104.7268   35.9806 H   0  0  0  0  0  0
   51.1881  100.4924   35.2656 H   0  0  0  0  0  0
   48.9948  104.8334   36.2110 H   0  0  0  0  0  0
   48.7380  100.6104   35.5115 H   0  0  0  0  0  0
   47.6451  102.7758   35.9813 H   0  0  0  0  0  0
  1  8  2  0  0  0
  2 20  1  0  0  0
  2 26  1  0  0  0
  3  8  1  0  0  0
  3 13  1  0  0  0
  3 27  1  0  0  0
  4 18  2  0  0  0
  4 19  1  0  0  0
  5  7  1  0  0  0
  5  9  2  0  0  0
  5 10  1  0  0  0
  6  8  1  0  0  0
  6 11  2  0  0  0
  6 12  1  0  0  0
  7 14  2  0  0  0
  7 15  1  0  0  0
  9 11  1  0  0  0
  9 28  1  0  0  0
 10 12  2  0  0  0
 10 29  1  0  0  0
 11 30  1  0  0  0
 12 31  1  0  0  0
 13 16  1  0  0  0
 13 20  1  0  0  0
 13 32  1  0  0  0
 14 18  1  0  0  0
 14 33  1  0  0  0
 15 19  2  0  0  0
 15 34  1  0  0  0
 16 17  1  0  0  0
 16 35  1  0  0  0
 16 36  1  0  0  0
 17 21  2  0  0  0
 17 22  1  0  0  0
 18 37  1  0  0  0
 19 38  1  0  0  0
 20 39  1  0  0  0
 20 40  1  0  0  0
 21 23  1  0  0  0
 21 41  1  0  0  0
 22 24  2  0  0  0
 22 42  1  0  0  0
 23 25  2  0  0  0
 23 43  1  0  0  0
 24 25  1  0  0  0
 24 44  1  0  0  0
 25 45  1  0  0  0
M  END
> <s_m_entry_id>
27998

> <s_m_entry_name>
dock_pv.159

> <s_m_Source_Path>
/home/csk/Desktop/cluster/DUD-E-result/rock1

> <s_m_Source_File>
dock_pv.maegz

> <i_m_Source_File_Index>
159

> <chembl_id>
CHEMBL1998545

> <chembl_pref_name>
None

> <i_lp_mmshare_version>
53161

> <r_lp_tautomer_probability>
1

> <s_lp_Force_Field>
OPLS_2005

> <r_lp_Energy>
17.176488

> <b_lp_Chiralities_Consistent>
1

> <s_lp_Variant>
CHEMBL3231_lig1327-2

> <s_i_glide_gridfile>
glide-grid_2etr

> <i_i_glide_lignum>
1845

> <i_i_glide_rotatable_bonds>
8

> <r_i_docking_score>
-8.19111576671446

> <r_i_glide_ligand_efficiency>
-0.327644630668579

> <r_i_glide_ligand_efficiency_sa>
-0.958038710877191

> <r_i_glide_ligand_efficiency_ln>
-1.94153990464281

> <r_i_glide_gscore>
-8.19111576671446

> <r_i_glide_lipo>
-3.35128042464373

> <r_i_glide_hbond>
-0.461804623498272

> <r_i_glide_metal>
0

> <r_i_glide_rewards>
-2.53276392489568

> <r_i_glide_evdw>
-42.5464935302734

> <r_i_glide_ecoul>
-4.55805540084839

> <r_i_glide_erotb>
1.02277610095143

> <r_i_glide_esite>
-0.0570099079872858

> <r_i_glide_emodel>
-70.062146560711

> <r_i_glide_energy>
-47.1045489311218

> <r_i_glide_einternal>
3.4138879776001

> <i_i_glide_confnum>
54

> <i_i_glide_posenum>
37

> <r_i_glide_eff_state_penalty>
0

> <s_user_duplicate_titles>
CHEMBL3231_lig1327

> <i_f3d_flags>
0

> <s_m_subgroup_title>
dock_pv

> <s_m_subgroupid>
dock_pv

> <b_m_subgroup_collapsed>
1

$$$$
CHEMBL3231_lig821
                    3D
 Schrodinger Suite 2021-1.
 52 55  0  0  1  0            999 V2000
   51.3679   97.4440   30.3748 C   0  0  0  0  0  0
   51.2429   98.2453   29.2015 O   0  0  0  0  0  0
   51.3355   99.6243   29.2845 C   0  0  0  0  0  0
   51.6771  100.2807   30.4783 C   0  0  0  0  0  0
   51.6933  101.6804   30.5706 C   0  0  0  0  0  0
   51.4104  102.4276   29.4252 C   0  0  0  0  0  0
   51.0829  101.7929   28.2335 C   0  0  0  0  0  0
   51.0272  100.3963   28.1451 C   0  0  0  0  0  0
   50.5748   99.8103   26.8377 C   0  0  0  0  0  0
   50.5551   98.4687   26.4072 C   0  0  0  0  0  0
   50.0429   98.3033   25.2114 N   0  0  0  0  0  0
   49.7362   99.5359   24.8110 N   0  0  0  0  0  0
   50.0428  100.4842   25.7424 C   0  0  0  0  0  0
   51.9146  102.3802   31.8899 C   0  0  0  0  0  0
   51.4446  103.5028   32.0851 O   0  0  0  0  0  0
   52.6001  101.6948   32.8236 N   0  0  0  0  0  0
   52.8467  102.1254   34.2058 C   0  0  2  0  0  0
   53.7231  101.0819   34.9489 C   0  0  0  0  0  0
   54.5438  101.6563   36.0160 N   0  0  2  0  0  0
   55.7945  102.2031   35.5062 C   0  0  0  0  0  0
   55.8505  103.6751   35.1580 C   0  0  0  0  0  0
   56.5297  103.1735   36.4034 C   0  0  0  0  0  0
   51.5598  102.4464   34.9911 C   0  0  0  0  0  0
   51.4106  103.6835   35.6345 C   0  0  0  0  0  0
   52.3994  104.6040   35.5949 F   0  0  0  0  0  0
   50.2354  103.9850   36.3239 C   0  0  0  0  0  0
   49.1961  103.0586   36.3798 C   0  0  0  0  0  0
   49.3364  101.8239   35.7505 C   0  0  0  0  0  0
   50.5109  101.5139   35.0657 C   0  0  0  0  0  0
   50.6200  100.3030   34.4722 F   0  0  0  0  0  0
   51.2107   96.3990   30.1101 H   0  0  0  0  0  0
   52.3638   97.5212   30.8139 H   0  0  0  0  0  0
   50.6212   97.7060   31.1266 H   0  0  0  0  0  0
   51.8788   99.6979   31.3634 H   0  0  0  0  0  0
   51.4193  103.5085   29.4534 H   0  0  0  0  0  0
   50.8425  102.4099   27.3815 H   0  0  0  0  0  0
   50.9014   97.6121   26.9654 H   0  0  0  0  0  0
   49.3171   99.7233   23.9048 H   0  0  0  0  0  0
   49.8333  101.5262   25.5541 H   0  0  0  0  0  0
   53.1497  100.9134   32.4985 H   0  0  0  0  0  0
   53.4318  103.0392   34.0984 H   0  0  0  0  0  0
   53.0735  100.3238   35.3897 H   0  0  0  0  0  0
   54.3683  100.5390   34.2548 H   0  0  0  0  0  0
   54.7286  100.9815   36.7466 H   0  0  0  0  0  0
   56.4250  101.4947   34.9622 H   0  0  0  0  0  0
   56.4434  103.9507   34.2854 H   0  0  0  0  0  0
   54.9555  104.2889   35.2651 H   0  0  0  0  0  0
   56.1023  103.4119   37.3784 H   0  0  0  0  0  0
   57.6184  103.1031   36.4316 H   0  0  0  0  0  0
   50.1350  104.9427   36.8123 H   0  0  0  0  0  0
   48.2856  103.2904   36.9144 H   0  0  0  0  0  0
   48.5360  101.1013   35.7998 H   0  0  0  0  0  0
  1  2  1  0  0  0
  1 31  1  0  0  0
  1 32  1  0  0  0
  1 33  1  0  0  0
  2  3  1  0  0  0
  3  4  2  0  0  0
  3  8  1  0  0  0
  4  5  1  0  0  0
  4 34  1  0  0  0
  5  6  2  0  0  0
  5 14  1  0  0  0
  6  7  1  0  0  0
  6 35  1  0  0  0
  7  8  2  0  0  0
  7 36  1  0  0  0
  8  9  1  0  0  0
  9 10  1  0  0  0
  9 13  2  0  0  0
 10 11  2  0  0  0
 10 37  1  0  0  0
 11 12  1  0  0  0
 12 13  1  0  0  0
 12 38  1  0  0  0
 13 39  1  0  0  0
 14 15  2  0  0  0
 14 16  1  0  0  0
 16 17  1  0  0  0
 16 40  1  0  0  0
 17 18  1  0  0  0
 17 23  1  0  0  0
 17 41  1  0  0  0
 18 19  1  0  0  0
 18 42  1  0  0  0
 18 43  1  0  0  0
 19 20  1  0  0  0
 19 44  1  0  0  0
 20 21  1  0  0  0
 20 22  1  0  0  0
 20 45  1  0  0  0
 21 22  1  0  0  0
 21 46  1  0  0  0
 21 47  1  0  0  0
 22 48  1  0  0  0
 22 49  1  0  0  0
 23 24  2  0  0  0
 23 29  1  0  0  0
 24 25  1  0  0  0
 24 26  1  0  0  0
 26 27  2  0  0  0
 26 50  1  0  0  0
 27 28  1  0  0  0
 27 51  1  0  0  0
 28 29  2  0  0  0
 28 52  1  0  0  0
 29 30  1  0  0  0
M  END
> <s_m_entry_id>
27999

> <s_m_entry_name>
dock_pv.160

> <s_m_Source_Path>
/home/csk/Desktop/cluster/DUD-E-result/rock1

> <s_m_Source_File>
dock_pv.maegz

> <i_m_Source_File_Index>
160

> <chembl_id>
CHEMBL4110459

> <chembl_pref_name>
None

> <i_lp_mmshare_version>
53161

> <r_lp_tautomer_probability>
0.5

> <s_lp_Force_Field>
OPLS_2005

> <r_lp_Energy>
35.317395

> <b_lp_Chiralities_Consistent>
1

> <s_lp_Variant>
CHEMBL3231_lig821-1

> <s_i_glide_gridfile>
glide-grid_2etr

> <i_i_glide_lignum>
1149

> <i_i_glide_rotatable_bonds>
9

> <r_i_docking_score>
-8.18796208480479

> <r_i_glide_ligand_efficiency>
-0.272932069493493

> <r_i_glide_ligand_efficiency_sa>
-0.848063397285962

> <r_i_glide_ligand_efficiency_ln>
-1.86039420066012

> <r_i_glide_gscore>
-8.18796208480479

> <r_i_glide_lipo>
-2.78799311928378

> <r_i_glide_hbond>
-0.664168656503433

> <r_i_glide_metal>
0

> <r_i_glide_rewards>
-1.89543492752018

> <r_i_glide_evdw>
-44.5076866149902

> <r_i_glide_ecoul>
-7.01623487472534

> <r_i_glide_erotb>
0.486884394052774

> <r_i_glide_esite>
-0.0494302135918618

> <r_i_glide_emodel>
-75.7755847757567

> <r_i_glide_energy>
-51.5239214897156

> <r_i_glide_einternal>
3.21656441688538

> <i_i_glide_confnum>
36

> <i_i_glide_posenum>
357

> <r_i_glide_eff_state_penalty>
0

> <s_user_duplicate_titles>
CHEMBL3231_lig821

> <i_f3d_flags>
0

> <s_m_subgroup_title>
dock_pv

> <s_m_subgroupid>
dock_pv

> <b_m_subgroup_collapsed>
1

$$$$
CHEMBL3231_lig1359
                    3D
 Schrodinger Suite 2021-1.
 34 36  0  0  1  0            999 V2000
   50.9545  100.3039   33.3009 Cl  0  0  0  0  0  0
   55.5394   98.7896   35.6755 Cl  0  0  0  0  0  0
   51.6433  103.9029   31.1518 O   0  0  0  0  0  0
   52.2060   99.6917   29.7622 N   0  0  0  0  0  0
   50.5723  100.4493   26.5374 N   0  0  0  0  0  0
   50.0426   98.5031   25.2112 N   0  0  0  0  0  0
   53.8359  103.3636   31.1637 N   0  0  0  0  0  0
   49.6433  100.6685   24.4110 N   0  0  0  0  0  0
   52.6496  100.5745   30.7151 C   0  0  0  0  0  0
   52.3057  101.8531   30.2640 C   0  0  0  0  0  0
   51.5709  100.3372   28.7293 C   0  0  0  0  0  0
   53.3328  100.1131   31.9535 C   0  0  0  0  0  0
   51.6211  101.6888   29.0509 C   0  0  0  0  0  0
   51.0030   99.6387   27.5419 C   0  0  0  0  0  0
   52.6480   99.9795   33.1725 C   0  0  0  0  0  0
   52.5515  103.1111   30.9084 C   0  0  0  0  0  0
   54.6987   99.8186   31.8970 C   0  0  0  0  0  0
   53.3336   99.5664   34.3149 C   0  0  0  0  0  0
   50.9312   98.2451   27.4405 C   0  0  0  0  0  0
   54.6974   99.2889   34.2544 C   0  0  0  0  0  0
   55.3783   99.4145   33.0459 C   0  0  0  0  0  0
   50.1067   99.8398   25.4197 C   0  0  0  0  0  0
   50.4483   97.7188   26.2415 C   0  0  0  0  0  0
   52.3253   98.6907   29.8220 H   0  0  0  0  0  0
   54.5456  102.6809   30.9442 H   0  0  0  0  0  0
   54.1098  104.2618   31.5376 H   0  0  0  0  0  0
   49.2440  100.2876   23.5490 H   0  0  0  0  0  0
   49.6172  101.6590   24.5922 H   0  0  0  0  0  0
   51.2102  102.4860   28.4471 H   0  0  0  0  0  0
   55.2433   99.9039   30.9661 H   0  0  0  0  0  0
   52.8075   99.4624   35.2522 H   0  0  0  0  0  0
   51.2443   97.5913   28.2399 H   0  0  0  0  0  0
   56.4362   99.1982   32.9980 H   0  0  0  0  0  0
   50.4131   96.6528   26.0816 H   0  0  0  0  0  0
  1 15  1  0  0  0
  2 20  1  0  0  0
  3 16  2  0  0  0
  4  9  1  0  0  0
  4 11  1  0  0  0
  4 24  1  0  0  0
  5 14  1  0  0  0
  5 22  2  0  0  0
  6 22  1  0  0  0
  6 23  2  0  0  0
  7 16  1  0  0  0
  7 25  1  0  0  0
  7 26  1  0  0  0
  8 22  1  0  0  0
  8 27  1  0  0  0
  8 28  1  0  0  0
  9 10  2  0  0  0
  9 12  1  0  0  0
 10 13  1  0  0  0
 10 16  1  0  0  0
 11 13  2  0  0  0
 11 14  1  0  0  0
 12 15  1  0  0  0
 12 17  2  0  0  0
 13 29  1  0  0  0
 14 19  2  0  0  0
 15 18  2  0  0  0
 17 21  1  0  0  0
 17 30  1  0  0  0
 18 20  1  0  0  0
 18 31  1  0  0  0
 19 23  1  0  0  0
 19 32  1  0  0  0
 20 21  2  0  0  0
 21 33  1  0  0  0
 23 34  1  0  0  0
M  END
> <s_m_entry_id>
28000

> <s_m_entry_name>
dock_pv.161

> <s_m_Source_Path>
/home/csk/Desktop/cluster/DUD-E-result/rock1

> <s_m_Source_File>
dock_pv.maegz

> <i_m_Source_File_Index>
161

> <chembl_id>
CHEMBL1965660

> <chembl_pref_name>
None

> <i_lp_mmshare_version>
53161

> <r_lp_tautomer_probability>
0.999999987636

> <s_lp_Force_Field>
OPLS_2005

> <r_lp_Energy>
0.92001

> <b_lp_Chiralities_Consistent>
1

> <s_lp_Variant>
CHEMBL3231_lig1359-1

> <s_i_glide_gridfile>
glide-grid_2etr

> <i_i_glide_lignum>
1892

> <i_i_glide_rotatable_bonds>
3

> <r_i_docking_score>
-8.18398680740872

> <r_i_glide_ligand_efficiency>
-0.355825513365596

> <r_i_glide_ligand_efficiency_sa>
-1.01192042699153

> <r_i_glide_ligand_efficiency_ln>
-1.97896221832098

> <r_i_glide_gscore>
-8.18398680740872

> <r_i_glide_lipo>
-1.33639312804111

> <r_i_glide_hbond>
-0.634540318956531

> <r_i_glide_metal>
0

> <r_i_glide_rewards>
-2.57176116666667

> <r_i_glide_evdw>
-34.9835662841797

> <r_i_glide_ecoul>
-13.4591474533081

> <r_i_glide_erotb>
0.219798244055767

> <r_i_glide_esite>
-0.0930400055949793

> <r_i_glide_emodel>
-71.4870194196868

> <r_i_glide_energy>
-48.4427137374878

> <r_i_glide_einternal>
5.15716981887817

> <i_i_glide_confnum>
8

> <i_i_glide_posenum>
149

> <r_i_glide_eff_state_penalty>
0

> <s_user_duplicate_titles>
CHEMBL3231_lig1359

> <i_f3d_flags>
0

> <s_m_subgroup_title>
dock_pv

> <s_m_subgroupid>
dock_pv

> <b_m_subgroup_collapsed>
1

$$$$
CHEMBL3231_lig603
                    3D
 Schrodinger Suite 2021-1.
 44 46  0  0  1  0            999 V2000
   51.4236   97.6416   30.4064 C   0  0  0  0  0  0
   51.2438   98.3984   29.2103 O   0  0  0  0  0  0
   51.3503   99.7802   29.2341 C   0  0  0  0  0  0
   51.7256  100.4876   30.3915 C   0  0  0  0  0  0
   51.7554  101.8913   30.4208 C   0  0  0  0  0  0
   51.4582  102.5848   29.2439 C   0  0  0  0  0  0
   51.0940  101.9006   28.0919 C   0  0  0  0  0  0
   51.0236  100.5030   28.0689 C   0  0  0  0  0  0
   50.5457   99.8645   26.7944 C   0  0  0  0  0  0
   49.9278  100.4870   25.7142 C   0  0  0  0  0  0
   49.6452   99.5066   24.8110 N   0  0  0  0  0  0
   50.0430   98.3021   25.2111 N   0  0  0  0  0  0
   50.5868   98.5163   26.3862 C   0  0  0  0  0  0
   52.0045  102.6629   31.6983 C   0  0  0  0  0  0
   51.6446  103.8372   31.7911 O   0  0  0  0  0  0
   52.5600  101.9898   32.7237 N   0  0  0  0  0  0
   52.6382  102.4766   34.1039 C   0  0  0  0  0  0
   51.2671  102.6980   34.7415 C   0  0  0  0  0  0
   50.5093  101.6079   35.1782 C   0  0  0  0  0  0
   49.2367  101.8091   35.7075 C   0  0  0  0  0  0
   48.7205  103.0999   35.8127 C   0  0  0  0  0  0
   49.4702  104.2062   35.4100 C   0  0  0  0  0  0
   48.8486  105.4371   35.4992 O   0  0  0  0  0  0
   49.6177  106.6384   35.5257 C   0  0  0  0  0  0
   48.7571  107.6504   35.6102 F   0  0  0  0  0  0
   50.4282  106.6751   36.5849 F   0  0  0  0  0  0
   50.3036  106.8333   34.4043 F   0  0  0  0  0  0
   50.7586  103.9932   34.8882 C   0  0  0  0  0  0
   51.2431   96.5867   30.1959 H   0  0  0  0  0  0
   52.4415   97.7299   30.7876 H   0  0  0  0  0  0
   50.7180   97.9409   31.1837 H   0  0  0  0  0  0
   51.9431   99.9420   31.2961 H   0  0  0  0  0  0
   51.4822  103.6651   29.2161 H   0  0  0  0  0  0
   50.8428  102.4781   27.2168 H   0  0  0  0  0  0
   49.6485  101.5105   25.5146 H   0  0  0  0  0  0
   49.1937   99.6560   23.9126 H   0  0  0  0  0  0
   51.0076   97.6971   26.9467 H   0  0  0  0  0  0
   52.9740  101.0900   32.5343 H   0  0  0  0  0  0
   53.2460  103.3835   34.1529 H   0  0  0  0  0  0
   53.1784  101.7336   34.6944 H   0  0  0  0  0  0
   50.8945  100.6023   35.0821 H   0  0  0  0  0  0
   48.6443  100.9655   36.0265 H   0  0  0  0  0  0
   47.7241  103.2419   36.2060 H   0  0  0  0  0  0
   51.3692  104.8150   34.5468 H   0  0  0  0  0  0
  1  2  1  0  0  0
  1 29  1  0  0  0
  1 30  1  0  0  0
  1 31  1  0  0  0
  2  3  1  0  0  0
  3  4  2  0  0  0
  3  8  1  0  0  0
  4  5  1  0  0  0
  4 32  1  0  0  0
  5  6  2  0  0  0
  5 14  1  0  0  0
  6  7  1  0  0  0
  6 33  1  0  0  0
  7  8  2  0  0  0
  7 34  1  0  0  0
  8  9  1  0  0  0
  9 10  2  0  0  0
  9 13  1  0  0  0
 10 11  1  0  0  0
 10 35  1  0  0  0
 11 12  1  0  0  0
 11 36  1  0  0  0
 12 13  2  0  0  0
 13 37  1  0  0  0
 14 15  2  0  0  0
 14 16  1  0  0  0
 16 17  1  0  0  0
 16 38  1  0  0  0
 17 18  1  0  0  0
 17 39  1  0  0  0
 17 40  1  0  0  0
 18 19  2  0  0  0
 18 28  1  0  0  0
 19 20  1  0  0  0
 19 41  1  0  0  0
 20 21  2  0  0  0
 20 42  1  0  0  0
 21 22  1  0  0  0
 21 43  1  0  0  0
 22 23  1  0  0  0
 22 28  2  0  0  0
 23 24  1  0  0  0
 24 25  1  0  0  0
 24 26  1  0  0  0
 24 27  1  0  0  0
 28 44  1  0  0  0
M  END
> <s_m_entry_id>
28001

> <s_m_entry_name>
dock_pv.162

> <s_m_Source_Path>
/home/csk/Desktop/cluster/DUD-E-result/rock1

> <s_m_Source_File>
dock_pv.maegz

> <i_m_Source_File_Index>
162

> <chembl_id>
CHEMBL3976301

> <chembl_pref_name>
None

> <i_lp_mmshare_version>
53161

> <r_lp_tautomer_probability>
0.5

> <s_lp_Force_Field>
OPLS_2005

> <r_lp_Energy>
21.23383

> <b_lp_Chiralities_Consistent>
1

> <s_lp_Variant>
CHEMBL3231_lig603-1

> <s_i_glide_gridfile>
glide-grid_2etr

> <i_i_glide_lignum>
889

> <i_i_glide_rotatable_bonds>
8

> <r_i_docking_score>
-8.18052363482647

> <r_i_glide_ligand_efficiency>
-0.29216155838666

> <r_i_glide_ligand_efficiency_sa>
-0.887174565217522

> <r_i_glide_ligand_efficiency_ln>
-1.8883050455288

> <r_i_glide_gscore>
-8.18052363482647

> <r_i_glide_lipo>
-2.80491324750894

> <r_i_glide_hbond>
-0.676507222155002

> <r_i_glide_metal>
0

> <r_i_glide_rewards>
-1.72079993043369

> <r_i_glide_evdw>
-44.0196647644043

> <r_i_glide_ecoul>
-7.72797012329102

> <r_i_glide_erotb>
0.535144836082305

> <r_i_glide_esite>
-0.153269314097277

> <r_i_glide_emodel>
-75.5277237000553

> <r_i_glide_energy>
-51.7476348876953

> <r_i_glide_einternal>
4.09820938110352

> <i_i_glide_confnum>
44

> <i_i_glide_posenum>
310

> <r_i_glide_eff_state_penalty>
0

> <s_user_duplicate_titles>
CHEMBL3231_lig603

> <i_f3d_flags>
0

> <s_m_subgroup_title>
dock_pv

> <s_m_subgroupid>
dock_pv

> <b_m_subgroup_collapsed>
1

$$$$
CHEMBL3231_lig705
                    3D
 Schrodinger Suite 2021-1.
 44 46  0  0  1  0            999 V2000
   51.4595   97.7474   30.4051 C   0  0  0  0  0  0
   51.2439   98.4806   29.2002 O   0  0  0  0  0  0
   51.3071   99.8637   29.2076 C   0  0  0  0  0  0
   51.7397  100.5937   30.3291 C   0  0  0  0  0  0
   51.7220  101.9983   30.3425 C   0  0  0  0  0  0
   51.2642  102.6710   29.2072 C   0  0  0  0  0  0
   50.8559  101.9623   28.0844 C   0  0  0  0  0  0
   50.8860  100.5633   28.0595 C   0  0  0  0  0  0
   50.4468   99.8949   26.7915 C   0  0  0  0  0  0
   49.8654  100.4872   25.6757 C   0  0  0  0  0  0
   49.6430   99.4907   24.7774 N   0  0  0  0  0  0
   50.0429   98.2996   25.2113 N   0  0  0  0  0  0
   50.5247   98.5392   26.4073 C   0  0  0  0  0  0
   52.1233  102.7848   31.5645 C   0  0  0  0  0  0
   51.6437  103.9017   31.7683 O   0  0  0  0  0  0
   53.0033  102.2029   32.3972 N   0  0  0  0  0  0
   53.4607  102.7937   33.6569 C   0  0  0  0  0  0
   54.4635  103.9621   33.4923 C   0  0  2  0  0  0
   55.6122  103.5036   32.8122 O   0  0  0  0  0  0
   54.7959  104.6212   34.8298 C   0  0  0  0  0  0
   55.3762  103.8756   35.8625 C   0  0  0  0  0  0
   55.5929  104.4581   37.1084 C   0  0  0  0  0  0
   55.2427  105.7922   37.3174 C   0  0  0  0  0  0
   54.7000  106.5537   36.2844 C   0  0  0  0  0  0
   54.4753  105.9680   35.0406 C   0  0  0  0  0  0
   51.2465   96.6942   30.2234 H   0  0  0  0  0  0
   52.4953   97.8274   30.7388 H   0  0  0  0  0  0
   50.7951   98.0782   31.2037 H   0  0  0  0  0  0
   52.0681  100.0682   31.2135 H   0  0  0  0  0  0
   51.2323  103.7519   29.1826 H   0  0  0  0  0  0
   50.5229  102.5278   27.2287 H   0  0  0  0  0  0
   49.5892  101.5063   25.4498 H   0  0  0  0  0  0
   49.2321   99.6228   23.8573 H   0  0  0  0  0  0
   50.9321   97.7305   26.9928 H   0  0  0  0  0  0
   53.4542  101.3484   32.1025 H   0  0  0  0  0  0
   53.9235  101.9936   34.2352 H   0  0  0  0  0  0
   52.5937  103.1247   34.2326 H   0  0  0  0  0  0
   54.0061  104.7171   32.8474 H   0  0  0  0  0  0
   55.7760  104.1112   32.0779 H   0  0  0  0  0  0
   55.6450  102.8392   35.7028 H   0  0  0  0  0  0
   56.0245  103.8755   37.9098 H   0  0  0  0  0  0
   55.4078  106.2421   38.2854 H   0  0  0  0  0  0
   54.4449  107.5901   36.4488 H   0  0  0  0  0  0
   54.0424  106.5615   34.2474 H   0  0  0  0  0  0
  1  2  1  0  0  0
  1 26  1  0  0  0
  1 27  1  0  0  0
  1 28  1  0  0  0
  2  3  1  0  0  0
  3  4  2  0  0  0
  3  8  1  0  0  0
  4  5  1  0  0  0
  4 29  1  0  0  0
  5  6  2  0  0  0
  5 14  1  0  0  0
  6  7  1  0  0  0
  6 30  1  0  0  0
  7  8  2  0  0  0
  7 31  1  0  0  0
  8  9  1  0  0  0
  9 10  2  0  0  0
  9 13  1  0  0  0
 10 11  1  0  0  0
 10 32  1  0  0  0
 11 12  1  0  0  0
 11 33  1  0  0  0
 12 13  2  0  0  0
 13 34  1  0  0  0
 14 15  2  0  0  0
 14 16  1  0  0  0
 16 17  1  0  0  0
 16 35  1  0  0  0
 17 18  1  0  0  0
 17 36  1  0  0  0
 17 37  1  0  0  0
 18 19  1  0  0  0
 18 20  1  0  0  0
 18 38  1  0  0  0
 19 39  1  0  0  0
 20 21  2  0  0  0
 20 25  1  0  0  0
 21 22  1  0  0  0
 21 40  1  0  0  0
 22 23  2  0  0  0
 22 41  1  0  0  0
 23 24  1  0  0  0
 23 42  1  0  0  0
 24 25  2  0  0  0
 24 43  1  0  0  0
 25 44  1  0  0  0
M  END
> <s_m_entry_id>
28002

> <s_m_entry_name>
dock_pv.163

> <s_m_Source_Path>
/home/csk/Desktop/cluster/DUD-E-result/rock1

> <s_m_Source_File>
dock_pv.maegz

> <i_m_Source_File_Index>
163

> <chembl_id>
CHEMBL3898415

> <chembl_pref_name>
None

> <i_lp_mmshare_version>
53161

> <r_lp_tautomer_probability>
0.5

> <s_lp_Force_Field>
OPLS_2005

> <r_lp_Energy>
22.760945

> <b_lp_Chiralities_Consistent>
1

> <s_lp_Variant>
CHEMBL3231_lig705-1

> <s_i_glide_gridfile>
glide-grid_2etr

> <i_i_glide_lignum>
1002

> <i_i_glide_rotatable_bonds>
8

> <r_i_docking_score>
-8.1724215968775

> <r_i_glide_ligand_efficiency>
-0.3268968638751

> <r_i_glide_ligand_efficiency_sa>
-0.955852227511359

> <r_i_glide_ligand_efficiency_ln>
-1.93710882617239

> <r_i_glide_gscore>
-8.1724215968775

> <r_i_glide_lipo>
-1.9459693609192

> <r_i_glide_hbond>
-0.931988715204591

> <r_i_glide_metal>
0

> <r_i_glide_rewards>
-2.0859214565255

> <r_i_glide_evdw>
-36.0754890441895

> <r_i_glide_ecoul>
-12.8431968688965

> <r_i_glide_erotb>
0.581129694408677

> <r_i_glide_esite>
-0.0594177760929411

> <r_i_glide_emodel>
-72.3281678071883

> <r_i_glide_energy>
-48.9186859130859

> <r_i_glide_einternal>
3.30537533760071

> <i_i_glide_confnum>
38

> <i_i_glide_posenum>
324

> <r_i_glide_eff_state_penalty>
0

> <s_user_duplicate_titles>
CHEMBL3231_lig705

> <i_f3d_flags>
0

> <s_m_subgroup_title>
dock_pv

> <s_m_subgroupid>
dock_pv

> <b_m_subgroup_collapsed>
1

$$$$
CHEMBL3231_lig1334
                    3D
 Schrodinger Suite 2021-1.
 18 19  0  0  1  0            999 V2000
   51.8713   99.9914   28.9768 S   0  0  0  0  0  0
   50.8432  103.5030   30.1163 O   0  0  0  0  0  0
   50.4428   98.1795   25.6110 N   0  0  0  0  0  0
   52.8923  102.6027   30.3272 N   0  0  0  0  0  0
   51.1130   99.5811   27.4463 C   0  0  0  0  0  0
   50.5127  100.7147   26.8318 C   0  0  0  0  0  0
   51.3772  101.6672   28.7860 C   0  0  0  0  0  0
   50.6470  101.8804   27.6276 C   0  0  0  0  0  0
   51.6687  102.6519   29.7939 C   0  0  0  0  0  0
   51.0441   98.3335   26.8150 C   0  0  0  0  0  0
   49.8924  100.5395   25.5858 C   0  0  0  0  0  0
   49.9006   99.2678   25.0184 C   0  0  0  0  0  0
   53.5505  101.8927   30.0446 H   0  0  0  0  0  0
   53.1745  103.2985   31.0030 H   0  0  0  0  0  0
   50.2373  102.8381   27.3424 H   0  0  0  0  0  0
   51.4808   97.4576   27.2676 H   0  0  0  0  0  0
   49.4208  101.3654   25.0755 H   0  0  0  0  0  0
   49.4435   99.1033   24.0542 H   0  0  0  0  0  0
  1  5  1  0  0  0
  1  7  1  0  0  0
  2  9  2  0  0  0
  3 10  1  0  0  0
  3 12  2  0  0  0
  4  9  1  0  0  0
  4 13  1  0  0  0
  4 14  1  0  0  0
  5  6  1  0  0  0
  5 10  2  0  0  0
  6  8  1  0  0  0
  6 11  2  0  0  0
  7  8  2  0  0  0
  7  9  1  0  0  0
  8 15  1  0  0  0
 10 16  1  0  0  0
 11 12  1  0  0  0
 11 17  1  0  0  0
 12 18  1  0  0  0
M  END
> <s_m_entry_id>
28003

> <s_m_entry_name>
dock_pv.164

> <s_m_Source_Path>
/home/csk/Desktop/cluster/DUD-E-result/rock1

> <s_m_Source_File>
dock_pv.maegz

> <i_m_Source_File_Index>
164

> <chembl_id>
CHEMBL1971534

> <chembl_pref_name>
None

> <i_lp_mmshare_version>
53161

> <r_lp_tautomer_probability>
1

> <s_lp_Force_Field>
OPLS_2005

> <r_lp_Energy>
-0.30973

> <b_lp_Chiralities_Consistent>
1

> <s_lp_Variant>
CHEMBL3231_lig1334-1

> <s_i_glide_gridfile>
glide-grid_2etr

> <i_i_glide_lignum>
1854

> <i_i_glide_rotatable_bonds>
1

> <r_i_docking_score>
-8.17064835646659

> <r_i_glide_ligand_efficiency>
-0.680887363038882

> <r_i_glide_ligand_efficiency_sa>
-1.55884292279919

> <r_i_glide_ligand_efficiency_ln>
-2.34458169976049

> <r_i_glide_gscore>
-8.17064835646659

> <r_i_glide_lipo>
-2.15702396367798

> <r_i_glide_hbond>
-0.187324758383021

> <r_i_glide_metal>
0

> <r_i_glide_rewards>
-3.61067548484848

> <r_i_glide_evdw>
-26.4386577606201

> <r_i_glide_ecoul>
-5.75807809829712

> <r_i_glide_erotb>
0

> <r_i_glide_esite>
-0.0299795467815246

> <r_i_glide_emodel>
-47.6344909209407

> <r_i_glide_energy>
-32.1967358589172

> <r_i_glide_einternal>
2.54161381721497

> <i_i_glide_confnum>
1

> <i_i_glide_posenum>
160

> <r_i_glide_eff_state_penalty>
0

> <s_user_duplicate_titles>
CHEMBL3231_lig1334

> <i_f3d_flags>
0

> <s_m_subgroup_title>
dock_pv

> <s_m_subgroupid>
dock_pv

> <b_m_subgroup_collapsed>
1

$$$$
CHEMBL3231_lig670
                    3D
 Schrodinger Suite 2021-1.
 48 50  0  0  1  0            999 V2000
   51.4294   97.5147   30.4151 C   0  0  0  0  0  0
   51.2432   98.2604   29.2136 O   0  0  0  0  0  0
   51.4211   99.6339   29.2087 C   0  0  0  0  0  0
   51.8508  100.3496   30.3408 C   0  0  0  0  0  0
   51.9504  101.7510   30.3294 C   0  0  0  0  0  0
   51.6575  102.4308   29.1459 C   0  0  0  0  0  0
   51.2415  101.7371   28.0187 C   0  0  0  0  0  0
   51.1075  100.3463   28.0330 C   0  0  0  0  0  0
   50.5865   99.7111   26.7798 C   0  0  0  0  0  0
   50.6056   98.3616   26.3783 C   0  0  0  0  0  0
   50.0430   98.1520   25.2110 N   0  0  0  0  0  0
   49.6528   99.3610   24.8107 N   0  0  0  0  0  0
   49.9518  100.3386   25.7124 C   0  0  0  0  0  0
   52.2703  102.5421   31.5742 C   0  0  0  0  0  0
   51.9248  103.7236   31.6598 O   0  0  0  0  0  0
   52.8887  101.8824   32.5713 N   0  0  0  0  0  0
   53.0793  102.3972   33.9301 C   0  0  0  0  0  0
   51.7699  102.7072   34.6520 C   0  0  0  0  0  0
   51.0451  101.6924   35.2789 C   0  0  0  0  0  0
   49.8390  101.9875   35.9093 C   0  0  0  0  0  0
   49.3609  103.2974   35.9254 C   0  0  0  0  0  0
   50.0821  104.3464   35.3258 C   0  0  0  0  0  0
   51.2983  104.0222   34.7019 C   0  0  0  0  0  0
   49.5956  105.6846   35.3271 N   0  0  0  0  0  0
   48.4431  106.0256   36.1577 C   0  0  0  0  0  0
   50.5069  106.7878   35.0137 C   0  0  0  0  0  0
   51.2250   96.4628   30.2207 H   0  0  0  0  0  0
   52.4547   97.5870   30.7801 H   0  0  0  0  0  0
   50.7462   97.8385   31.2011 H   0  0  0  0  0  0
   52.0600   99.8178   31.2554 H   0  0  0  0  0  0
   51.7275  103.5089   29.0967 H   0  0  0  0  0  0
   51.0046  102.3030   27.1319 H   0  0  0  0  0  0
   51.0316   97.5392   26.9332 H   0  0  0  0  0  0
   49.1970   99.5152   23.9151 H   0  0  0  0  0  0
   49.6863  101.3678   25.5178 H   0  0  0  0  0  0
   53.2966  100.9842   32.3652 H   0  0  0  0  0  0
   53.7289  103.2752   33.9086 H   0  0  0  0  0  0
   53.6284  101.6485   34.5030 H   0  0  0  0  0  0
   51.4063  100.6745   35.2614 H   0  0  0  0  0  0
   49.2719  101.2022   36.3859 H   0  0  0  0  0  0
   48.4183  103.4708   36.4206 H   0  0  0  0  0  0
   51.8875  104.7845   34.2138 H   0  0  0  0  0  0
   47.5888  105.3838   35.9412 H   0  0  0  0  0  0
   48.6977  105.8956   37.2107 H   0  0  0  0  0  0
   48.1257  107.0575   36.0108 H   0  0  0  0  0  0
   50.9200  106.6837   34.0109 H   0  0  0  0  0  0
   50.0170  107.7612   35.0741 H   0  0  0  0  0  0
   51.3462  106.7963   35.7128 H   0  0  0  0  0  0
  1  2  1  0  0  0
  1 27  1  0  0  0
  1 28  1  0  0  0
  1 29  1  0  0  0
  2  3  1  0  0  0
  3  4  2  0  0  0
  3  8  1  0  0  0
  4  5  1  0  0  0
  4 30  1  0  0  0
  5  6  2  0  0  0
  5 14  1  0  0  0
  6  7  1  0  0  0
  6 31  1  0  0  0
  7  8  2  0  0  0
  7 32  1  0  0  0
  8  9  1  0  0  0
  9 10  1  0  0  0
  9 13  2  0  0  0
 10 11  2  0  0  0
 10 33  1  0  0  0
 11 12  1  0  0  0
 12 13  1  0  0  0
 12 34  1  0  0  0
 13 35  1  0  0  0
 14 15  2  0  0  0
 14 16  1  0  0  0
 16 17  1  0  0  0
 16 36  1  0  0  0
 17 18  1  0  0  0
 17 37  1  0  0  0
 17 38  1  0  0  0
 18 19  2  0  0  0
 18 23  1  0  0  0
 19 20  1  0  0  0
 19 39  1  0  0  0
 20 21  2  0  0  0
 20 40  1  0  0  0
 21 22  1  0  0  0
 21 41  1  0  0  0
 22 23  2  0  0  0
 22 24  1  0  0  0
 23 42  1  0  0  0
 24 25  1  0  0  0
 24 26  1  0  0  0
 25 43  1  0  0  0
 25 44  1  0  0  0
 25 45  1  0  0  0
 26 46  1  0  0  0
 26 47  1  0  0  0
 26 48  1  0  0  0
M  END
> <s_m_entry_id>
28004

> <s_m_entry_name>
dock_pv.165

> <s_m_Source_Path>
/home/csk/Desktop/cluster/DUD-E-result/rock1

> <s_m_Source_File>
dock_pv.maegz

> <i_m_Source_File_Index>
165

> <chembl_id>
CHEMBL3957117

> <chembl_pref_name>
None

> <i_lp_mmshare_version>
53161

> <r_lp_tautomer_probability>
0.5

> <s_lp_Force_Field>
OPLS_2005

> <r_lp_Energy>
24.040786

> <b_lp_Chiralities_Consistent>
1

> <s_lp_Variant>
CHEMBL3231_lig670-1

> <s_i_glide_gridfile>
glide-grid_2etr

> <i_i_glide_lignum>
961

> <i_i_glide_rotatable_bonds>
7

> <r_i_docking_score>
-8.17054059898748

> <r_i_glide_ligand_efficiency>
-0.314251561499519

> <r_i_glide_ligand_efficiency_sa>
-0.930969014422139

> <r_i_glide_ligand_efficiency_ln>
-1.91882464994181

> <r_i_glide_gscore>
-8.17054059898748

> <r_i_glide_lipo>
-2.7929872455804

> <r_i_glide_hbond>
-0.671571437812077

> <r_i_glide_metal>
0

> <r_i_glide_rewards>
-1.94657474799367

> <r_i_glide_evdw>
-43.6558952331543

> <r_i_glide_ecoul>
-7.13777637481689

> <r_i_glide_erotb>
0.543300596175636

> <r_i_glide_esite>
-0.0492465458967251

> <r_i_glide_emodel>
-75.0376620191556

> <r_i_glide_energy>
-50.7936716079712

> <r_i_glide_einternal>
3.81288862228394

> <i_i_glide_confnum>
31

> <i_i_glide_posenum>
207

> <r_i_glide_eff_state_penalty>
0

> <s_user_duplicate_titles>
CHEMBL3231_lig670

> <i_f3d_flags>
0

> <s_m_subgroup_title>
dock_pv

> <s_m_subgroupid>
dock_pv

> <b_m_subgroup_collapsed>
1

$$$$
CHEMBL3231_lig1059 
                    3D
 Schrodinger Suite 2021-1.
 63 66  0  0  1  0            999 V2000
   49.1528  104.1668   35.9369 C   0  0  0  0  0  0
   48.7702  105.5062   35.9887 C   0  0  0  0  0  0
   49.6088  106.5095   35.5012 C   0  0  0  0  0  0
   50.8434  106.1428   34.9417 C   0  0  0  0  0  0
   50.3870  103.8181   35.3897 C   0  0  0  0  0  0
   51.2490  104.8094   34.8788 C   0  0  0  0  0  0
   52.6042  104.4231   34.2943 C   0  0  0  0  0  0
   52.6249  102.9327   33.8736 C   0  0  1  0  0  0
   51.9984  102.0974   35.0196 C   0  0  0  0  0  0
   50.6360  102.4600   35.2862 O   0  0  0  0  0  0
   51.8737  102.6850   32.5434 C   0  0  0  0  0  0
   50.7282  103.1030   32.3662 O   0  0  0  0  0  0
   52.5330  101.9432   31.6376 N   0  0  0  0  0  0
   52.0701  101.5112   30.3845 C   0  0  0  0  0  0
   52.4783  100.2384   29.9672 C   0  0  0  0  0  0
   52.0390   99.7541   28.7261 C   0  0  0  0  0  0
   51.2233  100.5326   27.8951 C   0  0  0  0  0  0
   50.8436  101.8100   28.3208 C   0  0  0  0  0  0
   51.2631  102.2984   29.5551 C   0  0  0  0  0  0
   53.2849   99.5330   30.8401 O   0  0  0  0  0  0
   53.8395   98.2796   30.4712 C   0  0  0  0  0  0
   54.9384   97.9245   31.4899 C   0  0  0  0  0  0
   54.4701   97.7532   32.8723 N   0  0  0  0  0  0
   53.6174   96.5773   33.0192 C   0  0  0  0  0  0
   55.6309   97.6168   33.7492 C   0  0  0  0  0  0
   50.7597  100.0504   26.5565 C   0  0  0  0  0  0
   50.5338  100.8428   25.4438 C   0  0  0  0  0  0
   50.0601  100.0161   24.4679 N   0  0  0  0  0  0
   50.0428   98.7424   24.8481 N   0  0  0  0  0  0
   50.4158   98.7530   26.1140 C   0  0  0  0  0  0
   49.1663  107.8127   35.6062 O   0  0  0  0  0  0
   50.0698  108.8734   35.2966 C   0  0  0  0  0  0
   50.3768   97.4577   26.8835 C   0  0  0  0  0  0
   48.4910  103.3963   36.3047 H   0  0  0  0  0  0
   47.8094  105.7634   36.4100 H   0  0  0  0  0  0
   51.5155  106.8918   34.5476 H   0  0  0  0  0  0
   53.3637  104.5946   35.0601 H   0  0  0  0  0  0
   52.8364  105.0895   33.4585 H   0  0  0  0  0  0
   53.6626  102.6308   33.7149 H   0  0  0  0  0  0
   52.0746  101.0273   34.8205 H   0  0  0  0  0  0
   52.5722  102.2713   35.9326 H   0  0  0  0  0  0
   53.3934  101.5020   31.9330 H   0  0  0  0  0  0
   52.3483   98.7785   28.3995 H   0  0  0  0  0  0
   50.2187  102.4319   27.6982 H   0  0  0  0  0  0
   50.9655  103.2926   29.8520 H   0  0  0  0  0  0
   53.0630   97.5159   30.4175 H   0  0  0  0  0  0
   54.3128   98.3497   29.4934 H   0  0  0  0  0  0
   55.4941   97.0442   31.1555 H   0  0  0  0  0  0
   55.6434   98.7546   31.4742 H   0  0  0  0  0  0
   53.3233   96.4373   34.0591 H   0  0  0  0  0  0
   52.7000   96.7032   32.4492 H   0  0  0  0  0  0
   54.1098   95.6651   32.6796 H   0  0  0  0  0  0
   55.3184   97.5238   34.7893 H   0  0  0  0  0  0
   56.2336   96.7434   33.4926 H   0  0  0  0  0  0
   56.2716   98.4976   33.6821 H   0  0  0  0  0  0
   50.6472  101.9029   25.2765 H   0  0  0  0  0  0
   49.7613  100.3014   23.5391 H   0  0  0  0  0  0
   49.6432  109.8245   35.6047 H   0  0  0  0  0  0
   51.0178  108.7694   35.8276 H   0  0  0  0  0  0
   50.2672  108.9261   34.2241 H   0  0  0  0  0  0
   51.3294   97.2088   27.3398 H   0  0  0  0  0  0
   49.6434   97.5044   27.6887 H   0  0  0  0  0  0
   50.1060   96.6049   26.2609 H   0  0  0  0  0  0
  1  5  1  0  0  0
  1  2  2  0  0  0
  1 34  1  0  0  0
  2  3  1  0  0  0
  2 35  1  0  0  0
  3  4  2  0  0  0
  3 31  1  0  0  0
  4  6  1  0  0  0
  4 36  1  0  0  0
  5  6  2  0  0  0
  5 10  1  0  0  0
  6  7  1  0  0  0
  7  8  1  0  0  0
  7 37  1  0  0  0
  7 38  1  0  0  0
  8  9  1  0  0  0
  8 11  1  0  0  0
  8 39  1  0  0  0
  9 10  1  0  0  0
  9 40  1  0  0  0
  9 41  1  0  0  0
 11 12  2  0  0  0
 11 13  1  0  0  0
 13 14  1  0  0  0
 13 42  1  0  0  0
 14 15  2  0  0  0
 14 19  1  0  0  0
 15 16  1  0  0  0
 15 20  1  0  0  0
 16 17  2  0  0  0
 16 43  1  0  0  0
 17 18  1  0  0  0
 17 26  1  0  0  0
 18 19  2  0  0  0
 18 44  1  0  0  0
 19 45  1  0  0  0
 20 21  1  0  0  0
 21 22  1  0  0  0
 21 46  1  0  0  0
 21 47  1  0  0  0
 22 23  1  0  0  0
 22 48  1  0  0  0
 22 49  1  0  0  0
 23 24  1  0  0  0
 23 25  1  0  0  0
 24 50  1  0  0  0
 24 51  1  0  0  0
 24 52  1  0  0  0
 25 53  1  0  0  0
 25 54  1  0  0  0
 25 55  1  0  0  0
 26 27  2  0  0  0
 26 30  1  0  0  0
 27 28  1  0  0  0
 27 56  1  0  0  0
 28 29  1  0  0  0
 28 57  1  0  0  0
 29 30  2  0  0  0
 30 33  1  0  0  0
 31 32  1  0  0  0
 32 58  1  0  0  0
 32 59  1  0  0  0
 32 60  1  0  0  0
 33 61  1  0  0  0
 33 62  1  0  0  0
 33 63  1  0  0  0
M  END
> <s_m_entry_id>
28005

> <s_m_entry_name>
dock_pv.166

> <s_m_Source_Path>
/home/csk/Desktop/cluster/DUD-E-result/rock1

> <s_m_Source_File>
dock_pv.maegz

> <i_m_Source_File_Index>
166

> <chembl_id>
CHEMBL4570327

> <chembl_pref_name>
None

> <i_lp_mmshare_version>
53161

> <r_lp_tautomer_probability>
0.5

> <s_lp_Force_Field>
OPLS_2005

> <r_lp_Energy>
36.402223

> <b_lp_Chiralities_Consistent>
1

> <s_lp_Variant>
CHEMBL3231_lig1059 -2

> <s_i_glide_gridfile>
glide-grid_2etr

> <i_i_glide_lignum>
1480

> <i_i_glide_rotatable_bonds>
9

> <r_i_docking_score>
-8.16923686946438

> <r_i_glide_ligand_efficiency>
-0.247552632408012

> <r_i_glide_ligand_efficiency_sa>
-0.794033566004086

> <r_i_glide_ligand_efficiency_ln>
-1.81679598172411

> <r_i_glide_gscore>
-8.16923686946438

> <r_i_glide_lipo>
-2.71659924409142

> <r_i_glide_hbond>
-0.5429935920291

> <r_i_glide_metal>
0

> <r_i_glide_rewards>
-1.46802013985063

> <r_i_glide_evdw>
-46.5135536193848

> <r_i_glide_ecoul>
-10.3109254837036

> <r_i_glide_erotb>
0.484013287054101

> <r_i_glide_esite>
-0.0533206770225511

> <r_i_glide_emodel>
-85.0126889768325

> <r_i_glide_energy>
-56.8244791030884

> <r_i_glide_einternal>
4.26967334747314

> <i_i_glide_confnum>
18

> <i_i_glide_posenum>
25

> <r_i_glide_eff_state_penalty>
0

> <s_user_duplicate_titles>
CHEMBL3231_lig1059 

> <i_f3d_flags>
0

> <s_m_subgroup_title>
dock_pv

> <s_m_subgroupid>
dock_pv

> <b_m_subgroup_collapsed>
1

$$$$
CHEMBL3231_lig77
                    3D
 Schrodinger Suite 2021-1.
 54 57  0  0  1  0            999 V2000
   50.6967   99.7747   26.8192 C   0  0  0  0  0  0
   51.2275  100.3055   28.1092 C   0  0  0  0  0  0
   51.7791   99.4542   29.0775 C   0  0  0  0  0  0
   52.2263   99.9515   30.3136 C   0  0  0  0  0  0
   52.1213  101.3284   30.5600 C   0  0  0  0  0  0
   51.6090  102.1890   29.5807 C   0  0  0  0  0  0
   51.1557  101.6778   28.3710 C   0  0  0  0  0  0
   52.5650  101.8196   31.7982 N   0  0  0  0  0  0
   51.8767  102.6570   32.5977 C   0  0  0  0  0  0
   52.5492  103.0477   33.9375 C   0  0  1  0  0  0
   50.7647  103.1030   32.3022 O   0  0  0  0  0  0
   52.7214  104.5847   34.0760 C   0  0  0  0  0  0
   51.4523  105.2414   34.1564 O   0  0  0  0  0  0
   51.7527  102.5071   35.0115 O   0  0  0  0  0  0
   50.7133  103.3115   35.4441 C   0  0  0  0  0  0
   50.5983  104.6608   35.0682 C   0  0  0  0  0  0
   49.5544  105.4425   35.5566 C   0  0  0  0  0  0
   48.6288  104.8819   36.4368 C   0  0  0  0  0  0
   48.7484  103.5421   36.8197 C   0  0  0  0  0  0
   49.7898  102.7547   36.3256 C   0  0  0  0  0  0
   50.1807  100.4834   25.7393 C   0  0  0  0  0  0
   49.8084   99.5523   24.8107 N   0  0  0  0  0  0
   50.0431   98.3020   25.2112 N   0  0  0  0  0  0
   50.5755   98.4359   26.4037 C   0  0  0  0  0  0
   52.7300   99.1676   31.3375 O   0  0  0  0  0  0
   52.9887   97.7797   31.1398 C   0  0  0  0  0  0
   53.2909   97.1027   32.4956 C   0  0  0  0  0  0
   54.3289   97.7581   33.3047 N   0  0  0  0  0  0
   54.4363   97.0976   34.6037 C   0  0  0  0  0  0
   55.6368   97.7458   32.6516 C   0  0  0  0  0  0
   51.8435   98.3987   28.8675 H   0  0  0  0  0  0
   51.5544  103.2538   29.7588 H   0  0  0  0  0  0
   50.7433  102.3593   27.6398 H   0  0  0  0  0  0
   53.3751  101.3522   32.1812 H   0  0  0  0  0  0
   53.5249  102.5609   33.9517 H   0  0  0  0  0  0
   53.3161  104.9995   33.2595 H   0  0  0  0  0  0
   53.2757  104.7896   34.9935 H   0  0  0  0  0  0
   49.4636  106.4746   35.2514 H   0  0  0  0  0  0
   47.8209  105.4955   36.8107 H   0  0  0  0  0  0
   48.0424  103.1044   37.5075 H   0  0  0  0  0  0
   49.8823  101.7209   36.6278 H   0  0  0  0  0  0
   50.0432  101.5389   25.5555 H   0  0  0  0  0  0
   49.3930   99.7635   23.9061 H   0  0  0  0  0  0
   50.8646   97.5643   26.9754 H   0  0  0  0  0  0
   52.1162   97.2805   30.7151 H   0  0  0  0  0  0
   53.8143   97.6482   30.4396 H   0  0  0  0  0  0
   52.3694   97.1019   33.0770 H   0  0  0  0  0  0
   53.5534   96.0559   32.3294 H   0  0  0  0  0  0
   55.1750   97.5998   35.2310 H   0  0  0  0  0  0
   53.4856   97.1325   35.1379 H   0  0  0  0  0  0
   54.7312   96.0514   34.5052 H   0  0  0  0  0  0
   56.3943   98.2093   33.2862 H   0  0  0  0  0  0
   55.9684   96.7318   32.4176 H   0  0  0  0  0  0
   55.6153   98.3175   31.7238 H   0  0  0  0  0  0
  1 21  2  0  0  0
  1 24  1  0  0  0
  1  2  1  0  0  0
  2  7  1  0  0  0
  2  3  2  0  0  0
  3  4  1  0  0  0
  3 31  1  0  0  0
  4  5  2  0  0  0
  4 25  1  0  0  0
  5  8  1  0  0  0
  5  6  1  0  0  0
  6  7  2  0  0  0
  6 32  1  0  0  0
  7 33  1  0  0  0
  8  9  1  0  0  0
  8 34  1  0  0  0
  9 10  1  0  0  0
  9 11  2  0  0  0
 10 12  1  0  0  0
 10 14  1  0  0  0
 10 35  1  0  0  0
 12 13  1  0  0  0
 12 36  1  0  0  0
 12 37  1  0  0  0
 13 16  1  0  0  0
 14 15  1  0  0  0
 15 16  2  0  0  0
 15 20  1  0  0  0
 16 17  1  0  0  0
 17 18  2  0  0  0
 17 38  1  0  0  0
 18 19  1  0  0  0
 18 39  1  0  0  0
 19 20  2  0  0  0
 19 40  1  0  0  0
 20 41  1  0  0  0
 21 22  1  0  0  0
 21 42  1  0  0  0
 22 23  1  0  0  0
 22 43  1  0  0  0
 23 24  2  0  0  0
 24 44  1  0  0  0
 25 26  1  0  0  0
 26 27  1  0  0  0
 26 45  1  0  0  0
 26 46  1  0  0  0
 27 28  1  0  0  0
 27 47  1  0  0  0
 27 48  1  0  0  0
 28 29  1  0  0  0
 28 30  1  0  0  0
 29 49  1  0  0  0
 29 50  1  0  0  0
 29 51  1  0  0  0
 30 52  1  0  0  0
 30 53  1  0  0  0
 30 54  1  0  0  0
M  END
> <s_m_entry_id>
28006

> <s_m_entry_name>
dock_pv.167

> <s_m_Source_Path>
/home/csk/Desktop/cluster/DUD-E-result/rock1

> <s_m_Source_File>
dock_pv.maegz

> <i_m_Source_File_Index>
167

> <chembl_id>
CHEMBL521179

> <chembl_pref_name>
SR-3677

> <i_lp_mmshare_version>
53161

> <r_lp_tautomer_probability>
0.5

> <s_lp_Force_Field>
OPLS_2005

> <r_lp_Energy>
32.84374

> <b_lp_Chiralities_Consistent>
1

> <s_lp_Variant>
CHEMBL3231_lig77-2

> <s_i_glide_gridfile>
glide-grid_2etr

> <i_i_glide_lignum>
107

> <i_i_glide_rotatable_bonds>
8

> <r_i_docking_score>
-8.1616480989376

> <r_i_glide_ligand_efficiency>
-0.272054936631253

> <r_i_glide_ligand_efficiency_sa>
-0.84533794154746

> <r_i_glide_ligand_efficiency_ln>
-1.85441537635726

> <r_i_glide_gscore>
-8.1616480989376

> <r_i_glide_lipo>
-2.86172522998656

> <r_i_glide_hbond>
-0.644853141590965

> <r_i_glide_metal>
0

> <r_i_glide_rewards>
-1.56700068327345

> <r_i_glide_evdw>
-45.4133338928223

> <r_i_glide_ecoul>
-8.97209739685059

> <r_i_glide_erotb>
0.578061868107289

> <r_i_glide_esite>
-0.0496496080252184

> <r_i_glide_emodel>
-79.3413100596217

> <r_i_glide_energy>
-54.3854312896729

> <r_i_glide_einternal>
6.32620906829834

> <i_i_glide_confnum>
127

> <i_i_glide_posenum>
352

> <r_i_glide_eff_state_penalty>
0

> <s_user_duplicate_titles>
CHEMBL3231_lig77

> <i_f3d_flags>
0

> <s_m_subgroup_title>
dock_pv

> <s_m_subgroupid>
dock_pv

> <b_m_subgroup_collapsed>
1

$$$$
CHEMBL3231_lig597
                    3D
 Schrodinger Suite 2021-1.
 44 46  0  0  1  0            999 V2000
   51.4295   97.6482   30.4130 C   0  0  0  0  0  0
   51.2442   98.4064   29.2198 O   0  0  0  0  0  0
   51.3579   99.7875   29.2409 C   0  0  0  0  0  0
   51.7406  100.4985   30.3944 C   0  0  0  0  0  0
   51.7752  101.9022   30.4177 C   0  0  0  0  0  0
   51.4640  102.5899   29.2405 C   0  0  0  0  0  0
   51.0946  101.9011   28.0931 C   0  0  0  0  0  0
   51.0241  100.5047   28.0724 C   0  0  0  0  0  0
   50.5453   99.8642   26.7999 C   0  0  0  0  0  0
   50.5870   98.5173   26.3899 C   0  0  0  0  0  0
   50.0434   98.3028   25.2126 N   0  0  0  0  0  0
   49.6472   99.5070   24.8102 N   0  0  0  0  0  0
   49.9269  100.4864   25.7156 C   0  0  0  0  0  0
   52.0326  102.6793   31.6906 C   0  0  0  0  0  0
   51.6435  103.8438   31.7961 O   0  0  0  0  0  0
   52.6407  102.0278   32.6974 N   0  0  0  0  0  0
   52.7307  102.5207   34.0766 C   0  0  0  0  0  0
   51.3743  102.6157   34.7847 C   0  0  0  0  0  0
   50.6557  101.4353   35.0179 C   0  0  0  0  0  0
   49.3980  101.4794   35.6110 C   0  0  0  0  0  0
   48.8424  102.7034   35.9704 C   0  0  0  0  0  0
   49.5501  103.8821   35.7502 C   0  0  0  0  0  0
   50.8290  103.8560   35.1681 C   0  0  0  0  0  0
   51.5851  104.9951   34.9425 O   0  0  0  0  0  0
   51.1589  106.2657   35.4379 C   0  0  0  0  0  0
   50.9492  106.2380   36.7557 F   0  0  0  0  0  0
   52.1400  107.1371   35.2215 F   0  0  0  0  0  0
   50.0664  106.6954   34.7994 F   0  0  0  0  0  0
   51.2435   96.5955   30.2022 H   0  0  0  0  0  0
   52.4511   97.7307   30.7875 H   0  0  0  0  0  0
   50.7290   97.9494   31.1953 H   0  0  0  0  0  0
   51.9626   99.9544   31.3005 H   0  0  0  0  0  0
   51.4844  103.6692   29.2118 H   0  0  0  0  0  0
   50.8429  102.4777   27.2175 H   0  0  0  0  0  0
   51.0063   97.6961   26.9508 H   0  0  0  0  0  0
   49.2000   99.6595   23.9095 H   0  0  0  0  0  0
   49.6548  101.5108   25.5210 H   0  0  0  0  0  0
   53.0818  101.1452   32.4974 H   0  0  0  0  0  0
   53.3159  103.4402   34.1429 H   0  0  0  0  0  0
   53.3185  101.7751   34.6102 H   0  0  0  0  0  0
   51.0648  100.4799   34.7215 H   0  0  0  0  0  0
   48.8450  100.5687   35.7841 H   0  0  0  0  0  0
   47.8599  102.7380   36.4137 H   0  0  0  0  0  0
   49.0808  104.8096   36.0368 H   0  0  0  0  0  0
  1  2  1  0  0  0
  1 29  1  0  0  0
  1 30  1  0  0  0
  1 31  1  0  0  0
  2  3  1  0  0  0
  3  4  2  0  0  0
  3  8  1  0  0  0
  4  5  1  0  0  0
  4 32  1  0  0  0
  5  6  2  0  0  0
  5 14  1  0  0  0
  6  7  1  0  0  0
  6 33  1  0  0  0
  7  8  2  0  0  0
  7 34  1  0  0  0
  8  9  1  0  0  0
  9 10  1  0  0  0
  9 13  2  0  0  0
 10 11  2  0  0  0
 10 35  1  0  0  0
 11 12  1  0  0  0
 12 13  1  0  0  0
 12 36  1  0  0  0
 13 37  1  0  0  0
 14 15  2  0  0  0
 14 16  1  0  0  0
 16 17  1  0  0  0
 16 38  1  0  0  0
 17 18  1  0  0  0
 17 39  1  0  0  0
 17 40  1  0  0  0
 18 19  2  0  0  0
 18 23  1  0  0  0
 19 20  1  0  0  0
 19 41  1  0  0  0
 20 21  2  0  0  0
 20 42  1  0  0  0
 21 22  1  0  0  0
 21 43  1  0  0  0
 22 23  2  0  0  0
 22 44  1  0  0  0
 23 24  1  0  0  0
 24 25  1  0  0  0
 25 26  1  0  0  0
 25 27  1  0  0  0
 25 28  1  0  0  0
M  END
> <s_m_entry_id>
28007

> <s_m_entry_name>
dock_pv.168

> <s_m_Source_Path>
/home/csk/Desktop/cluster/DUD-E-result/rock1

> <s_m_Source_File>
dock_pv.maegz

> <i_m_Source_File_Index>
168

> <chembl_id>
CHEMBL3981137

> <chembl_pref_name>
None

> <i_lp_mmshare_version>
53161

> <r_lp_tautomer_probability>
0.5

> <s_lp_Force_Field>
OPLS_2005

> <r_lp_Energy>
21.297093

> <b_lp_Chiralities_Consistent>
1

> <s_lp_Variant>
CHEMBL3231_lig597-1

> <s_i_glide_gridfile>
glide-grid_2etr

> <i_i_glide_lignum>
883

> <i_i_glide_rotatable_bonds>
8

> <r_i_docking_score>
-8.14772582181396

> <r_i_glide_ligand_efficiency>
-0.290990207921927

> <r_i_glide_ligand_efficiency_sa>
-0.883617655318065

> <r_i_glide_ligand_efficiency_ln>
-1.88073434729988

> <r_i_glide_gscore>
-8.14772582181396

> <r_i_glide_lipo>
-2.88781109951968

> <r_i_glide_hbond>
-0.674772873375611

> <r_i_glide_metal>
0

> <r_i_glide_rewards>
-1.72812940377648

> <r_i_glide_evdw>
-42.7046012878418

> <r_i_glide_ecoul>
-7.02259302139282

> <r_i_glide_erotb>
0.535144836082305

> <r_i_glide_esite>
-0.203538263623488

> <r_i_glide_emodel>
-71.5948618396202

> <r_i_glide_energy>
-49.7271943092346

> <r_i_glide_einternal>
5.34649419784546

> <i_i_glide_confnum>
69

> <i_i_glide_posenum>
154

> <r_i_glide_eff_state_penalty>
0

> <s_user_duplicate_titles>
CHEMBL3231_lig597

> <i_f3d_flags>
0

> <s_m_subgroup_title>
dock_pv

> <s_m_subgroupid>
dock_pv

> <b_m_subgroup_collapsed>
1

$$$$
CHEMBL3231_lig215
                    3D
 Schrodinger Suite 2021-1.
 44 47  0  0  1  0            999 V2000
   52.5239   99.1211   32.8514 C   0  0  0  0  0  0
   52.9680  100.1612   33.6570 C   0  0  0  0  0  0
   53.1047  101.4617   33.1680 C   0  0  0  0  0  0
   52.8110  101.7338   31.8268 C   0  0  0  0  0  0
   52.1795   99.4157   31.5284 C   0  0  0  0  0  0
   52.3301  100.7164   30.9775 C   0  0  0  0  0  0
   51.9556  100.7751   29.5905 C   0  0  0  0  0  0
   51.4742   99.5486   29.1134 C   0  0  0  0  0  0
   51.5331   98.3023   30.3614 S   0  0  0  0  0  0
   52.1039  102.0656   28.8104 C   0  0  0  0  0  0
   50.9350   99.1481   27.7533 C   0  0  0  0  0  0
   50.4864  100.1269   26.9116 N   0  0  0  0  0  0
   50.0606   99.7322   25.6788 C   0  0  0  0  0  0
   50.0412   98.4629   25.2132 N   0  0  0  0  0  0
   50.4481   97.5046   26.0745 C   0  0  0  0  0  0
   50.8994   97.8058   27.3553 C   0  0  0  0  0  0
   49.5780  100.6978   24.8112 N   0  0  0  0  0  0
   53.5738  102.6092   34.0746 C   0  0  1  0  0  0
   52.3969  103.3777   34.6785 C   0  0  0  0  0  0
   51.5353  102.7769   35.6072 C   0  0  0  0  0  0
   50.4451  103.4808   36.1231 C   0  0  0  0  0  0
   50.2129  104.7972   35.7210 C   0  0  0  0  0  0
   51.0735  105.4100   34.8099 C   0  0  0  0  0  0
   52.1608  104.7016   34.2938 C   0  0  0  0  0  0
   50.8429  106.7013   34.4111 O   0  0  0  0  0  0
   54.4996  102.1768   35.1151 N   0  0  0  0  0  0
   52.4412   98.1157   33.2410 H   0  0  0  0  0  0
   53.2113   99.9494   34.6878 H   0  0  0  0  0  0
   52.9439  102.7352   31.4465 H   0  0  0  0  0  0
   52.0782  101.9037   27.7354 H   0  0  0  0  0  0
   51.3247  102.7842   29.0567 H   0  0  0  0  0  0
   53.0627  102.5468   29.0037 H   0  0  0  0  0  0
   50.4426   96.4845   25.7184 H   0  0  0  0  0  0
   51.2432   97.0095   27.9952 H   0  0  0  0  0  0
   49.5216  101.6539   25.1245 H   0  0  0  0  0  0
   49.2428  100.4156   23.8935 H   0  0  0  0  0  0
   54.1447  103.2933   33.4448 H   0  0  0  0  0  0
   51.7071  101.7571   35.9190 H   0  0  0  0  0  0
   49.7807  103.0059   36.8299 H   0  0  0  0  0  0
   49.3673  105.3424   36.1166 H   0  0  0  0  0  0
   52.8228  105.1799   33.5857 H   0  0  0  0  0  0
   51.5379  107.0420   33.8178 H   0  0  0  0  0  0
   55.2666  101.6652   34.6917 H   0  0  0  0  0  0
   54.9118  102.9814   35.5613 H   0  0  0  0  0  0
  1  5  2  0  0  0
  1  2  1  0  0  0
  1 27  1  0  0  0
  2  3  2  0  0  0
  2 28  1  0  0  0
  3 18  1  0  0  0
  3  4  1  0  0  0
  4  6  2  0  0  0
  4 29  1  0  0  0
  5  9  1  0  0  0
  5  6  1  0  0  0
  6  7  1  0  0  0
  7  8  2  0  0  0
  7 10  1  0  0  0
  8 11  1  0  0  0
  8  9  1  0  0  0
 10 30  1  0  0  0
 10 31  1  0  0  0
 10 32  1  0  0  0
 11 16  1  0  0  0
 11 12  2  0  0  0
 12 13  1  0  0  0
 13 14  2  0  0  0
 13 17  1  0  0  0
 14 15  1  0  0  0
 15 16  2  0  0  0
 15 33  1  0  0  0
 16 34  1  0  0  0
 17 35  1  0  0  0
 17 36  1  0  0  0
 18 19  1  0  0  0
 18 26  1  0  0  0
 18 37  1  0  0  0
 19 20  2  0  0  0
 19 24  1  0  0  0
 20 21  1  0  0  0
 20 38  1  0  0  0
 21 22  2  0  0  0
 21 39  1  0  0  0
 22 23  1  0  0  0
 22 40  1  0  0  0
 23 24  2  0  0  0
 23 25  1  0  0  0
 24 41  1  0  0  0
 25 42  1  0  0  0
 26 43  1  0  0  0
 26 44  1  0  0  0
M  END
> <s_m_entry_id>
28008

> <s_m_entry_name>
dock_pv.169

> <s_m_Source_Path>
/home/csk/Desktop/cluster/DUD-E-result/rock1

> <s_m_Source_File>
dock_pv.maegz

> <i_m_Source_File_Index>
169

> <chembl_id>
CHEMBL1083074

> <chembl_pref_name>
None

> <i_lp_mmshare_version>
53161

> <r_lp_tautomer_probability>
0.999999987633365

> <s_lp_Force_Field>
OPLS_2005

> <r_lp_Energy>
7.578984

> <b_lp_Chiralities_Consistent>
1

> <s_lp_Variant>
CHEMBL3231_lig215-2

> <s_i_glide_gridfile>
glide-grid_2etr

> <i_i_glide_lignum>
349

> <i_i_glide_rotatable_bonds>
4

> <r_i_docking_score>
-8.14275210755198

> <r_i_glide_ligand_efficiency>
-0.313182773367384

> <r_i_glide_ligand_efficiency_sa>
-0.927802733786167

> <r_i_glide_ligand_efficiency_ln>
-1.91229861390965

> <r_i_glide_gscore>
-8.14275210755198

> <r_i_glide_lipo>
-1.79940947049203

> <r_i_glide_hbond>
-0.649993038535901

> <r_i_glide_metal>
0

> <r_i_glide_rewards>
-2.59026655461831

> <r_i_glide_evdw>
-38.5214195251465

> <r_i_glide_ecoul>
-9.89311218261719

> <r_i_glide_erotb>
0.306954759744169

> <r_i_glide_esite>
0

> <r_i_glide_emodel>
-71.4103212800717

> <r_i_glide_energy>
-48.4145317077637

> <r_i_glide_einternal>
3.69491124153137

> <i_i_glide_confnum>
10

> <i_i_glide_posenum>
125

> <r_i_glide_eff_state_penalty>
0

> <s_user_duplicate_titles>
CHEMBL3231_lig215,630308

> <i_f3d_flags>
0

> <s_m_subgroup_title>
dock_pv

> <s_m_subgroupid>
dock_pv

> <b_m_subgroup_collapsed>
1

$$$$
CHEMBL3231_lig903
                    3D
 Schrodinger Suite 2021-1.
 35 37  0  0  1  0            999 V2000
   54.7399  100.5043   31.5688 C   0  0  0  0  0  0
   53.3763  100.3557   32.2972 C   0  0  0  0  0  0
   53.6051   99.8350   33.7369 C   0  0  0  0  0  0
   52.4339   99.4757   31.5308 N   0  0  0  0  0  0
   52.7157  101.6884   32.4436 N   0  0  0  0  0  0
   52.0712  102.3622   31.4556 C   0  0  0  0  0  0
   51.9957  100.0945   30.3767 C   0  0  0  0  0  0
   51.8612  101.4859   30.3292 C   0  0  0  0  0  0
   51.2254  102.0264   28.8097 S   0  0  0  0  0  0
   51.1747  100.4007   28.1857 C   0  0  0  0  0  0
   51.6381   99.5053   29.1525 C   0  0  0  0  0  0
   51.6445  103.5020   31.6292 O   0  0  0  0  0  0
   50.6671  100.1258   26.8322 C   0  0  0  0  0  0
   50.1892  101.0480   25.9111 C   0  0  0  0  0  0
   49.8227  100.3266   24.8107 N   0  0  0  0  0  0
   50.0405   99.0243   24.9515 N   0  0  0  0  0  0
   50.5287   98.8874   26.1637 C   0  0  0  0  0  0
   52.8158   98.0589   31.4828 C   0  0  0  0  0  0
   50.8628   97.5031   26.6456 C   0  0  0  0  0  0
   54.6340  100.8740   30.5486 H   0  0  0  0  0  0
   55.3897  101.2081   32.0901 H   0  0  0  0  0  0
   55.2832   99.5606   31.5146 H   0  0  0  0  0  0
   52.6627   99.6456   34.2533 H   0  0  0  0  0  0
   54.1855   98.9117   33.7528 H   0  0  0  0  0  0
   54.1669  100.5549   34.3348 H   0  0  0  0  0  0
   52.4059  101.9477   33.3671 H   0  0  0  0  0  0
   51.6835   98.4406   28.9997 H   0  0  0  0  0  0
   50.0720  102.1218   25.9450 H   0  0  0  0  0  0
   49.4301  100.7064   23.9567 H   0  0  0  0  0  0
   52.0354   97.4641   31.0071 H   0  0  0  0  0  0
   53.7391   97.9131   30.9213 H   0  0  0  0  0  0
   52.9484   97.6341   32.4763 H   0  0  0  0  0  0
   51.8660   97.5033   27.0645 H   0  0  0  0  0  0
   50.1809   97.1832   27.4306 H   0  0  0  0  0  0
   50.8415   96.7464   25.8586 H   0  0  0  0  0  0
  1  2  1  0  0  0
  1 20  1  0  0  0
  1 21  1  0  0  0
  1 22  1  0  0  0
  2  3  1  0  0  0
  2  4  1  0  0  0
  2  5  1  0  0  0
  3 23  1  0  0  0
  3 24  1  0  0  0
  3 25  1  0  0  0
  4  7  1  0  0  0
  4 18  1  0  0  0
  5  6  1  0  0  0
  5 26  1  0  0  0
  6  8  1  0  0  0
  6 12  2  0  0  0
  7  8  2  0  0  0
  7 11  1  0  0  0
  8  9  1  0  0  0
  9 10  1  0  0  0
 10 11  2  0  0  0
 10 13  1  0  0  0
 11 27  1  0  0  0
 13 14  2  0  0  0
 13 17  1  0  0  0
 14 15  1  0  0  0
 14 28  1  0  0  0
 15 16  1  0  0  0
 15 29  1  0  0  0
 16 17  2  0  0  0
 17 19  1  0  0  0
 18 30  1  0  0  0
 18 31  1  0  0  0
 18 32  1  0  0  0
 19 33  1  0  0  0
 19 34  1  0  0  0
 19 35  1  0  0  0
M  END
> <s_m_entry_id>
28009

> <s_m_entry_name>
dock_pv.170

> <s_m_Source_Path>
/home/csk/Desktop/cluster/DUD-E-result/rock1

> <s_m_Source_File>
dock_pv.maegz

> <i_m_Source_File_Index>
170

> <chembl_id>
CHEMBL4209096

> <chembl_pref_name>
None

> <i_lp_mmshare_version>
53161

> <r_lp_tautomer_probability>
0.5

> <s_lp_Force_Field>
OPLS_2005

> <r_lp_Energy>
19.162302

> <b_lp_Chiralities_Consistent>
1

> <s_lp_Variant>
CHEMBL3231_lig903-1

> <s_i_glide_gridfile>
glide-grid_2etr

> <i_i_glide_lignum>
1296

> <i_i_glide_rotatable_bonds>
1

> <r_i_docking_score>
-8.14105075097483

> <r_i_glide_ligand_efficiency>
-0.428476355314465

> <r_i_glide_ligand_efficiency_sa>
-1.14334701183732

> <r_i_glide_ligand_efficiency_ln>
-2.06393121910971

> <r_i_glide_gscore>
-8.14105075097483

> <r_i_glide_lipo>
-2.10313458813055

> <r_i_glide_hbond>
-0.305827697659427

> <r_i_glide_metal>
0

> <r_i_glide_rewards>
-3.43993426380578

> <r_i_glide_evdw>
-33.6648864746094

> <r_i_glide_ecoul>
-5.22492933273315

> <r_i_glide_erotb>
0.235554803376597

> <r_i_glide_esite>
-0.0607252811152283

> <r_i_glide_emodel>
-58.5289039067659

> <r_i_glide_energy>
-38.8898158073425

> <r_i_glide_einternal>
0.154519125819206

> <i_i_glide_confnum>
1

> <i_i_glide_posenum>
200

> <r_i_glide_eff_state_penalty>
0

> <s_user_duplicate_titles>
CHEMBL3231_lig903,CHEMBL3231_lig903

> <i_f3d_flags>
0

> <s_m_subgroup_title>
dock_pv

> <s_m_subgroupid>
dock_pv

> <b_m_subgroup_collapsed>
1

$$$$
CHEMBL3231_lig673
                    3D
 Schrodinger Suite 2021-1.
 40 42  0  0  1  0            999 V2000
   50.3304  104.2701   27.8265 C   0  0  0  0  0  0
   50.4429  102.8730   27.5645 O   0  0  0  0  0  0
   50.9450  102.0186   28.5269 C   0  0  0  0  0  0
   51.2906  102.4699   29.8088 C   0  0  0  0  0  0
   51.7835  101.6096   30.7961 C   0  0  0  0  0  0
   51.9863  100.2668   30.4525 C   0  0  0  0  0  0
   51.6446   99.7982   29.1829 C   0  0  0  0  0  0
   51.0991  100.6526   28.2132 C   0  0  0  0  0  0
   50.6722  100.0570   26.8933 C   0  0  0  0  0  0
   50.4710   98.6989   26.5592 C   0  0  0  0  0  0
   50.0451   98.5038   25.3306 N   0  0  0  0  0  0
   49.9704   99.7318   24.8119 N   0  0  0  0  0  0
   50.3422  100.6995   25.7061 C   0  0  0  0  0  0
   52.0255  102.1480   32.1941 C   0  0  0  0  0  0
   51.8185  103.3368   32.4487 O   0  0  0  0  0  0
   52.4044  101.2666   33.1365 N   0  0  0  0  0  0
   52.6202  101.5712   34.5558 C   0  0  0  0  0  0
   51.4210  102.1765   35.2981 C   0  0  0  0  0  0
   51.5399  103.4129   35.9474 C   0  0  0  0  0  0
   52.7126  104.0875   35.9357 F   0  0  0  0  0  0
   50.4482  103.9686   36.6155 C   0  0  0  0  0  0
   49.2270  103.2977   36.6438 C   0  0  0  0  0  0
   49.1028  102.0641   36.0082 C   0  0  0  0  0  0
   50.1915  101.5042   35.3401 C   0  0  0  0  0  0
   50.0459  100.3032   34.7384 F   0  0  0  0  0  0
   50.0431  104.7906   26.9122 H   0  0  0  0  0  0
   49.5673  104.4716   28.5789 H   0  0  0  0  0  0
   51.2770  104.7022   28.1486 H   0  0  0  0  0  0
   51.1590  103.5091   30.0571 H   0  0  0  0  0  0
   52.3816   99.5569   31.1655 H   0  0  0  0  0  0
   51.7917   98.7502   28.9708 H   0  0  0  0  0  0
   50.6182   97.8566   27.2202 H   0  0  0  0  0  0
   49.6382   99.9032   23.8696 H   0  0  0  0  0  0
   50.3114  101.7429   25.4380 H   0  0  0  0  0  0
   52.6402  100.3339   32.8435 H   0  0  0  0  0  0
   53.5085  102.2004   34.6518 H   0  0  0  0  0  0
   52.8782  100.6317   35.0508 H   0  0  0  0  0  0
   50.5526  104.9257   37.1041 H   0  0  0  0  0  0
   48.3810  103.7293   37.1573 H   0  0  0  0  0  0
   48.1602  101.5373   36.0223 H   0  0  0  0  0  0
  1  2  1  0  0  0
  1 26  1  0  0  0
  1 27  1  0  0  0
  1 28  1  0  0  0
  2  3  1  0  0  0
  3  4  2  0  0  0
  3  8  1  0  0  0
  4  5  1  0  0  0
  4 29  1  0  0  0
  5  6  2  0  0  0
  5 14  1  0  0  0
  6  7  1  0  0  0
  6 30  1  0  0  0
  7  8  2  0  0  0
  7 31  1  0  0  0
  8  9  1  0  0  0
  9 10  1  0  0  0
  9 13  2  0  0  0
 10 11  2  0  0  0
 10 32  1  0  0  0
 11 12  1  0  0  0
 12 13  1  0  0  0
 12 33  1  0  0  0
 13 34  1  0  0  0
 14 15  2  0  0  0
 14 16  1  0  0  0
 16 17  1  0  0  0
 16 35  1  0  0  0
 17 18  1  0  0  0
 17 36  1  0  0  0
 17 37  1  0  0  0
 18 19  2  0  0  0
 18 24  1  0  0  0
 19 20  1  0  0  0
 19 21  1  0  0  0
 21 22  2  0  0  0
 21 38  1  0  0  0
 22 23  1  0  0  0
 22 39  1  0  0  0
 23 24  2  0  0  0
 23 40  1  0  0  0
 24 25  1  0  0  0
M  END
> <s_m_entry_id>
28010

> <s_m_entry_name>
dock_pv.171

> <s_m_Source_Path>
/home/csk/Desktop/cluster/DUD-E-result/rock1

> <s_m_Source_File>
dock_pv.maegz

> <i_m_Source_File_Index>
171

> <chembl_id>
CHEMBL3896978

> <chembl_pref_name>
None

> <i_lp_mmshare_version>
53161

> <r_lp_tautomer_probability>
0.5

> <s_lp_Force_Field>
OPLS_2005

> <r_lp_Energy>
21.170739

> <b_lp_Chiralities_Consistent>
1

> <s_lp_Variant>
CHEMBL3231_lig673-1

> <s_i_glide_gridfile>
glide-grid_2etr

> <i_i_glide_lignum>
964

> <i_i_glide_rotatable_bonds>
6

> <r_i_docking_score>
-8.13870713071916

> <r_i_glide_ligand_efficiency>
-0.325548285228766

> <r_i_glide_ligand_efficiency_sa>
-0.951908959632336

> <r_i_glide_ligand_efficiency_ln>
-1.92911748735184

> <r_i_glide_gscore>
-8.13870713071916

> <r_i_glide_lipo>
-3.0054010682797

> <r_i_glide_hbond>
-0.377479173808519

> <r_i_glide_metal>
0

> <r_i_glide_rewards>
-2.57957284107021

> <r_i_glide_evdw>
-41.4208564758301

> <r_i_glide_ecoul>
-3.50281476974487

> <r_i_glide_erotb>
0.45070363812689

> <r_i_glide_esite>
-0.0304926464343856

> <r_i_glide_emodel>
-65.574109601974

> <r_i_glide_energy>
-44.923671245575

> <r_i_glide_einternal>
0.787828266620636

> <i_i_glide_confnum>
5

> <i_i_glide_posenum>
326

> <r_i_glide_eff_state_penalty>
0

> <s_user_duplicate_titles>
CHEMBL3231_lig673

> <i_f3d_flags>
0

> <s_m_subgroup_title>
dock_pv

> <s_m_subgroupid>
dock_pv

> <b_m_subgroup_collapsed>
1

$$$$
CHEMBL3231_lig620
                    3D
 Schrodinger Suite 2021-1.
 40 42  0  0  1  0            999 V2000
   51.4395   97.6613   30.4118 C   0  0  0  0  0  0
   51.2432   98.4129   29.2170 O   0  0  0  0  0  0
   51.3594   99.7924   29.2310 C   0  0  0  0  0  0
   51.7547  100.5077   30.3772 C   0  0  0  0  0  0
   51.7950  101.9114   30.3852 C   0  0  0  0  0  0
   51.4767  102.5970   29.2120 C   0  0  0  0  0  0
   51.0968  101.9034   28.0712 C   0  0  0  0  0  0
   51.0233  100.5048   28.0623 C   0  0  0  0  0  0
   50.5418   99.8602   26.7949 C   0  0  0  0  0  0
   50.5813   98.5128   26.3888 C   0  0  0  0  0  0
   50.0431   98.2986   25.2110 N   0  0  0  0  0  0
   49.6431   99.5032   24.8108 N   0  0  0  0  0  0
   49.9197  100.4814   25.7173 C   0  0  0  0  0  0
   52.0960  102.6970   31.6403 C   0  0  0  0  0  0
   51.6830  103.8510   31.7655 O   0  0  0  0  0  0
   52.7895  102.0589   32.5999 N   0  0  0  0  0  0
   53.0655  102.5863   33.9378 C   0  0  0  0  0  0
   51.8182  102.9757   34.7388 C   0  0  0  0  0  0
   51.6150  104.3221   35.0629 C   0  0  0  0  0  0
   50.4934  104.7139   35.7920 C   0  0  0  0  0  0
   49.5697  103.7607   36.2154 C   0  0  0  0  0  0
   48.0440  104.3007   37.2109 Br  0  0  0  0  0  0
   49.7659  102.4146   35.9095 C   0  0  0  0  0  0
   50.8865  102.0172   35.1763 C   0  0  0  0  0  0
   51.0797  100.3352   34.8167 Cl  0  0  0  0  0  0
   51.2430   96.6086   30.2096 H   0  0  0  0  0  0
   52.4677   97.7448   30.7669 H   0  0  0  0  0  0
   50.7578   97.9720   31.2051 H   0  0  0  0  0  0
   51.9878   99.9724   31.2833 H   0  0  0  0  0  0
   51.5072  103.6763   29.1778 H   0  0  0  0  0  0
   50.8431  102.4766   27.1935 H   0  0  0  0  0  0
   51.0042   97.6952   26.9526 H   0  0  0  0  0  0
   49.1986   99.6547   23.9108 H   0  0  0  0  0  0
   49.6438  101.5071   25.5213 H   0  0  0  0  0  0
   53.2295  101.1842   32.3588 H   0  0  0  0  0  0
   53.7569  103.4265   33.8467 H   0  0  0  0  0  0
   53.6212  101.8330   34.4984 H   0  0  0  0  0  0
   52.3190  105.0733   34.7319 H   0  0  0  0  0  0
   50.3439  105.7577   36.0279 H   0  0  0  0  0  0
   49.0474  101.6804   36.2437 H   0  0  0  0  0  0
  1  2  1  0  0  0
  1 26  1  0  0  0
  1 27  1  0  0  0
  1 28  1  0  0  0
  2  3  1  0  0  0
  3  4  2  0  0  0
  3  8  1  0  0  0
  4  5  1  0  0  0
  4 29  1  0  0  0
  5  6  2  0  0  0
  5 14  1  0  0  0
  6  7  1  0  0  0
  6 30  1  0  0  0
  7  8  2  0  0  0
  7 31  1  0  0  0
  8  9  1  0  0  0
  9 10  1  0  0  0
  9 13  2  0  0  0
 10 11  2  0  0  0
 10 32  1  0  0  0
 11 12  1  0  0  0
 12 13  1  0  0  0
 12 33  1  0  0  0
 13 34  1  0  0  0
 14 15  2  0  0  0
 14 16  1  0  0  0
 16 17  1  0  0  0
 16 35  1  0  0  0
 17 18  1  0  0  0
 17 36  1  0  0  0
 17 37  1  0  0  0
 18 19  2  0  0  0
 18 24  1  0  0  0
 19 20  1  0  0  0
 19 38  1  0  0  0
 20 21  2  0  0  0
 20 39  1  0  0  0
 21 22  1  0  0  0
 21 23  1  0  0  0
 23 24  2  0  0  0
 23 40  1  0  0  0
 24 25  1  0  0  0
M  END
> <s_m_entry_id>
28011

> <s_m_entry_name>
dock_pv.172

> <s_m_Source_Path>
/home/csk/Desktop/cluster/DUD-E-result/rock1

> <s_m_Source_File>
dock_pv.maegz

> <i_m_Source_File_Index>
172

> <chembl_id>
CHEMBL3906535

> <chembl_pref_name>
None

> <i_lp_mmshare_version>
53161

> <r_lp_tautomer_probability>
0.5

> <s_lp_Force_Field>
OPLS_2005

> <r_lp_Energy>
20.546153

> <b_lp_Chiralities_Consistent>
1

> <s_lp_Variant>
CHEMBL3231_lig620-1

> <s_i_glide_gridfile>
glide-grid_2etr

> <i_i_glide_lignum>
906

> <i_i_glide_rotatable_bonds>
6

> <r_i_docking_score>
-8.13524090484209

> <r_i_glide_ligand_efficiency>
-0.325409636193684

> <r_i_glide_ligand_efficiency_sa>
-0.951503547394802

> <r_i_glide_ligand_efficiency_ln>
-1.92829588794457

> <r_i_glide_gscore>
-8.13524090484209

> <r_i_glide_lipo>
-2.76379163659955

> <r_i_glide_hbond>
-0.677866852925283

> <r_i_glide_metal>
0

> <r_i_glide_rewards>
-1.50604287614123

> <r_i_glide_evdw>
-43.8989562988281

> <r_i_glide_ecoul>
-8.34701442718506

> <r_i_glide_erotb>
0.313175463806194

> <r_i_glide_esite>
-0.0537150239630547

> <r_i_glide_emodel>
-77.4195126019023

> <r_i_glide_energy>
-52.2459707260132

> <r_i_glide_einternal>
1.67308926582336

> <i_i_glide_confnum>
6

> <i_i_glide_posenum>
340

> <r_i_glide_eff_state_penalty>
0

> <s_user_duplicate_titles>
CHEMBL3231_lig620

> <i_f3d_flags>
0

> <s_m_subgroup_title>
dock_pv

> <s_m_subgroupid>
dock_pv

> <b_m_subgroup_collapsed>
1

$$$$
CHEMBL3231_lig1376
                    3D
 Schrodinger Suite 2021-1.
 29 31  0  0  1  0            999 V2000
   49.2457  101.2226   25.2105 O   0  0  0  0  0  0
   50.6149   96.9469   25.6148 O   0  0  0  0  0  0
   50.4430  104.6418   29.0859 O   0  0  0  0  0  0
   51.7582  103.7163   31.1845 O   0  0  0  0  0  0
   51.5086   98.3060   28.2225 N   0  0  0  0  0  0
   49.8418   99.0384   25.1648 N   0  0  0  0  0  0
   50.4847  100.1389   27.0239 C   0  0  0  0  0  0
   50.7925  101.0691   28.0543 C   0  0  0  0  0  0
   50.8586   98.8313   27.1586 C   0  0  0  0  0  0
   51.4999  100.5714   29.1912 C   0  0  0  0  0  0
   49.7855  100.2555   25.7186 C   0  0  0  0  0  0
   50.4452   98.1151   25.9281 C   0  0  0  0  0  0
   50.4440  102.4384   28.0131 C   0  0  0  0  0  0
   50.7738  103.2978   29.0689 C   0  0  0  0  0  0
   51.8224   99.1838   29.2095 C   0  0  0  0  0  0
   51.4763  102.8092   30.1791 C   0  0  0  0  0  0
   51.8443  101.4564   30.2372 C   0  0  0  0  0  0
   49.7225  105.2247   28.0119 C   0  0  0  0  0  0
   52.5937  103.3329   32.2714 C   0  0  0  0  0  0
   49.4534   98.8541   24.2537 H   0  0  0  0  0  0
   49.9210  102.8009   27.1433 H   0  0  0  0  0  0
   52.3563   98.7736   30.0556 H   0  0  0  0  0  0
   52.3819  101.0558   31.0837 H   0  0  0  0  0  0
   49.6814  106.3037   28.1514 H   0  0  0  0  0  0
   50.1857  105.0387   27.0414 H   0  0  0  0  0  0
   48.6966  104.8662   28.0114 H   0  0  0  0  0  0
   52.7657  104.1983   32.9130 H   0  0  0  0  0  0
   53.5693  102.9860   31.9240 H   0  0  0  0  0  0
   52.1281  102.5551   32.8795 H   0  0  0  0  0  0
  1 11  2  0  0  0
  2 12  2  0  0  0
  3 14  1  0  0  0
  3 18  1  0  0  0
  4 16  1  0  0  0
  4 19  1  0  0  0
  5  9  2  0  0  0
  5 15  1  0  0  0
  6 11  1  0  0  0
  6 12  1  0  0  0
  6 20  1  0  0  0
  7  8  2  0  0  0
  7  9  1  0  0  0
  7 11  1  0  0  0
  8 10  1  0  0  0
  8 13  1  0  0  0
  9 12  1  0  0  0
 10 15  2  0  0  0
 10 17  1  0  0  0
 13 14  2  0  0  0
 13 21  1  0  0  0
 14 16  1  0  0  0
 15 22  1  0  0  0
 16 17  2  0  0  0
 17 23  1  0  0  0
 18 24  1  0  0  0
 18 25  1  0  0  0
 18 26  1  0  0  0
 19 27  1  0  0  0
 19 28  1  0  0  0
 19 29  1  0  0  0
M  END
> <s_m_entry_id>
28012

> <s_m_entry_name>
dock_pv.173

> <s_m_Source_Path>
/home/csk/Desktop/cluster/DUD-E-result/rock1

> <s_m_Source_File>
dock_pv.maegz

> <i_m_Source_File_Index>
173

> <chembl_id>
CHEMBL1982506

> <chembl_pref_name>
None

> <i_lp_mmshare_version>
53161

> <r_lp_tautomer_probability>
1

> <s_lp_Force_Field>
OPLS_2005

> <r_lp_Energy>
37.801341

> <b_lp_Chiralities_Consistent>
1

> <s_lp_Variant>
CHEMBL3231_lig1376-1

> <s_i_glide_gridfile>
glide-grid_2etr

> <i_i_glide_lignum>
1929

> <i_i_glide_rotatable_bonds>
2

> <r_i_docking_score>
-8.13478585726408

> <r_i_glide_ligand_efficiency>
-0.428146624066531

> <r_i_glide_ligand_efficiency_sa>
-1.14246715643256

> <r_i_glide_ligand_efficiency_ln>
-2.06234293399645

> <r_i_glide_gscore>
-8.13478585726408

> <r_i_glide_lipo>
-1.93762700117137

> <r_i_glide_hbond>
-0.383577330411478

> <r_i_glide_metal>
0

> <r_i_glide_rewards>
-3.71843522727273

> <r_i_glide_evdw>
-31.026554107666

> <r_i_glide_ecoul>
-3.62545728683472

> <r_i_glide_erotb>
0

> <r_i_glide_esite>
0

> <r_i_glide_emodel>
-54.5621333098262

> <r_i_glide_energy>
-34.6520113945007

> <r_i_glide_einternal>
0.221342891454697

> <i_i_glide_confnum>
1

> <i_i_glide_posenum>
311

> <r_i_glide_eff_state_penalty>
0

> <s_user_duplicate_titles>
CHEMBL3231_lig1376

> <i_f3d_flags>
0

> <s_m_subgroup_title>
dock_pv

> <s_m_subgroupid>
dock_pv

> <b_m_subgroup_collapsed>
1

$$$$
CHEMBL3231_lig1554
                    3D
 Schrodinger Suite 2021-1.
 52 55  0  0  1  0            999 V2000
   55.0528  103.7598   34.5550 O   0  0  0  0  0  0
   54.4688  101.7869   33.5132 N   0  0  0  0  0  0
   53.5995  103.9030   30.5734 N   0  0  0  0  0  0
   56.4430  102.1142   36.4264 N   0  0  0  0  0  0
   50.0426   98.2713   25.2110 N   0  0  0  0  0  0
   51.5369  102.8509   36.4812 C   0  0  0  0  0  0
   52.5436  101.8263   36.3499 C   0  0  0  0  0  0
   50.2335  102.6041   35.9299 C   0  0  0  0  0  0
   53.9747  101.9850   36.9106 C   0  0  0  0  0  0
   55.1182  101.7467   35.8759 C   0  0  1  0  0  0
   54.8930  102.5363   34.5581 C   0  0  0  0  0  0
   52.2197  100.6309   35.7019 C   0  0  0  0  0  0
   54.0104  102.2051   32.2508 C   0  0  0  0  0  0
   51.7446  104.1031   37.1344 C   0  0  0  0  0  0
   49.9773  101.3907   35.2520 C   0  0  0  0  0  0
   49.2101  103.5765   36.0665 C   0  0  0  0  0  0
   52.9827  101.6057   30.1314 C   0  0  0  0  0  0
   50.9675  100.4255   35.1436 C   0  0  0  0  0  0
   53.4693  101.2362   31.3928 C   0  0  0  0  0  0
   50.7188  105.0383   37.2447 C   0  0  0  0  0  0
   54.0432  103.5302   31.7941 C   0  0  0  0  0  0
   49.4602  104.7767   36.7202 C   0  0  0  0  0  0
   53.0787  102.9537   29.7707 C   0  0  0  0  0  0
   52.4013  100.6127   29.2109 C   0  0  0  0  0  0
   50.9774   99.9766   27.2302 C   0  0  0  0  0  0
   51.5273  100.9072   28.2256 C   0  0  0  0  0  0
   50.9538   98.5888   27.4240 C   0  0  0  0  0  0
   50.5050  100.4961   26.0183 C   0  0  0  0  0  0
   50.4755   97.7777   26.3960 C   0  0  0  0  0  0
   50.0455   99.6156   25.0406 C   0  0  0  0  0  0
   54.4202  100.7922   33.6696 H   0  0  0  0  0  0
   56.6539  101.5959   37.2669 H   0  0  0  0  0  0
   57.2013  101.9028   35.7796 H   0  0  0  0  0  0
   54.0689  101.2672   37.7275 H   0  0  0  0  0  0
   54.1383  102.9520   37.3758 H   0  0  0  0  0  0
   55.1432  100.6795   35.6461 H   0  0  0  0  0  0
   52.9567   99.8470   35.6120 H   0  0  0  0  0  0
   52.6995  104.3625   37.5594 H   0  0  0  0  0  0
   49.0031  101.2145   34.8177 H   0  0  0  0  0  0
   48.2295  103.3786   35.6578 H   0  0  0  0  0  0
   50.7592   99.5029   34.6265 H   0  0  0  0  0  0
   53.4216  100.2018   31.7004 H   0  0  0  0  0  0
   50.9073  105.9798   37.7415 H   0  0  0  0  0  0
   54.4441  104.3474   32.3729 H   0  0  0  0  0  0
   48.6739  105.5114   36.8129 H   0  0  0  0  0  0
   52.7514  103.3114   28.8088 H   0  0  0  0  0  0
   52.7506   99.5968   29.3314 H   0  0  0  0  0  0
   51.1785  101.9248   28.1299 H   0  0  0  0  0  0
   51.3039   98.1421   28.3419 H   0  0  0  0  0  0
   50.5083  101.5594   25.8271 H   0  0  0  0  0  0
   50.4480   96.7032   26.5056 H   0  0  0  0  0  0
   49.6829   99.9821   24.0904 H   0  0  0  0  0  0
  1 11  2  0  0  0
  2 11  1  0  0  0
  2 13  1  0  0  0
  2 31  1  0  0  0
  3 21  1  0  0  0
  3 23  2  0  0  0
  4 10  1  0  0  0
  4 32  1  0  0  0
  4 33  1  0  0  0
  5 29  2  0  0  0
  5 30  1  0  0  0
  6  7  1  0  0  0
  6  8  1  0  0  0
  6 14  2  0  0  0
  7  9  1  0  0  0
  7 12  2  0  0  0
  8 15  1  0  0  0
  8 16  2  0  0  0
  9 10  1  0  0  0
  9 34  1  0  0  0
  9 35  1  0  0  0
 10 11  1  0  0  0
 10 36  1  0  0  0
 12 18  1  0  0  0
 12 37  1  0  0  0
 13 19  1  0  0  0
 13 21  2  0  0  0
 14 20  1  0  0  0
 14 38  1  0  0  0
 15 18  2  0  0  0
 15 39  1  0  0  0
 16 22  1  0  0  0
 16 40  1  0  0  0
 17 19  2  0  0  0
 17 23  1  0  0  0
 17 24  1  0  0  0
 18 41  1  0  0  0
 19 42  1  0  0  0
 20 22  2  0  0  0
 20 43  1  0  0  0
 21 44  1  0  0  0
 22 45  1  0  0  0
 23 46  1  0  0  0
 24 26  2  3  0  0
 24 47  1  0  0  0
 25 26  1  0  0  0
 25 27  2  0  0  0
 25 28  1  0  0  0
 26 48  1  0  0  0
 27 29  1  0  0  0
 27 49  1  0  0  0
 28 30  2  0  0  0
 28 50  1  0  0  0
 29 51  1  0  0  0
 30 52  1  0  0  0
M  END
> <s_m_entry_id>
28013

> <s_m_entry_name>
dock_pv.174

> <s_m_Source_Path>
/home/csk/Desktop/cluster/DUD-E-result/rock1

> <s_m_Source_File>
dock_pv.maegz

> <i_m_Source_File_Index>
174

> <chembl_id>
CHEMBL1985580

> <chembl_pref_name>
None

> <i_lp_mmshare_version>
53161

> <r_lp_tautomer_probability>
1

> <s_lp_Force_Field>
OPLS_2005

> <r_lp_Energy>
29.790586

> <b_lp_Chiralities_Consistent>
1

> <s_lp_Variant>
CHEMBL3231_lig1554-3

> <s_i_glide_gridfile>
glide-grid_2etr

> <i_i_glide_lignum>
2201

> <i_i_glide_rotatable_bonds>
7

> <r_i_docking_score>
-8.12959969546447

> <r_i_glide_ligand_efficiency>
-0.270986656515482

> <r_i_glide_ligand_efficiency_sa>
-0.842018546850037

> <r_i_glide_ligand_efficiency_ln>
-1.84713362989284

> <r_i_glide_gscore>
-8.12959969546447

> <r_i_glide_lipo>
-3.43304476372956

> <r_i_glide_hbond>
-0.363814456667549

> <r_i_glide_metal>
0

> <r_i_glide_rewards>
-2.04395275717665

> <r_i_glide_evdw>
-48.4720115661621

> <r_i_glide_ecoul>
-4.05443668365479

> <r_i_glide_erotb>
0.753644637696072

> <r_i_glide_esite>
-0.0106662747304648

> <r_i_glide_emodel>
-78.3258716034795

> <r_i_glide_energy>
-52.5264482498169

> <r_i_glide_einternal>
4.24387741088867

> <i_i_glide_confnum>
32

> <i_i_glide_posenum>
353

> <r_i_glide_eff_state_penalty>
0

> <s_user_duplicate_titles>
CHEMBL3231_lig1554

> <i_f3d_flags>
0

> <s_m_subgroup_title>
dock_pv

> <s_m_subgroupid>
dock_pv

> <b_m_subgroup_collapsed>
1

$$$$
CHEMBL3231_lig555
                    3D
 Schrodinger Suite 2021-1.
 40 42  0  0  1  0            999 V2000
   50.1964  106.9579   34.3145 F   0  0  0  0  0  0
   49.8006  107.1143   35.5777 C   0  0  0  0  0  0
   49.0677  108.2235   35.6100 F   0  0  0  0  0  0
   50.8492  107.2740   36.3906 F   0  0  0  0  0  0
   48.9729  106.0301   36.0062 O   0  0  0  0  0  0
   49.4260  104.7285   35.8918 C   0  0  0  0  0  0
   48.4893  103.7220   36.1316 C   0  0  0  0  0  0
   48.8428  102.3783   36.0099 C   0  0  0  0  0  0
   50.1387  102.0228   35.6456 C   0  0  0  0  0  0
   51.0907  103.0157   35.4009 C   0  0  0  0  0  0
   52.5032  102.6373   34.9552 C   0  0  0  0  0  0
   52.6020  102.0428   33.6163 N   0  0  0  0  0  0
   52.0222  102.5191   32.5026 C   0  0  0  0  0  0
   51.2784  103.5027   32.4931 O   0  0  0  0  0  0
   52.3074  101.7584   31.4288 N   0  0  0  0  0  0
   51.7578  101.9037   30.1619 C   0  0  0  0  0  0
   51.6245  100.8776   29.3593 N   0  0  0  0  0  0
   51.0268  101.1951   28.2179 C   0  0  0  0  0  0
   50.6958  102.5488   28.1039 C   0  0  0  0  0  0
   51.2435  103.4280   29.4830 S   0  0  0  0  0  0
   50.7329  100.1485   27.1927 C   0  0  0  0  0  0
   50.3323  100.5462   25.9113 C   0  0  0  0  0  0
   49.9950   99.5720   24.9785 C   0  0  0  0  0  0
   50.0430   98.2434   25.2356 N   0  0  0  0  0  0
   50.4534   97.8634   26.4713 C   0  0  0  0  0  0
   50.8077   98.7745   27.4694 C   0  0  0  0  0  0
   50.7377  104.3625   35.5420 C   0  0  0  0  0  0
   47.4757  103.9854   36.4014 H   0  0  0  0  0  0
   48.1049  101.6112   36.1880 H   0  0  0  0  0  0
   50.3993  100.9805   35.5341 H   0  0  0  0  0  0
   53.1786  103.4945   35.0169 H   0  0  0  0  0  0
   52.9020  101.9106   35.6643 H   0  0  0  0  0  0
   53.3459  101.3701   33.4966 H   0  0  0  0  0  0
   52.8695  100.9347   31.5750 H   0  0  0  0  0  0
   50.1963  103.0639   27.2962 H   0  0  0  0  0  0
   50.2569  101.5851   25.6320 H   0  0  0  0  0  0
   49.6435   99.8717   24.0094 H   0  0  0  0  0  0
   50.4848   96.8001   26.6555 H   0  0  0  0  0  0
   51.1069   98.4134   28.4429 H   0  0  0  0  0  0
   51.4879  105.1113   35.3409 H   0  0  0  0  0  0
  1  2  1  0  0  0
  2  3  1  0  0  0
  2  4  1  0  0  0
  2  5  1  0  0  0
  5  6  1  0  0  0
  6  7  2  0  0  0
  6 27  1  0  0  0
  7  8  1  0  0  0
  7 28  1  0  0  0
  8  9  2  0  0  0
  8 29  1  0  0  0
  9 10  1  0  0  0
  9 30  1  0  0  0
 10 11  1  0  0  0
 10 27  2  0  0  0
 11 12  1  0  0  0
 11 31  1  0  0  0
 11 32  1  0  0  0
 12 13  1  0  0  0
 12 33  1  0  0  0
 13 14  2  0  0  0
 13 15  1  0  0  0
 15 16  1  0  0  0
 15 34  1  0  0  0
 16 17  2  0  0  0
 16 20  1  0  0  0
 17 18  1  0  0  0
 18 19  2  0  0  0
 18 21  1  0  0  0
 19 20  1  0  0  0
 19 35  1  0  0  0
 21 22  2  0  0  0
 21 26  1  0  0  0
 22 23  1  0  0  0
 22 36  1  0  0  0
 23 24  2  0  0  0
 23 37  1  0  0  0
 24 25  1  0  0  0
 25 26  2  0  0  0
 25 38  1  0  0  0
 26 39  1  0  0  0
 27 40  1  0  0  0
M  END
> <s_m_entry_id>
28014

> <s_m_entry_name>
dock_pv.175

> <s_m_Source_Path>
/home/csk/Desktop/cluster/DUD-E-result/rock1

> <s_m_Source_File>
dock_pv.maegz

> <i_m_Source_File_Index>
175

> <chembl_id>
CHEMBL3965107

> <chembl_pref_name>
None

> <i_lp_mmshare_version>
53161

> <r_lp_tautomer_probability>
0.999000488399163

> <s_lp_Force_Field>
OPLS_2005

> <r_lp_Energy>
4.668735

> <b_lp_Chiralities_Consistent>
1

> <s_lp_Variant>
CHEMBL3231_lig555-1

> <s_i_glide_gridfile>
glide-grid_2etr

> <i_i_glide_lignum>
833

> <i_i_glide_rotatable_bonds>
8

> <r_i_docking_score>
-8.12944261143082

> <r_i_glide_ligand_efficiency>
-0.30109046709003

> <r_i_glide_ligand_efficiency_sa>
-0.903271400277746

> <r_i_glide_ligand_efficiency_ln>
-1.89240021560507

> <r_i_glide_gscore>
-8.12944261143082

> <r_i_glide_lipo>
-3.18241033918146

> <r_i_glide_hbond>
-0.332022263348574

> <r_i_glide_metal>
0

> <r_i_glide_rewards>
-2.07692429013059

> <r_i_glide_evdw>
-43.3112869262695

> <r_i_glide_ecoul>
-7.17355918884277

> <r_i_glide_erotb>
0.879638697103077

> <r_i_glide_esite>
-0.176126191233369

> <r_i_glide_emodel>
-74.9628556403529

> <r_i_glide_energy>
-50.4848461151123

> <r_i_glide_einternal>
3.10971713066101

> <i_i_glide_confnum>
10

> <i_i_glide_posenum>
332

> <r_i_glide_eff_state_penalty>
0

> <s_user_duplicate_titles>
CHEMBL3231_lig555

> <i_f3d_flags>
0

> <s_m_subgroup_title>
dock_pv

> <s_m_subgroupid>
dock_pv

> <b_m_subgroup_collapsed>
1

$$$$
CHEMBL3231_lig806
                    3D
 Schrodinger Suite 2021-1.
 45 47  0  0  1  0            999 V2000
   51.8219   98.4318   29.2476 C   0  0  0  0  0  0
   51.5572   99.9258   29.2742 C   0  0  0  0  0  0
   51.8734  100.6004   30.4585 C   0  0  0  0  0  0
   51.6444  101.9763   30.6038 C   0  0  0  0  0  0
   51.1485  102.6768   29.4997 C   0  0  0  0  0  0
   50.8393  102.0147   28.3155 C   0  0  0  0  0  0
   51.0098  100.6289   28.1767 C   0  0  0  0  0  0
   50.5618  100.0180   26.8643 C   0  0  0  0  0  0
   50.5142   98.6737   26.4259 C   0  0  0  0  0  0
   50.0429   98.5132   25.2120 N   0  0  0  0  0  0
   49.7544   99.7474   24.8110 N   0  0  0  0  0  0
   50.0449  100.6890   25.7568 C   0  0  0  0  0  0
   51.8767  102.6977   31.9157 C   0  0  0  0  0  0
   51.6451  103.9025   32.0170 O   0  0  0  0  0  0
   52.2953  101.9569   32.9586 N   0  0  0  0  0  0
   52.4825  102.4278   34.3393 C   0  0  2  0  0  0
   53.3756  101.4731   35.1859 C   0  0  0  0  0  0
   53.0528   99.9702   35.1298 C   0  0  0  0  0  0
   52.0429   99.5005   34.6106 O   0  0  0  0  0  0
   54.0203   99.2339   35.7442 O   0  0  0  0  0  0
   51.1866  102.8045   35.0777 C   0  0  0  0  0  0
   51.1539  103.9430   35.8910 C   0  0  0  0  0  0
   49.9843  104.2921   36.5632 C   0  0  0  0  0  0
   48.8439  103.5050   36.4195 C   0  0  0  0  0  0
   48.8620  102.3744   35.6071 C   0  0  0  0  0  0
   50.0306  102.0273   34.9350 C   0  0  0  0  0  0
   50.8882   97.8726   29.1857 H   0  0  0  0  0  0
   52.4383   98.2006   28.3830 H   0  0  0  0  0  0
   52.3670   98.0837   30.1260 H   0  0  0  0  0  0
   52.2727  100.0246   31.2809 H   0  0  0  0  0  0
   50.9793  103.7428   29.5508 H   0  0  0  0  0  0
   50.4395  102.6088   27.5089 H   0  0  0  0  0  0
   50.8100   97.7960   26.9751 H   0  0  0  0  0  0
   49.3547   99.9353   23.8958 H   0  0  0  0  0  0
   49.8488  101.7333   25.5667 H   0  0  0  0  0  0
   52.4539  100.9716   32.8116 H   0  0  0  0  0  0
   53.0627  103.3508   34.2417 H   0  0  0  0  0  0
   54.4166  101.6268   34.8972 H   0  0  0  0  0  0
   53.3243  101.7721   36.2334 H   0  0  0  0  0  0
   54.7524   99.7670   36.0586 H   0  0  0  0  0  0
   52.0341  104.5595   36.0048 H   0  0  0  0  0  0
   49.9634  105.1703   37.1914 H   0  0  0  0  0  0
   47.9355  103.7703   36.9405 H   0  0  0  0  0  0
   47.9739  101.7692   35.5022 H   0  0  0  0  0  0
   50.0432  101.1467   34.3100 H   0  0  0  0  0  0
  1  2  1  0  0  0
  1 27  1  0  0  0
  1 28  1  0  0  0
  1 29  1  0  0  0
  2  3  2  0  0  0
  2  7  1  0  0  0
  3  4  1  0  0  0
  3 30  1  0  0  0
  4  5  2  0  0  0
  4 13  1  0  0  0
  5  6  1  0  0  0
  5 31  1  0  0  0
  6  7  2  0  0  0
  6 32  1  0  0  0
  7  8  1  0  0  0
  8  9  1  0  0  0
  8 12  2  0  0  0
  9 10  2  0  0  0
  9 33  1  0  0  0
 10 11  1  0  0  0
 11 12  1  0  0  0
 11 34  1  0  0  0
 12 35  1  0  0  0
 13 14  2  0  0  0
 13 15  1  0  0  0
 15 16  1  0  0  0
 15 36  1  0  0  0
 16 17  1  0  0  0
 16 21  1  0  0  0
 16 37  1  0  0  0
 17 18  1  0  0  0
 17 38  1  0  0  0
 17 39  1  0  0  0
 18 19  2  0  0  0
 18 20  1  0  0  0
 20 40  1  0  0  0
 21 22  2  0  0  0
 21 26  1  0  0  0
 22 23  1  0  0  0
 22 41  1  0  0  0
 23 24  2  0  0  0
 23 42  1  0  0  0
 24 25  1  0  0  0
 24 43  1  0  0  0
 25 26  2  0  0  0
 25 44  1  0  0  0
 26 45  1  0  0  0
M  END
> <s_m_entry_id>
28015

> <s_m_entry_name>
dock_pv.176

> <s_m_Source_Path>
/home/csk/Desktop/cluster/DUD-E-result/rock1

> <s_m_Source_File>
dock_pv.maegz

> <i_m_Source_File_Index>
176

> <chembl_id>
CHEMBL4113981

> <chembl_pref_name>
None

> <i_lp_mmshare_version>
53161

> <r_lp_tautomer_probability>
0.5

> <s_lp_Force_Field>
OPLS_2005

> <r_lp_Energy>
18.497783

> <b_lp_Chiralities_Consistent>
1

> <s_lp_Variant>
CHEMBL3231_lig806-1

> <s_i_glide_gridfile>
glide-grid_2etr

> <i_i_glide_lignum>
1134

> <i_i_glide_rotatable_bonds>
8

> <r_i_docking_score>
-8.12261342213763

> <r_i_glide_ligand_efficiency>
-0.312408208543755

> <r_i_glide_ligand_efficiency_sa>
-0.925508088543933

> <r_i_glide_ligand_efficiency_ln>
-1.90756910972051

> <r_i_glide_gscore>
-8.12261342213763

> <r_i_glide_lipo>
-3.03067019698353

> <r_i_glide_hbond>
-0.578555907344199

> <r_i_glide_metal>
0

> <r_i_glide_rewards>
-2.02159839670061

> <r_i_glide_evdw>
-41.3747634887695

> <r_i_glide_ecoul>
-6.81400394439697

> <r_i_glide_erotb>
0.65538517373912

> <r_i_glide_esite>
-0.0563353287503816

> <r_i_glide_emodel>
-72.3321715872829

> <r_i_glide_energy>
-48.1887674331665

> <r_i_glide_einternal>
3.34189510345459

> <i_i_glide_confnum>
44

> <i_i_glide_posenum>
40

> <r_i_glide_eff_state_penalty>
0

> <s_user_duplicate_titles>
CHEMBL3231_lig806

> <i_f3d_flags>
0

> <s_m_subgroup_title>
dock_pv

> <s_m_subgroupid>
dock_pv

> <b_m_subgroup_collapsed>
1

$$$$
CHEMBL3231_lig1432
                    3D
 Schrodinger Suite 2021-1.
 34 37  0  0  1  0            999 V2000
   51.1227  101.1299   28.4260 C   0  0  0  0  0  0
   50.5302  101.9352   27.4487 C   0  0  0  0  0  0
   50.0448  101.4239   26.2476 C   0  0  0  0  0  0
   51.2409   99.7501   28.2200 C   0  0  0  0  0  0
   50.7326   99.1999   27.0316 C   0  0  0  0  0  0
   50.1601  100.0533   26.0571 C   0  0  0  0  0  0
   49.7866   99.2349   25.0134 N   0  0  0  0  0  0
   50.0430   97.9427   25.2815 N   0  0  0  0  0  0
   50.5885   97.8990   26.4685 C   0  0  0  0  0  0
   51.5943  101.7542   29.6963 C   0  0  0  0  0  0
   52.0472  101.2648   30.9049 C   0  0  0  0  0  0
   52.2465  102.3843   31.7114 C   0  0  0  0  0  0
   51.9899  103.4962   31.0578 N   0  0  0  0  0  0
   51.5570  103.1111   29.7904 O   0  0  0  0  0  0
   52.6743  102.4470   33.1615 C   0  0  0  0  0  0
   51.4800  102.4365   34.1088 C   0  0  0  0  0  0
   51.0139  103.6336   34.6618 C   0  0  0  0  0  0
   49.9149  103.6236   35.5213 C   0  0  0  0  0  0
   49.2860  102.4187   35.8224 C   0  0  0  0  0  0
   49.7435  101.2225   35.2731 C   0  0  0  0  0  0
   50.8421  101.2316   34.4148 C   0  0  0  0  0  0
   50.4328  102.9975   27.6144 H   0  0  0  0  0  0
   49.5826  102.0665   25.5214 H   0  0  0  0  0  0
   51.6831   99.1111   28.9722 H   0  0  0  0  0  0
   49.3439   99.5043   24.1419 H   0  0  0  0  0  0
   50.8556   96.9520   26.9101 H   0  0  0  0  0  0
   52.1850  100.2309   31.1827 H   0  0  0  0  0  0
   53.2663  103.3440   33.3491 H   0  0  0  0  0  0
   53.3303  101.6062   33.3954 H   0  0  0  0  0  0
   51.5024  104.5681   34.4304 H   0  0  0  0  0  0
   49.5595  104.5467   35.9559 H   0  0  0  0  0  0
   48.4382  102.4093   36.4896 H   0  0  0  0  0  0
   49.2485  100.2951   35.5166 H   0  0  0  0  0  0
   51.1911  100.3021   33.9873 H   0  0  0  0  0  0
  1 10  1  0  0  0
  1  2  2  0  0  0
  1  4  1  0  0  0
  2  3  1  0  0  0
  2 22  1  0  0  0
  3  6  2  0  0  0
  3 23  1  0  0  0
  4  5  2  0  0  0
  4 24  1  0  0  0
  5  6  1  0  0  0
  5  9  1  0  0  0
  6  7  1  0  0  0
  7  8  1  0  0  0
  7 25  1  0  0  0
  8  9  2  0  0  0
  9 26  1  0  0  0
 10 11  2  0  0  0
 10 14  1  0  0  0
 11 12  1  0  0  0
 11 27  1  0  0  0
 12 13  2  0  0  0
 12 15  1  0  0  0
 13 14  1  0  0  0
 15 16  1  0  0  0
 15 28  1  0  0  0
 15 29  1  0  0  0
 16 17  2  0  0  0
 16 21  1  0  0  0
 17 18  1  0  0  0
 17 30  1  0  0  0
 18 19  2  0  0  0
 18 31  1  0  0  0
 19 20  1  0  0  0
 19 32  1  0  0  0
 20 21  2  0  0  0
 20 33  1  0  0  0
 21 34  1  0  0  0
M  END
> <s_m_entry_id>
28016

> <s_m_entry_name>
dock_pv.177

> <s_m_Source_Path>
/home/csk/Desktop/cluster/DUD-E-result/rock1

> <s_m_Source_File>
dock_pv.maegz

> <i_m_Source_File_Index>
177

> <chembl_id>
CHEMBL1682357

> <chembl_pref_name>
None

> <i_lp_mmshare_version>
53161

> <r_lp_tautomer_probability>
0.980392156862745

> <s_lp_Force_Field>
OPLS_2005

> <r_lp_Energy>
9.94374

> <b_lp_Chiralities_Consistent>
1

> <s_lp_Variant>
CHEMBL3231_lig1432-1

> <s_i_glide_gridfile>
glide-grid_2etr

> <i_i_glide_lignum>
2008

> <i_i_glide_rotatable_bonds>
3

> <r_i_docking_score>
-8.11256403360945

> <r_i_glide_ligand_efficiency>
-0.386312573029021

> <r_i_glide_ligand_efficiency_sa>
-1.06580709628814

> <r_i_glide_ligand_efficiency_ln>
-2.00581506433077

> <r_i_glide_gscore>
-8.11256403360945

> <r_i_glide_lipo>
-2.88652718918967

> <r_i_glide_hbond>
-0.509072652097511

> <r_i_glide_metal>
0

> <r_i_glide_rewards>
-2.77757732073106

> <r_i_glide_evdw>
-34.8417282104492

> <r_i_glide_ecoul>
-3.99351620674133

> <r_i_glide_erotb>
0.497952559444257

> <r_i_glide_esite>
-0.096225589501805

> <r_i_glide_emodel>
-58.6374575281773

> <r_i_glide_energy>
-38.8352444171906

> <r_i_glide_einternal>
0.447112768888474

> <i_i_glide_confnum>
10

> <i_i_glide_posenum>
365

> <r_i_glide_eff_state_penalty>
0

> <s_user_duplicate_titles>
CHEMBL3231_lig1432,CHEMBL3231_lig1432

> <i_f3d_flags>
0

> <s_m_subgroup_title>
dock_pv

> <s_m_subgroupid>
dock_pv

> <b_m_subgroup_collapsed>
1

$$$$
CHEMBL3231_lig212
                    3D
 Schrodinger Suite 2021-1.
 40 43  0  0  1  0            999 V2000
   52.9927  103.1724   31.0624 C   0  0  0  0  0  0
   53.2105  103.1139   32.4318 C   0  0  0  0  0  0
   52.9633  101.9496   33.1506 C   0  0  0  0  0  0
   52.5253  100.7919   32.5081 C   0  0  0  0  0  0
   52.4806  102.0293   30.4322 C   0  0  0  0  0  0
   52.2494  100.8114   31.1279 C   0  0  0  0  0  0
   51.7209   99.7768   30.2771 C   0  0  0  0  0  0
   51.5776  100.2024   28.9466 C   0  0  0  0  0  0
   52.0295  101.8931   28.7608 S   0  0  0  0  0  0
   51.3814   98.4014   30.8396 C   0  0  0  0  0  0
   51.0736   99.4578   27.7245 C   0  0  0  0  0  0
   50.7637  100.2107   26.6277 N   0  0  0  0  0  0
   50.3044   99.5587   25.5329 C   0  0  0  0  0  0
   50.1025   98.2300   25.4199 N   0  0  0  0  0  0
   50.4436   97.4979   26.5018 C   0  0  0  0  0  0
   50.9386   98.0637   27.6779 C   0  0  0  0  0  0
   50.0418  100.3180   24.4113 N   0  0  0  0  0  0
   53.1060  101.9563   34.5147 O   0  0  0  0  0  0
   52.0511  102.4332   35.2595 C   0  0  0  0  0  0
   52.2898  103.4136   36.2236 C   0  0  0  0  0  0
   51.2385  103.9227   36.9887 C   0  0  0  0  0  0
   49.9389  103.4459   36.7980 C   0  0  0  0  0  0
   49.7006  102.4540   35.8447 C   0  0  0  0  0  0
   50.7493  101.9507   35.0823 C   0  0  0  0  0  0
   48.4428  101.9646   35.6446 O   0  0  0  0  0  0
   53.1929  104.0840   30.5137 H   0  0  0  0  0  0
   53.5718  103.9903   32.9511 H   0  0  0  0  0  0
   52.3667   99.9037   33.0948 H   0  0  0  0  0  0
   51.2439   98.4082   31.9160 H   0  0  0  0  0  0
   50.4462   98.0100   30.4401 H   0  0  0  0  0  0
   52.1661   97.6730   30.6330 H   0  0  0  0  0  0
   50.3330   96.4263   26.4076 H   0  0  0  0  0  0
   51.2237   97.4193   28.4902 H   0  0  0  0  0  0
   49.5353   99.9054   23.6327 H   0  0  0  0  0  0
   50.1179  101.3208   24.4941 H   0  0  0  0  0  0
   53.2922  103.7901   36.3658 H   0  0  0  0  0  0
   51.4310  104.6898   37.7248 H   0  0  0  0  0  0
   49.1283  103.8393   37.3933 H   0  0  0  0  0  0
   50.5479  101.1844   34.3517 H   0  0  0  0  0  0
   47.8241  102.2220   36.3334 H   0  0  0  0  0  0
  1  5  2  0  0  0
  1  2  1  0  0  0
  1 26  1  0  0  0
  2  3  2  0  0  0
  2 27  1  0  0  0
  3 18  1  0  0  0
  3  4  1  0  0  0
  4  6  2  0  0  0
  4 28  1  0  0  0
  5  9  1  0  0  0
  5  6  1  0  0  0
  6  7  1  0  0  0
  7  8  2  0  0  0
  7 10  1  0  0  0
  8 11  1  0  0  0
  8  9  1  0  0  0
 10 29  1  0  0  0
 10 30  1  0  0  0
 10 31  1  0  0  0
 11 16  1  0  0  0
 11 12  2  0  0  0
 12 13  1  0  0  0
 13 14  2  0  0  0
 13 17  1  0  0  0
 14 15  1  0  0  0
 15 16  2  0  0  0
 15 32  1  0  0  0
 16 33  1  0  0  0
 17 34  1  0  0  0
 17 35  1  0  0  0
 18 19  1  0  0  0
 19 20  2  0  0  0
 19 24  1  0  0  0
 20 21  1  0  0  0
 20 36  1  0  0  0
 21 22  2  0  0  0
 21 37  1  0  0  0
 22 23  1  0  0  0
 22 38  1  0  0  0
 23 24  2  0  0  0
 23 25  1  0  0  0
 24 39  1  0  0  0
 25 40  1  0  0  0
M  END
> <s_m_entry_id>
28017

> <s_m_entry_name>
dock_pv.178

> <s_m_Source_Path>
/home/csk/Desktop/cluster/DUD-E-result/rock1

> <s_m_Source_File>
dock_pv.maegz

> <i_m_Source_File_Index>
178

> <chembl_id>
CHEMBL1084947

> <chembl_pref_name>
None

> <i_lp_mmshare_version>
53161

> <r_lp_tautomer_probability>
0.9999999875775

> <s_lp_Force_Field>
OPLS_2005

> <r_lp_Energy>
11.441287

> <b_lp_Chiralities_Consistent>
1

> <s_lp_Variant>
CHEMBL3231_lig212-1

> <s_i_glide_gridfile>
glide-grid_2etr

> <i_i_glide_lignum>
344

> <i_i_glide_rotatable_bonds>
4

> <r_i_docking_score>
-8.11182860843466

> <r_i_glide_ligand_efficiency>
-0.324473144337387

> <r_i_glide_ligand_efficiency_sa>
-0.948765228598236

> <r_i_glide_ligand_efficiency_ln>
-1.9227464720861

> <r_i_glide_gscore>
-8.11182860843466

> <r_i_glide_lipo>
-2.29378179180376

> <r_i_glide_hbond>
-0.584569414886599

> <r_i_glide_metal>
0

> <r_i_glide_rewards>
-2.63650025046656

> <r_i_glide_evdw>
-42.3853225708008

> <r_i_glide_ecoul>
-5.36908912658691

> <r_i_glide_erotb>
0.327652346250332

> <r_i_glide_esite>
0

> <r_i_glide_emodel>
-69.1098520789901

> <r_i_glide_energy>
-47.7544116973877

> <r_i_glide_einternal>
2.60866641998291

> <i_i_glide_confnum>
8

> <i_i_glide_posenum>
259

> <r_i_glide_eff_state_penalty>
0

> <s_user_duplicate_titles>
CHEMBL3231_lig212,630266

> <i_f3d_flags>
0

> <s_m_subgroup_title>
dock_pv

> <s_m_subgroupid>
dock_pv

> <b_m_subgroup_collapsed>
1

$$$$
CHEMBL3231_lig902
                    3D
 Schrodinger Suite 2021-1.
 38 40  0  0  1  0            999 V2000
   54.3249  100.7407   33.3922 C   0  0  0  0  0  0
   53.0854  100.8163   32.4651 C   0  0  2  0  0  0
   51.8137  100.1931   33.1477 C   0  0  0  0  0  0
   53.3805  100.1554   31.1499 N   0  0  0  0  0  0
   52.8862  102.2653   32.1844 N   0  0  0  0  0  0
   52.0533  102.7524   31.2339 C   0  0  0  0  0  0
   52.5081  100.5374   30.1496 C   0  0  0  0  0  0
   51.8621  101.7740   30.2006 C   0  0  0  0  0  0
   50.8553  102.0589   28.8148 S   0  0  0  0  0  0
   51.2807  100.5181   28.1420 C   0  0  0  0  0  0
   52.1398   99.8291   28.9964 C   0  0  0  0  0  0
   51.6431  103.9030   31.2727 O   0  0  0  0  0  0
   50.7665  100.1050   26.8476 C   0  0  0  0  0  0
   50.4424  100.9103   25.7673 C   0  0  0  0  0  0
   50.0052  100.0593   24.7938 N   0  0  0  0  0  0
   50.0431   98.7817   25.1676 N   0  0  0  0  0  0
   50.4855   98.7992   26.4047 C   0  0  0  0  0  0
   51.2086  100.9383   34.3660 C   0  0  0  0  0  0
   50.1271  100.3031   34.8109 F   0  0  0  0  0  0
   50.8165  102.1796   34.0796 F   0  0  0  0  0  0
   52.0624  101.0104   35.3858 F   0  0  0  0  0  0
   53.7982   98.7515   31.2444 C   0  0  0  0  0  0
   50.6206   97.5030   27.1540 C   0  0  0  0  0  0
   55.2377  101.0307   32.8676 H   0  0  0  0  0  0
   54.2348  101.4032   34.2531 H   0  0  0  0  0  0
   54.4825   99.7381   33.7903 H   0  0  0  0  0  0
   52.0442   99.1743   33.4600 H   0  0  0  0  0  0
   51.0167  100.0867   32.4119 H   0  0  0  0  0  0
   53.6192  102.9039   32.4540 H   0  0  0  0  0  0
   52.5246   98.8479   28.7789 H   0  0  0  0  0  0
   50.4765  101.9787   25.6128 H   0  0  0  0  0  0
   49.6749  100.3345   23.8753 H   0  0  0  0  0  0
   52.9839   98.1127   31.5856 H   0  0  0  0  0  0
   54.1307   98.3833   30.2741 H   0  0  0  0  0  0
   54.6464   98.6200   31.9137 H   0  0  0  0  0  0
   51.6428   97.3517   27.4867 H   0  0  0  0  0  0
   49.9967   97.5032   28.0467 H   0  0  0  0  0  0
   50.3513   96.6397   26.5459 H   0  0  0  0  0  0
  1  2  1  0  0  0
  1 24  1  0  0  0
  1 25  1  0  0  0
  1 26  1  0  0  0
  2  3  1  0  0  0
  2  4  1  0  0  0
  2  5  1  0  0  0
  3 18  1  0  0  0
  3 27  1  0  0  0
  3 28  1  0  0  0
  4  7  1  0  0  0
  4 22  1  0  0  0
  5  6  1  0  0  0
  5 29  1  0  0  0
  6  8  1  0  0  0
  6 12  2  0  0  0
  7  8  2  0  0  0
  7 11  1  0  0  0
  8  9  1  0  0  0
  9 10  1  0  0  0
 10 11  2  0  0  0
 10 13  1  0  0  0
 11 30  1  0  0  0
 13 14  2  0  0  0
 13 17  1  0  0  0
 14 15  1  0  0  0
 14 31  1  0  0  0
 15 16  1  0  0  0
 15 32  1  0  0  0
 16 17  2  0  0  0
 17 23  1  0  0  0
 18 19  1  0  0  0
 18 20  1  0  0  0
 18 21  1  0  0  0
 22 33  1  0  0  0
 22 34  1  0  0  0
 22 35  1  0  0  0
 23 36  1  0  0  0
 23 37  1  0  0  0
 23 38  1  0  0  0
M  END
> <s_m_entry_id>
28018

> <s_m_entry_name>
dock_pv.179

> <s_m_Source_Path>
/home/csk/Desktop/cluster/DUD-E-result/rock1

> <s_m_Source_File>
dock_pv.maegz

> <i_m_Source_File_Index>
179

> <chembl_id>
CHEMBL4214023

> <chembl_pref_name>
None

> <i_lp_mmshare_version>
53161

> <r_lp_tautomer_probability>
0.5

> <s_lp_Force_Field>
OPLS_2005

> <r_lp_Energy>
26.999544

> <b_lp_Chiralities_Consistent>
1

> <s_lp_Variant>
CHEMBL3231_lig902-1

> <s_i_glide_gridfile>
glide-grid_2etr

> <i_i_glide_lignum>
1292

> <i_i_glide_rotatable_bonds>
3

> <r_i_docking_score>
-8.10814460252453

> <r_i_glide_ligand_efficiency>
-0.352528026196719

> <r_i_glide_ligand_efficiency_sa>
-1.00254281212527

> <r_i_glide_ligand_efficiency_ln>
-1.96062288548089

> <r_i_glide_gscore>
-8.10814460252453

> <r_i_glide_lipo>
-2.04835491544798

> <r_i_glide_hbond>
-0.437819890210068

> <r_i_glide_metal>
0

> <r_i_glide_rewards>
-2.90207210609497

> <r_i_glide_evdw>
-35.7416496276855

> <r_i_glide_ecoul>
-7.04596853256226

> <r_i_glide_erotb>
0.224158248846176

> <r_i_glide_esite>
-0.100078178349083

> <r_i_glide_emodel>
-63.1332048942069

> <r_i_glide_energy>
-42.7876181602478

> <r_i_glide_einternal>
2.4895179271698

> <i_i_glide_confnum>
14

> <i_i_glide_posenum>
164

> <r_i_glide_eff_state_penalty>
0

> <s_user_duplicate_titles>
CHEMBL3231_lig902

> <i_f3d_flags>
0

> <s_m_subgroup_title>
dock_pv

> <s_m_subgroupid>
dock_pv

> <b_m_subgroup_collapsed>
1

$$$$
CHEMBL3231_lig855
                    3D
 Schrodinger Suite 2021-1.
 61 63  0  0  1  0            999 V2000
   50.5555  107.3618   35.0557 C   0  0  0  0  0  0
   49.4657  106.5139   35.4097 O   0  0  0  0  0  0
   49.6164  105.1448   35.3094 C   0  0  0  0  0  0
   48.5247  104.3647   35.6955 C   0  0  0  0  0  0
   48.5760  102.9747   35.6089 C   0  0  0  0  0  0
   49.7247  102.3485   35.1290 C   0  0  0  0  0  0
   50.8330  103.1066   34.7308 C   0  0  0  0  0  0
   50.7736  104.5033   34.8356 C   0  0  0  0  0  0
   52.1110  102.4286   34.2090 C   0  0  1  0  0  0
   52.6013  101.2959   35.1303 C   0  0  0  0  0  0
   51.9829  101.9382   32.8340 N   0  0  0  0  0  0
   51.7447  102.6758   31.7365 C   0  0  0  0  0  0
   51.6430  103.9028   31.7901 O   0  0  0  0  0  0
   51.5305  101.9469   30.4185 C   0  0  0  0  0  0
   51.1369  102.7090   29.3092 C   0  0  0  0  0  0
   50.8431  102.1122   28.0920 C   0  0  0  0  0  0
   50.9580  100.7324   27.9209 C   0  0  0  0  0  0
   51.3792   99.9680   29.0094 C   0  0  0  0  0  0
   51.6610  100.5441   30.2599 C   0  0  0  0  0  0
   52.0119   99.7656   31.3493 O   0  0  0  0  0  0
   52.4689   98.4248   31.1677 C   0  0  0  0  0  0
   53.2959   97.9848   32.3949 C   0  0  0  0  0  0
   54.3249   98.9524   32.8044 N   0  0  0  0  0  0
   55.0906   98.4148   33.9265 C   0  0  0  0  0  0
   55.2427   99.2960   31.7162 C   0  0  0  0  0  0
   50.6088  100.1313   26.5917 C   0  0  0  0  0  0
   50.4119  100.8441   25.4223 C   0  0  0  0  0  0
   50.0431   99.9483   24.4663 N   0  0  0  0  0  0
   50.0428   98.7027   24.9237 N   0  0  0  0  0  0
   50.3810   98.7903   26.1932 C   0  0  0  0  0  0
   50.4456   97.5123   26.9930 C   0  0  0  0  0  0
   50.2632  108.4028   35.1927 H   0  0  0  0  0  0
   51.4287  107.1780   35.6838 H   0  0  0  0  0  0
   50.8406  107.2379   34.0109 H   0  0  0  0  0  0
   47.6274  104.8421   36.0612 H   0  0  0  0  0  0
   47.7257  102.3820   35.9139 H   0  0  0  0  0  0
   49.7454  101.2709   35.0595 H   0  0  0  0  0  0
   51.6313  105.0804   34.5236 H   0  0  0  0  0  0
   52.9129  103.1715   34.2049 H   0  0  0  0  0  0
   52.7181  101.6427   36.1576 H   0  0  0  0  0  0
   51.9192  100.4457   35.1373 H   0  0  0  0  0  0
   53.5726  100.9237   34.8021 H   0  0  0  0  0  0
   52.2277  100.9676   32.6702 H   0  0  0  0  0  0
   51.0324  103.7820   29.3778 H   0  0  0  0  0  0
   50.5106  102.7464   27.2847 H   0  0  0  0  0  0
   51.4605   98.9043   28.8917 H   0  0  0  0  0  0
   51.6142   97.7596   31.0350 H   0  0  0  0  0  0
   53.0934   98.3263   30.2783 H   0  0  0  0  0  0
   52.6142   97.8219   33.2315 H   0  0  0  0  0  0
   53.7577   97.0187   32.1800 H   0  0  0  0  0  0
   55.8236   99.1433   34.2787 H   0  0  0  0  0  0
   54.4380   98.1783   34.7681 H   0  0  0  0  0  0
   55.6295   97.5079   33.6473 H   0  0  0  0  0  0
   56.0776   99.9052   32.0667 H   0  0  0  0  0  0
   55.6430   98.3993   31.2450 H   0  0  0  0  0  0
   54.7348   99.8774   30.9466 H   0  0  0  0  0  0
   50.4725  101.8991   25.2110 H   0  0  0  0  0  0
   49.7648  100.1741   23.5159 H   0  0  0  0  0  0
   49.7900   97.5568   27.8614 H   0  0  0  0  0  0
   50.1566   96.6340   26.4114 H   0  0  0  0  0  0
   51.4536   97.3328   27.3591 H   0  0  0  0  0  0
  1  2  1  0  0  0
  1 32  1  0  0  0
  1 33  1  0  0  0
  1 34  1  0  0  0
  2  3  1  0  0  0
  3  4  2  0  0  0
  3  8  1  0  0  0
  4  5  1  0  0  0
  4 35  1  0  0  0
  5  6  2  0  0  0
  5 36  1  0  0  0
  6  7  1  0  0  0
  6 37  1  0  0  0
  7  8  2  0  0  0
  7  9  1  0  0  0
  8 38  1  0  0  0
  9 10  1  0  0  0
  9 11  1  0  0  0
  9 39  1  0  0  0
 10 40  1  0  0  0
 10 41  1  0  0  0
 10 42  1  0  0  0
 11 12  1  0  0  0
 11 43  1  0  0  0
 12 13  2  0  0  0
 12 14  1  0  0  0
 14 15  2  0  0  0
 14 19  1  0  0  0
 15 16  1  0  0  0
 15 44  1  0  0  0
 16 17  2  0  0  0
 16 45  1  0  0  0
 17 18  1  0  0  0
 17 26  1  0  0  0
 18 19  2  0  0  0
 18 46  1  0  0  0
 19 20  1  0  0  0
 20 21  1  0  0  0
 21 22  1  0  0  0
 21 47  1  0  0  0
 21 48  1  0  0  0
 22 23  1  0  0  0
 22 49  1  0  0  0
 22 50  1  0  0  0
 23 24  1  0  0  0
 23 25  1  0  0  0
 24 51  1  0  0  0
 24 52  1  0  0  0
 24 53  1  0  0  0
 25 54  1  0  0  0
 25 55  1  0  0  0
 25 56  1  0  0  0
 26 27  2  0  0  0
 26 30  1  0  0  0
 27 28  1  0  0  0
 27 57  1  0  0  0
 28 29  1  0  0  0
 28 58  1  0  0  0
 29 30  2  0  0  0
 30 31  1  0  0  0
 31 59  1  0  0  0
 31 60  1  0  0  0
 31 61  1  0  0  0
M  END
> <s_m_entry_id>
28019

> <s_m_entry_name>
dock_pv.180

> <s_m_Source_Path>
/home/csk/Desktop/cluster/DUD-E-result/rock1

> <s_m_Source_File>
dock_pv.maegz

> <i_m_Source_File_Index>
180

> <chembl_id>
CHEMBL4114333

> <chembl_pref_name>
None

> <i_lp_mmshare_version>
53161

> <r_lp_tautomer_probability>
0.5

> <s_lp_Force_Field>
OPLS_2005

> <r_lp_Energy>
28.620029

> <b_lp_Chiralities_Consistent>
1

> <s_lp_Variant>
CHEMBL3231_lig855-1

> <s_i_glide_gridfile>
glide-grid_2etr

> <i_i_glide_lignum>
1207

> <i_i_glide_rotatable_bonds>
10

> <r_i_docking_score>
-8.10122777838889

> <r_i_glide_ligand_efficiency>
-0.261329928335125

> <r_i_glide_ligand_efficiency_sa>
-0.820936779823097

> <r_i_glide_ligand_efficiency_ln>
-1.82707513684166

> <r_i_glide_gscore>
-8.10122777838889

> <r_i_glide_lipo>
-2.92199150408142

> <r_i_glide_hbond>
-0.596490883671594

> <r_i_glide_metal>
0

> <r_i_glide_rewards>
-1.5926624871005

> <r_i_glide_evdw>
-44.6545600891113

> <r_i_glide_ecoul>
-8.80437755584717

> <r_i_glide_erotb>
0.621446751373156

> <r_i_glide_esite>
-0.05814501707588

> <r_i_glide_emodel>
-79.6886572080945

> <r_i_glide_energy>
-53.4589376449585

> <r_i_glide_einternal>
5.07990789413452

> <i_i_glide_confnum>
64

> <i_i_glide_posenum>
138

> <r_i_glide_eff_state_penalty>
0

> <s_user_duplicate_titles>
CHEMBL3231_lig855,CHEMBL3231_lig855

> <i_f3d_flags>
0

> <s_m_subgroup_title>
dock_pv

> <s_m_subgroupid>
dock_pv

> <b_m_subgroup_collapsed>
1

$$$$
CHEMBL3231_lig346
                    3D
 Schrodinger Suite 2021-1.
 64 68  0  0  1  0            999 V2000
   50.8289  102.0287   28.5154 C   0  0  0  0  0  0
   51.1786  100.7454   28.0776 C   0  0  0  0  0  0
   52.0441   99.9482   28.8266 C   0  0  0  0  0  0
   51.3218  102.5515   29.7144 C   0  0  0  0  0  0
   52.1831  101.7678   30.5009 C   0  0  0  0  0  0
   52.5315  100.4767   30.0209 C   0  0  0  0  0  0
   53.3805   99.9320   30.9466 N   0  0  0  0  0  0
   53.6056  100.7988   31.9928 C   0  0  0  0  0  0
   52.8386  101.9548   31.7749 C   0  0  0  0  0  0
   50.6316  100.1975   26.7997 C   0  0  0  0  0  0
   50.5810   98.8585   26.3626 C   0  0  0  0  0  0
   50.0429   98.7112   25.1763 N   0  0  0  0  0  0
   49.7133   99.9509   24.8113 N   0  0  0  0  0  0
   50.0428  100.8868   25.7514 C   0  0  0  0  0  0
   54.3833  100.4062   33.1489 C   0  0  0  0  0  0
   54.1288  100.8275   34.2771 O   0  0  0  0  0  0
   55.3198   99.4733   32.8942 N   0  0  0  0  0  0
   56.0036   98.6595   33.8962 C   0  0  0  0  0  0
   55.3633   97.2795   33.9925 C   0  0  0  0  0  0
   55.7830   96.2487   33.1426 C   0  0  0  0  0  0
   55.2093   94.9688   33.2173 C   0  0  0  0  0  0
   54.2082   94.7358   34.1641 C   0  0  0  0  0  0
   53.7995   95.7498   35.0312 C   0  0  0  0  0  0
   54.3783   97.0155   34.9508 C   0  0  0  0  0  0
   55.5613   93.9044   32.4104 O   0  0  0  0  0  0
   56.6489   94.0616   31.5001 C   0  0  0  0  0  0
   52.7232  103.1866   32.6698 C   0  0  0  0  0  0
   51.4252  103.3396   33.3509 N   0  0  0  0  0  0
   51.1295  102.1866   34.2207 C   0  0  0  0  0  0
   49.7880  102.3951   34.9648 C   0  0  0  0  0  0
   49.8922  103.5606   35.8521 N   0  0  0  0  0  0
   50.2125  104.7477   35.0515 C   0  0  0  0  0  0
   51.5072  104.5300   34.2228 C   0  0  0  0  0  0
   48.6471  103.7482   36.5895 C   0  0  0  0  0  0
   50.1576  102.6319   27.9254 H   0  0  0  0  0  0
   52.3338   98.9621   28.4972 H   0  0  0  0  0  0
   51.0419  103.5406   30.0345 H   0  0  0  0  0  0
   53.7952   99.0120   30.9238 H   0  0  0  0  0  0
   50.9402   98.0022   26.9139 H   0  0  0  0  0  0
   49.2656  100.1446   23.9188 H   0  0  0  0  0  0
   49.8341  101.9355   25.6096 H   0  0  0  0  0  0
   55.6554   99.3592   31.9472 H   0  0  0  0  0  0
   56.0020   99.1303   34.8838 H   0  0  0  0  0  0
   57.0542   98.5632   33.6123 H   0  0  0  0  0  0
   56.5509   96.4641   32.4130 H   0  0  0  0  0  0
   53.7494   93.7593   34.2301 H   0  0  0  0  0  0
   53.0314   95.5494   35.7656 H   0  0  0  0  0  0
   54.0536   97.7998   35.6222 H   0  0  0  0  0  0
   56.8431   93.1190   30.9906 H   0  0  0  0  0  0
   56.4223   94.8042   30.7318 H   0  0  0  0  0  0
   57.5665   94.3496   32.0143 H   0  0  0  0  0  0
   53.5196  103.1726   33.4164 H   0  0  0  0  0  0
   52.9132  104.0847   32.0781 H   0  0  0  0  0  0
   51.0596  101.2768   33.6203 H   0  0  0  0  0  0
   51.9346  102.0242   34.9418 H   0  0  0  0  0  0
   49.5600  101.5047   35.5531 H   0  0  0  0  0  0
   48.9716  102.5224   34.2504 H   0  0  0  0  0  0
   50.3676  105.5935   35.7230 H   0  0  0  0  0  0
   49.3763  105.0186   34.4110 H   0  0  0  0  0  0
   52.3596  104.4517   34.9019 H   0  0  0  0  0  0
   51.6874  105.4163   33.6114 H   0  0  0  0  0  0
   48.4389  102.8766   37.2101 H   0  0  0  0  0  0
   48.7178  104.6117   37.2536 H   0  0  0  0  0  0
   47.7978  103.9033   35.9207 H   0  0  0  0  0  0
  1  4  1  0  0  0
  1  2  2  0  0  0
  1 35  1  0  0  0
  2  3  1  0  0  0
  2 10  1  0  0  0
  3  6  2  0  0  0
  3 36  1  0  0  0
  4  5  2  0  0  0
  4 37  1  0  0  0
  5  9  1  0  0  0
  5  6  1  0  0  0
  6  7  1  0  0  0
  7  8  1  0  0  0
  7 38  1  0  0  0
  8  9  2  0  0  0
  8 15  1  0  0  0
  9 27  1  0  0  0
 10 14  2  0  0  0
 10 11  1  0  0  0
 11 39  1  0  0  0
 11 12  2  0  0  0
 12 13  1  0  0  0
 13 40  1  0  0  0
 13 14  1  0  0  0
 14 41  1  0  0  0
 15 16  2  0  0  0
 15 17  1  0  0  0
 17 18  1  0  0  0
 17 42  1  0  0  0
 18 19  1  0  0  0
 18 43  1  0  0  0
 18 44  1  0  0  0
 19 20  2  0  0  0
 19 24  1  0  0  0
 20 21  1  0  0  0
 20 45  1  0  0  0
 21 22  2  0  0  0
 21 25  1  0  0  0
 22 23  1  0  0  0
 22 46  1  0  0  0
 23 24  2  0  0  0
 23 47  1  0  0  0
 24 48  1  0  0  0
 25 26  1  0  0  0
 26 49  1  0  0  0
 26 50  1  0  0  0
 26 51  1  0  0  0
 27 28  1  0  0  0
 27 52  1  0  0  0
 27 53  1  0  0  0
 28 29  1  0  0  0
 28 33  1  0  0  0
 29 30  1  0  0  0
 29 54  1  0  0  0
 29 55  1  0  0  0
 30 31  1  0  0  0
 30 56  1  0  0  0
 30 57  1  0  0  0
 31 32  1  0  0  0
 31 34  1  0  0  0
 32 33  1  0  0  0
 32 58  1  0  0  0
 32 59  1  0  0  0
 33 60  1  0  0  0
 33 61  1  0  0  0
 34 62  1  0  0  0
 34 63  1  0  0  0
 34 64  1  0  0  0
M  END
> <s_m_entry_id>
28020

> <s_m_entry_name>
dock_pv.181

> <s_m_Source_Path>
/home/csk/Desktop/cluster/DUD-E-result/rock1

> <s_m_Source_File>
dock_pv.maegz

> <i_m_Source_File_Index>
181

> <chembl_id>
CHEMBL1922140

> <chembl_pref_name>
None

> <i_lp_mmshare_version>
53161

> <r_lp_tautomer_probability>
0.5

> <s_lp_Force_Field>
OPLS_2005

> <r_lp_Energy>
41.527745

> <b_lp_Chiralities_Consistent>
1

> <s_lp_Variant>
CHEMBL3231_lig346-1

> <s_i_glide_gridfile>
glide-grid_2etr

> <i_i_glide_lignum>
494

> <i_i_glide_rotatable_bonds>
8

> <r_i_docking_score>
-8.09754018863202

> <r_i_glide_ligand_efficiency>
-0.238162946724471

> <r_i_glide_ligand_efficiency_sa>
-0.77155549192869

> <r_i_glide_ligand_efficiency_ln>
-1.78897375597776

> <r_i_glide_gscore>
-8.09754018863202

> <r_i_glide_lipo>
-2.58715690219895

> <r_i_glide_hbond>
-0.589805778434298

> <r_i_glide_metal>
0

> <r_i_glide_rewards>
-1.41212862942955

> <r_i_glide_evdw>
-53.7056579589844

> <r_i_glide_ecoul>
-7.96297550201416

> <r_i_glide_erotb>
0.468709868421079

> <r_i_glide_esite>
-0.0974295237389569

> <r_i_glide_emodel>
-87.4372098735929

> <r_i_glide_energy>
-61.6686334609985

> <r_i_glide_einternal>
11.2743721008301

> <i_i_glide_confnum>
12

> <i_i_glide_posenum>
11

> <r_i_glide_eff_state_penalty>
0

> <s_user_duplicate_titles>
CHEMBL3231_lig346

> <i_f3d_flags>
0

> <s_m_subgroup_title>
dock_pv

> <s_m_subgroupid>
dock_pv

> <b_m_subgroup_collapsed>
1

$$$$
CHEMBL3231_lig860
                    3D
 Schrodinger Suite 2021-1.
 50 52  0  0  1  0            999 V2000
   50.2164  107.7994   34.9765 C   0  0  0  0  0  0
   49.2462  106.8436   35.3899 O   0  0  0  0  0  0
   49.5396  105.4967   35.2943 C   0  0  0  0  0  0
   48.5380  104.6136   35.6998 C   0  0  0  0  0  0
   48.7249  103.2362   35.6126 C   0  0  0  0  0  0
   49.9229  102.7230   35.1216 C   0  0  0  0  0  0
   50.0805  101.3803   35.0486 F   0  0  0  0  0  0
   50.9532  103.5841   34.7131 C   0  0  0  0  0  0
   50.7524  104.9708   34.8138 C   0  0  0  0  0  0
   52.2806  102.9867   34.2098 C   0  0  2  0  0  0
   53.5198  103.9038   34.3446 C   0  0  0  0  0  0
   52.1533  102.3738   32.8824 N   0  0  0  0  0  0
   52.0096  103.0243   31.7111 C   0  0  0  0  0  0
   52.0430  104.2497   31.6232 O   0  0  0  0  0  0
   51.7257  102.1784   30.4905 C   0  0  0  0  0  0
   51.1370  102.7519   29.3608 C   0  0  0  0  0  0
   50.8384  101.9750   28.2450 C   0  0  0  0  0  0
   51.1317  100.6038   28.1989 C   0  0  0  0  0  0
   50.7314   99.9068   26.9160 C   0  0  0  0  0  0
   50.3938   98.5606   26.6557 C   0  0  0  0  0  0
   50.0430   98.3224   25.4109 N   0  0  0  0  0  0
   50.1294   99.5102   24.8126 N   0  0  0  0  0  0
   50.5637  100.4895   25.6606 C   0  0  0  0  0  0
   51.7473  100.0187   29.3333 C   0  0  0  0  0  0
   52.0293  100.8138   30.4551 C   0  0  0  0  0  0
   52.1310   98.5383   29.4072 C   0  0  2  0  0  0
   51.0224   97.6762   30.0462 C   0  0  0  0  0  0
   53.3096   98.3041   30.1631 O   0  0  0  0  0  0
   49.8263  108.8032   35.1384 H   0  0  0  0  0  0
   51.1396  107.7097   35.5500 H   0  0  0  0  0  0
   50.4427  107.7024   33.9137 H   0  0  0  0  0  0
   47.6020  105.0002   36.0773 H   0  0  0  0  0  0
   47.9414  102.5604   35.9281 H   0  0  0  0  0  0
   51.5369  105.6413   34.4953 H   0  0  0  0  0  0
   52.4921  102.1515   34.8804 H   0  0  0  0  0  0
   53.6529  104.2388   35.3735 H   0  0  0  0  0  0
   54.4287  103.3714   34.0592 H   0  0  0  0  0  0
   53.4617  104.7886   33.7097 H   0  0  0  0  0  0
   52.0164  101.3746   32.8737 H   0  0  0  0  0  0
   50.8970  103.8038   29.3336 H   0  0  0  0  0  0
   50.3620  102.4652   27.4097 H   0  0  0  0  0  0
   50.3808   97.7531   27.3706 H   0  0  0  0  0  0
   49.8824   99.6511   23.8398 H   0  0  0  0  0  0
   50.6912  101.5028   25.3091 H   0  0  0  0  0  0
   52.4979  100.3487   31.3112 H   0  0  0  0  0  0
   52.3474   98.1850   28.4023 H   0  0  0  0  0  0
   50.0791   97.7556   29.5074 H   0  0  0  0  0  0
   51.2817   96.6178   30.0416 H   0  0  0  0  0  0
   50.8378   97.9650   31.0811 H   0  0  0  0  0  0
   54.0456   98.7675   29.7512 H   0  0  0  0  0  0
  1  2  1  0  0  0
  1 29  1  0  0  0
  1 30  1  0  0  0
  1 31  1  0  0  0
  2  3  1  0  0  0
  3  4  2  0  0  0
  3  9  1  0  0  0
  4  5  1  0  0  0
  4 32  1  0  0  0
  5  6  2  0  0  0
  5 33  1  0  0  0
  6  7  1  0  0  0
  6  8  1  0  0  0
  8  9  2  0  0  0
  8 10  1  0  0  0
  9 34  1  0  0  0
 10 11  1  0  0  0
 10 12  1  0  0  0
 10 35  1  0  0  0
 11 36  1  0  0  0
 11 37  1  0  0  0
 11 38  1  0  0  0
 12 13  1  0  0  0
 12 39  1  0  0  0
 13 14  2  0  0  0
 13 15  1  0  0  0
 15 16  2  0  0  0
 15 25  1  0  0  0
 16 17  1  0  0  0
 16 40  1  0  0  0
 17 18  2  0  0  0
 17 41  1  0  0  0
 18 19  1  0  0  0
 18 24  1  0  0  0
 19 20  1  0  0  0
 19 23  2  0  0  0
 20 21  2  0  0  0
 20 42  1  0  0  0
 21 22  1  0  0  0
 22 23  1  0  0  0
 22 43  1  0  0  0
 23 44  1  0  0  0
 24 25  2  0  0  0
 24 26  1  0  0  0
 25 45  1  0  0  0
 26 27  1  0  0  0
 26 28  1  0  0  0
 26 46  1  0  0  0
 27 47  1  0  0  0
 27 48  1  0  0  0
 27 49  1  0  0  0
 28 50  1  0  0  0
M  END
> <s_m_entry_id>
28021

> <s_m_entry_name>
dock_pv.182

> <s_m_Source_Path>
/home/csk/Desktop/cluster/DUD-E-result/rock1

> <s_m_Source_File>
dock_pv.maegz

> <i_m_Source_File_Index>
182

> <chembl_id>
CHEMBL3950612

> <chembl_pref_name>
None

> <i_lp_mmshare_version>
53161

> <r_lp_tautomer_probability>
0.5

> <s_lp_Force_Field>
OPLS_2005

> <r_lp_Energy>
23.588034

> <b_lp_Chiralities_Consistent>
1

> <s_lp_Variant>
CHEMBL3231_lig860-1

> <s_i_glide_gridfile>
glide-grid_2etr

> <i_i_glide_lignum>
1213

> <i_i_glide_rotatable_bonds>
8

> <r_i_docking_score>
-8.09463185197869

> <r_i_glide_ligand_efficiency>
-0.289093994713525

> <r_i_glide_ligand_efficiency_sa>
-0.877859635207501

> <r_i_glide_ligand_efficiency_ln>
-1.86847870015521

> <r_i_glide_gscore>
-8.09463185197869

> <r_i_glide_lipo>
-2.85783066246964

> <r_i_glide_hbond>
-0.384691944177872

> <r_i_glide_metal>
0

> <r_i_glide_rewards>
-2.3786779366459

> <r_i_glide_evdw>
-44.7434921264648

> <r_i_glide_ecoul>
-4.82439422607422

> <r_i_glide_erotb>
0.555167396961589

> <r_i_glide_esite>
-0.0677649654124997

> <r_i_glide_emodel>
-73.0795171348607

> <r_i_glide_energy>
-49.5678863525391

> <r_i_glide_einternal>
2.70155811309814

> <i_i_glide_confnum>
88

> <i_i_glide_posenum>
352

> <r_i_glide_eff_state_penalty>
0

> <s_user_duplicate_titles>
CHEMBL3231_lig860

> <i_f3d_flags>
0

> <s_m_subgroup_title>
dock_pv

> <s_m_subgroupid>
dock_pv

> <b_m_subgroup_collapsed>
1

$$$$
CHEMBL3231_lig622
                    3D
 Schrodinger Suite 2021-1.
 53 55  0  0  1  0            999 V2000
   51.4433   97.7086   30.4355 C   0  0  0  0  0  0
   51.2470   98.4357   29.2239 O   0  0  0  0  0  0
   51.3630   99.8153   29.2132 C   0  0  0  0  0  0
   51.7684  100.5549   30.3415 C   0  0  0  0  0  0
   51.8017  101.9580   30.3244 C   0  0  0  0  0  0
   51.4625  102.6194   29.1435 C   0  0  0  0  0  0
   51.0813  101.9030   28.0194 C   0  0  0  0  0  0
   51.0168  100.5069   28.0347 C   0  0  0  0  0  0
   50.5345   99.8442   26.7770 C   0  0  0  0  0  0
   50.5834   98.4902   26.3873 C   0  0  0  0  0  0
   50.0469   98.2587   25.2118 N   0  0  0  0  0  0
   49.6434   99.4571   24.7975 N   0  0  0  0  0  0
   49.9140  100.4486   25.6902 C   0  0  0  0  0  0
   52.1190  102.7709   31.5538 C   0  0  0  0  0  0
   51.6503  103.9028   31.6858 O   0  0  0  0  0  0
   52.9037  102.1993   32.4827 N   0  0  0  0  0  0
   53.1991  102.7915   33.7896 C   0  0  0  0  0  0
   51.9961  102.9828   34.7261 C   0  0  0  0  0  0
   51.8054  104.2619   35.2706 C   0  0  0  0  0  0
   50.7171  104.5378   36.0971 C   0  0  0  0  0  0
   49.7947  103.5373   36.3892 C   0  0  0  0  0  0
   48.4440  103.8848   37.4083 Cl  0  0  0  0  0  0
   49.9655  102.2606   35.8590 C   0  0  0  0  0  0
   51.0614  101.9691   35.0355 C   0  0  0  0  0  0
   51.1697  100.3030   34.4210 S   0  0  0  0  0  0
   52.7276   99.5202   34.9575 C   0  0  0  0  0  0
   52.8967   99.1660   36.4530 C   0  0  0  0  0  0
   52.9211  100.4016   37.3727 C   0  0  0  0  0  0
   54.1585   98.3088   36.6726 C   0  0  0  0  0  0
   51.2430   96.6521   30.2576 H   0  0  0  0  0  0
   52.4692   97.7942   30.7968 H   0  0  0  0  0  0
   50.7591   98.0384   31.2179 H   0  0  0  0  0  0
   52.0111  100.0399   31.2573 H   0  0  0  0  0  0
   51.4812  103.6994   29.0882 H   0  0  0  0  0  0
   50.8219  102.4592   27.1329 H   0  0  0  0  0  0
   51.0072   97.6793   26.9618 H   0  0  0  0  0  0
   49.1987   99.5971   23.8948 H   0  0  0  0  0  0
   49.6396  101.4717   25.4789 H   0  0  0  0  0  0
   53.3405  101.3157   32.2653 H   0  0  0  0  0  0
   53.7041  103.7439   33.6147 H   0  0  0  0  0  0
   53.9475  102.1938   34.3041 H   0  0  0  0  0  0
   52.4960  105.0612   35.0420 H   0  0  0  0  0  0
   50.5871  105.5308   36.5027 H   0  0  0  0  0  0
   49.2467  101.4885   36.0917 H   0  0  0  0  0  0
   53.5727  100.1125   34.6198 H   0  0  0  0  0  0
   52.7945   98.5965   34.3823 H   0  0  0  0  0  0
   52.0424   98.5595   36.7554 H   0  0  0  0  0  0
   53.7053  101.1026   37.0825 H   0  0  0  0  0  0
   53.0949  100.1171   38.4109 H   0  0  0  0  0  0
   51.9707  100.9290   37.3516 H   0  0  0  0  0  0
   55.0639   98.8569   36.4067 H   0  0  0  0  0  0
   54.2541   98.0009   37.7148 H   0  0  0  0  0  0
   54.1337   97.3988   36.0706 H   0  0  0  0  0  0
  1  2  1  0  0  0
  1 30  1  0  0  0
  1 31  1  0  0  0
  1 32  1  0  0  0
  2  3  1  0  0  0
  3  4  2  0  0  0
  3  8  1  0  0  0
  4  5  1  0  0  0
  4 33  1  0  0  0
  5  6  2  0  0  0
  5 14  1  0  0  0
  6  7  1  0  0  0
  6 34  1  0  0  0
  7  8  2  0  0  0
  7 35  1  0  0  0
  8  9  1  0  0  0
  9 10  1  0  0  0
  9 13  2  0  0  0
 10 11  2  0  0  0
 10 36  1  0  0  0
 11 12  1  0  0  0
 12 13  1  0  0  0
 12 37  1  0  0  0
 13 38  1  0  0  0
 14 15  2  0  0  0
 14 16  1  0  0  0
 16 17  1  0  0  0
 16 39  1  0  0  0
 17 18  1  0  0  0
 17 40  1  0  0  0
 17 41  1  0  0  0
 18 19  2  0  0  0
 18 24  1  0  0  0
 19 20  1  0  0  0
 19 42  1  0  0  0
 20 21  2  0  0  0
 20 43  1  0  0  0
 21 22  1  0  0  0
 21 23  1  0  0  0
 23 24  2  0  0  0
 23 44  1  0  0  0
 24 25  1  0  0  0
 25 26  1  0  0  0
 26 27  1  0  0  0
 26 45  1  0  0  0
 26 46  1  0  0  0
 27 28  1  0  0  0
 27 29  1  0  0  0
 27 47  1  0  0  0
 28 48  1  0  0  0
 28 49  1  0  0  0
 28 50  1  0  0  0
 29 51  1  0  0  0
 29 52  1  0  0  0
 29 53  1  0  0  0
M  END
> <s_m_entry_id>
28022

> <s_m_entry_name>
dock_pv.183

> <s_m_Source_Path>
/home/csk/Desktop/cluster/DUD-E-result/rock1

> <s_m_Source_File>
dock_pv.maegz

> <i_m_Source_File_Index>
183

> <chembl_id>
CHEMBL3894920

> <chembl_pref_name>
None

> <i_lp_mmshare_version>
53161

> <r_lp_tautomer_probability>
0.5

> <s_lp_Force_Field>
OPLS_2005

> <r_lp_Energy>
23.882451

> <b_lp_Chiralities_Consistent>
1

> <s_lp_Variant>
CHEMBL3231_lig622-1

> <s_i_glide_gridfile>
glide-grid_2etr

> <i_i_glide_lignum>
908

> <i_i_glide_rotatable_bonds>
9

> <r_i_docking_score>
-8.09337021513983

> <r_i_glide_ligand_efficiency>
-0.279081731556546

> <r_i_glide_ligand_efficiency_sa>
-0.857427498640313

> <r_i_glide_ligand_efficiency_ln>
-1.85317654910611

> <r_i_glide_gscore>
-8.09337021513983

> <r_i_glide_lipo>
-2.79588469681789

> <r_i_glide_hbond>
-0.694949853448136

> <r_i_glide_metal>
0

> <r_i_glide_rewards>
-1.4317268192318

> <r_i_glide_evdw>
-46.6083145141602

> <r_i_glide_ecoul>
-8.72914791107178

> <r_i_glide_erotb>
0.526846992859397

> <r_i_glide_esite>
-0.0578679261326335

> <r_i_glide_emodel>
-81.7563294904758

> <r_i_glide_energy>
-55.3374624252319

> <r_i_glide_einternal>
2.54846501350403

> <i_i_glide_confnum>
7

> <i_i_glide_posenum>
395

> <r_i_glide_eff_state_penalty>
0

> <s_user_duplicate_titles>
CHEMBL3231_lig622

> <i_f3d_flags>
0

> <s_m_subgroup_title>
dock_pv

> <s_m_subgroupid>
dock_pv

> <b_m_subgroup_collapsed>
1

$$$$
CHEMBL3231_lig586
                    3D
 Schrodinger Suite 2021-1.
 60 62  0  0  1  0            999 V2000
   51.3873   97.5405   30.3725 C   0  0  0  0  0  0
   51.2429   98.3275   29.1919 O   0  0  0  0  0  0
   51.3237   99.7104   29.2542 C   0  0  0  0  0  0
   51.6549  100.3916   30.4382 C   0  0  0  0  0  0
   51.6426  101.7954   30.5146 C   0  0  0  0  0  0
   51.3850  102.5157   29.3434 C   0  0  0  0  0  0
   51.0727  101.8562   28.1596 C   0  0  0  0  0  0
   51.0095  100.4592   28.1010 C   0  0  0  0  0  0
   50.5461   99.8464   26.8098 C   0  0  0  0  0  0
   49.9473  100.4855   25.7277 C   0  0  0  0  0  0
   49.6601   99.5150   24.8112 N   0  0  0  0  0  0
   50.0432   98.3026   25.2110 N   0  0  0  0  0  0
   50.5827   98.5025   26.3893 C   0  0  0  0  0  0
   51.8070  102.5323   31.8296 C   0  0  0  0  0  0
   51.7348  103.7615   31.8800 O   0  0  0  0  0  0
   51.9554  101.7697   32.9276 N   0  0  0  0  0  0
   52.0716  102.2194   34.3195 C   0  0  2  0  0  0
   52.3779  101.0245   35.2551 C   0  0  0  0  0  0
   53.4169  100.2030   34.7213 O   0  0  0  0  0  0
   53.4469   98.8792   34.9595 C   0  0  0  0  0  0
   52.6386   98.2832   35.6743 O   0  0  0  0  0  0
   54.5052   98.3247   34.2530 N   0  0  0  0  0  0
   54.8732   96.9002   34.2272 C   0  0  0  0  0  0
   56.1004   96.7560   33.3055 C   0  0  0  0  0  0
   53.7332   96.0297   33.6480 C   0  0  0  0  0  0
   55.2581   96.3887   35.6355 C   0  0  0  0  0  0
   50.8602  103.0318   34.8090 C   0  0  0  0  0  0
   50.9806  104.4142   35.0023 C   0  0  0  0  0  0
   49.8997  105.1503   35.4853 C   0  0  0  0  0  0
   48.7005  104.5041   35.7858 C   0  0  0  0  0  0
   48.5706  103.1305   35.5985 C   0  0  0  0  0  0
   49.6464  102.3953   35.1076 C   0  0  0  0  0  0
   51.2411   96.4882   30.1251 H   0  0  0  0  0  0
   52.3822   97.6410   30.8076 H   0  0  0  0  0  0
   50.6402   97.8011   31.1234 H   0  0  0  0  0  0
   51.8668   99.8156   31.3252 H   0  0  0  0  0  0
   51.3897  103.5971   29.3473 H   0  0  0  0  0  0
   50.8426  102.4555   27.2921 H   0  0  0  0  0  0
   49.6819  101.5156   25.5415 H   0  0  0  0  0  0
   49.2214   99.6784   23.9090 H   0  0  0  0  0  0
   50.9884   97.6708   26.9467 H   0  0  0  0  0  0
   52.2360  100.8136   32.7726 H   0  0  0  0  0  0
   52.9540  102.8617   34.3566 H   0  0  0  0  0  0
   51.4679  100.4368   35.3920 H   0  0  0  0  0  0
   52.6686  101.3787   36.2454 H   0  0  0  0  0  0
   55.0809   98.9537   33.7152 H   0  0  0  0  0  0
   56.4496   95.7233   33.2492 H   0  0  0  0  0  0
   56.9435   97.3598   33.6512 H   0  0  0  0  0  0
   55.8816   97.0729   32.2837 H   0  0  0  0  0  0
   52.8504   96.0369   34.2877 H   0  0  0  0  0  0
   53.4239   96.3753   32.6595 H   0  0  0  0  0  0
   54.0337   94.9862   33.5451 H   0  0  0  0  0  0
   54.4176   96.4273   36.3275 H   0  0  0  0  0  0
   55.5995   95.3530   35.6044 H   0  0  0  0  0  0
   56.0635   96.9845   36.0676 H   0  0  0  0  0  0
   51.9083  104.9225   34.7734 H   0  0  0  0  0  0
   49.9951  106.2163   35.6347 H   0  0  0  0  0  0
   47.8636  105.0746   36.1648 H   0  0  0  0  0  0
   47.6377  102.6361   35.8315 H   0  0  0  0  0  0
   49.5319  101.3314   34.9618 H   0  0  0  0  0  0
  1  2  1  0  0  0
  1 33  1  0  0  0
  1 34  1  0  0  0
  1 35  1  0  0  0
  2  3  1  0  0  0
  3  4  2  0  0  0
  3  8  1  0  0  0
  4  5  1  0  0  0
  4 36  1  0  0  0
  5  6  2  0  0  0
  5 14  1  0  0  0
  6  7  1  0  0  0
  6 37  1  0  0  0
  7  8  2  0  0  0
  7 38  1  0  0  0
  8  9  1  0  0  0
  9 10  2  0  0  0
  9 13  1  0  0  0
 10 11  1  0  0  0
 10 39  1  0  0  0
 11 12  1  0  0  0
 11 40  1  0  0  0
 12 13  2  0  0  0
 13 41  1  0  0  0
 14 15  2  0  0  0
 14 16  1  0  0  0
 16 17  1  0  0  0
 16 42  1  0  0  0
 17 18  1  0  0  0
 17 27  1  0  0  0
 17 43  1  0  0  0
 18 19  1  0  0  0
 18 44  1  0  0  0
 18 45  1  0  0  0
 19 20  1  0  0  0
 20 21  2  0  0  0
 20 22  1  0  0  0
 22 23  1  0  0  0
 22 46  1  0  0  0
 23 24  1  0  0  0
 23 25  1  0  0  0
 23 26  1  0  0  0
 24 47  1  0  0  0
 24 48  1  0  0  0
 24 49  1  0  0  0
 25 50  1  0  0  0
 25 51  1  0  0  0
 25 52  1  0  0  0
 26 53  1  0  0  0
 26 54  1  0  0  0
 26 55  1  0  0  0
 27 28  2  0  0  0
 27 32  1  0  0  0
 28 29  1  0  0  0
 28 56  1  0  0  0
 29 30  2  0  0  0
 29 57  1  0  0  0
 30 31  1  0  0  0
 30 58  1  0  0  0
 31 32  2  0  0  0
 31 59  1  0  0  0
 32 60  1  0  0  0
M  END
> <s_m_entry_id>
28023

> <s_m_entry_name>
dock_pv.184

> <s_m_Source_Path>
/home/csk/Desktop/cluster/DUD-E-result/rock1

> <s_m_Source_File>
dock_pv.maegz

> <i_m_Source_File_Index>
184

> <chembl_id>
CHEMBL3925445

> <chembl_pref_name>
None

> <i_lp_mmshare_version>
53161

> <r_lp_tautomer_probability>
0.5

> <s_lp_Force_Field>
OPLS_2005

> <r_lp_Energy>
19.983405

> <b_lp_Chiralities_Consistent>
1

> <s_lp_Variant>
CHEMBL3231_lig586-1

> <s_i_glide_gridfile>
glide-grid_2etr

> <i_i_glide_lignum>
867

> <i_i_glide_rotatable_bonds>
11

> <r_i_docking_score>
-8.09214226864911

> <r_i_glide_ligand_efficiency>
-0.252879445895285

> <r_i_glide_ligand_efficiency_sa>
-0.802842195943141

> <r_i_glide_ligand_efficiency_ln>
-1.81205123741775

> <r_i_glide_gscore>
-8.09214226864911

> <r_i_glide_lipo>
-2.72217882340114

> <r_i_glide_hbond>
-0.705892742231794

> <r_i_glide_metal>
0

> <r_i_glide_rewards>
-1.3978176213561

> <r_i_glide_evdw>
-48.1869201660156

> <r_i_glide_ecoul>
-9.09739589691162

> <r_i_glide_erotb>
0.585859916564817

> <r_i_glide_esite>
-0.0781576053873642

> <r_i_glide_emodel>
-84.1482361878299

> <r_i_glide_energy>
-57.2843160629272

> <r_i_glide_einternal>
3.86846685409546

> <i_i_glide_confnum>
3

> <i_i_glide_posenum>
10

> <r_i_glide_eff_state_penalty>
0

> <s_user_duplicate_titles>
CHEMBL3231_lig586

> <i_f3d_flags>
0

> <s_m_subgroup_title>
dock_pv

> <s_m_subgroupid>
dock_pv

> <b_m_subgroup_collapsed>
1

$$$$
CHEMBL3231_lig441
                    3D
 Schrodinger Suite 2021-1.
 39 41  0  0  1  0            999 V2000
   51.9208  105.2909   36.3726 C   0  0  0  0  0  0
   51.0090  104.0982   36.1203 C   0  0  0  0  0  0
   49.7130  104.1297   36.6437 C   0  0  0  0  0  0
   48.8411  103.0653   36.4326 C   0  0  0  0  0  0
   49.2575  101.9512   35.7106 C   0  0  0  0  0  0
   50.5496  101.9063   35.1935 C   0  0  0  0  0  0
   51.4383  102.9767   35.3835 C   0  0  0  0  0  0
   52.8249  102.9372   34.7194 C   0  0  0  0  0  0
   52.9077  102.3255   33.3855 N   0  0  0  0  0  0
   52.1551  102.6735   32.3286 C   0  0  0  0  0  0
   51.2437  103.5027   32.3864 O   0  0  0  0  0  0
   52.4894  101.9726   31.2284 N   0  0  0  0  0  0
   51.8260  102.0319   30.0133 C   0  0  0  0  0  0
   51.6906  100.9737   29.2572 N   0  0  0  0  0  0
   51.0058  101.2176   28.1492 C   0  0  0  0  0  0
   50.6012  102.5493   28.0113 C   0  0  0  0  0  0
   51.1842  103.5005   29.3272 S   0  0  0  0  0  0
   50.7092  100.1214   27.1778 C   0  0  0  0  0  0
   50.2714  100.4447   25.8872 C   0  0  0  0  0  0
   49.9586   99.4167   25.0027 C   0  0  0  0  0  0
   50.0431   98.1050   25.3319 N   0  0  0  0  0  0
   50.4879   97.7974   26.5738 C   0  0  0  0  0  0
   50.8365   98.7647   27.5172 C   0  0  0  0  0  0
   52.8865  104.9544   36.7501 H   0  0  0  0  0  0
   52.0967  105.8391   35.4460 H   0  0  0  0  0  0
   51.5091  105.9761   37.1136 H   0  0  0  0  0  0
   49.3720  104.9871   37.2045 H   0  0  0  0  0  0
   47.8369  103.1042   36.8255 H   0  0  0  0  0  0
   48.5789  101.1253   35.5497 H   0  0  0  0  0  0
   50.8553  101.0403   34.6238 H   0  0  0  0  0  0
   53.2483  103.9358   34.6199 H   0  0  0  0  0  0
   53.5004  102.4023   35.3874 H   0  0  0  0  0  0
   53.7328  101.7715   33.2131 H   0  0  0  0  0  0
   53.1915  101.2546   31.3187 H   0  0  0  0  0  0
   50.0426  103.0116   27.2109 H   0  0  0  0  0  0
   50.1675  101.4707   25.5651 H   0  0  0  0  0  0
   49.6148   99.6465   24.0108 H   0  0  0  0  0  0
   50.5630   96.7462   26.8102 H   0  0  0  0  0  0
   51.1748   98.4605   28.4970 H   0  0  0  0  0  0
  1  2  1  0  0  0
  1 24  1  0  0  0
  1 25  1  0  0  0
  1 26  1  0  0  0
  2  3  2  0  0  0
  2  7  1  0  0  0
  3  4  1  0  0  0
  3 27  1  0  0  0
  4  5  2  0  0  0
  4 28  1  0  0  0
  5  6  1  0  0  0
  5 29  1  0  0  0
  6  7  2  0  0  0
  6 30  1  0  0  0
  7  8  1  0  0  0
  8  9  1  0  0  0
  8 31  1  0  0  0
  8 32  1  0  0  0
  9 10  1  0  0  0
  9 33  1  0  0  0
 10 11  2  0  0  0
 10 12  1  0  0  0
 12 13  1  0  0  0
 12 34  1  0  0  0
 13 14  2  0  0  0
 13 17  1  0  0  0
 14 15  1  0  0  0
 15 16  2  0  0  0
 15 18  1  0  0  0
 16 17  1  0  0  0
 16 35  1  0  0  0
 18 19  2  0  0  0
 18 23  1  0  0  0
 19 20  1  0  0  0
 19 36  1  0  0  0
 20 21  2  0  0  0
 20 37  1  0  0  0
 21 22  1  0  0  0
 22 23  2  0  0  0
 22 38  1  0  0  0
 23 39  1  0  0  0
M  END
> <s_m_entry_id>
28024

> <s_m_entry_name>
dock_pv.185

> <s_m_Source_Path>
/home/csk/Desktop/cluster/DUD-E-result/rock1

> <s_m_Source_File>
dock_pv.maegz

> <i_m_Source_File_Index>
185

> <chembl_id>
CHEMBL3218027

> <chembl_pref_name>
None

> <i_lp_mmshare_version>
53161

> <r_lp_tautomer_probability>
0.999000488399163

> <s_lp_Force_Field>
OPLS_2005

> <r_lp_Energy>
5.555846

> <b_lp_Chiralities_Consistent>
1

> <s_lp_Variant>
CHEMBL3231_lig441-1

> <s_i_glide_gridfile>
glide-grid_2etr

> <i_i_glide_lignum>
625

> <i_i_glide_rotatable_bonds>
6

> <r_i_docking_score>
-8.08577174820039

> <r_i_glide_ligand_efficiency>
-0.351555293400017

> <r_i_glide_ligand_efficiency_sa>
-0.999776489447406

> <r_i_glide_ligand_efficiency_ln>
-1.95521292643948

> <r_i_glide_gscore>
-8.08577174820039

> <r_i_glide_lipo>
-3.22560861702512

> <r_i_glide_hbond>
-0.349131730096594

> <r_i_glide_metal>
0

> <r_i_glide_rewards>
-2.56377099590647

> <r_i_glide_evdw>
-39.5437774658203

> <r_i_glide_ecoul>
-6.49374341964722

> <r_i_glide_erotb>
1.06772256529028

> <r_i_glide_esite>
-0.0637325842243986

> <r_i_glide_emodel>
-68.6172875069342

> <r_i_glide_energy>
-46.0375208854675

> <r_i_glide_einternal>
3.37187194824219

> <i_i_glide_confnum>
15

> <i_i_glide_posenum>
273

> <r_i_glide_eff_state_penalty>
0

> <s_user_duplicate_titles>
CHEMBL3231_lig441

> <i_f3d_flags>
0

> <s_m_subgroup_title>
dock_pv

> <s_m_subgroupid>
dock_pv

> <b_m_subgroup_collapsed>
1

$$$$
CHEMBL3231_lig693
                    3D
 Schrodinger Suite 2021-1.
 44 46  0  0  1  0            999 V2000
   51.8539   97.9084   30.4112 C   0  0  0  0  0  0
   51.5603   98.5745   29.1841 O   0  0  0  0  0  0
   51.5424   99.9579   29.1399 C   0  0  0  0  0  0
   52.0542  100.7500   30.1840 C   0  0  0  0  0  0
   51.9530  102.1455   30.1517 C   0  0  0  0  0  0
   51.3156  102.7557   29.0733 C   0  0  0  0  0  0
   50.8442  101.9896   28.0164 C   0  0  0  0  0  0
   50.9729  100.5945   28.0158 C   0  0  0  0  0  0
   50.4878   99.8723   26.7902 C   0  0  0  0  0  0
   49.8901  100.4281   25.6639 C   0  0  0  0  0  0
   49.6438   99.3998   24.8064 N   0  0  0  0  0  0
   50.0430   98.2216   25.2778 N   0  0  0  0  0  0
   50.5418   98.5025   26.4587 C   0  0  0  0  0  0
   52.4875  102.9951   31.2665 C   0  0  0  0  0  0
   51.7972  103.9027   31.7305 O   0  0  0  0  0  0
   53.7348  102.7095   31.6780 N   0  0  0  0  0  0
   54.4543  103.4498   32.7182 C   0  0  0  0  0  0
   54.3614  102.8199   34.1293 C   0  0  1  0  0  0
   55.0780  103.6487   35.1151 C   0  0  0  0  0  0
   55.6407  104.3029   35.8870 N   0  0  0  0  0  0
   52.9326  102.5166   34.5909 C   0  0  0  0  0  0
   52.0972  103.5429   35.0464 C   0  0  0  0  0  0
   50.7958  103.2554   35.4524 C   0  0  0  0  0  0
   50.3297  101.9429   35.4010 C   0  0  0  0  0  0
   51.1525  100.9161   34.9433 C   0  0  0  0  0  0
   52.4538  101.2035   34.5372 C   0  0  0  0  0  0
   51.6429   96.8439   30.3078 H   0  0  0  0  0  0
   52.9060   98.0143   30.6795 H   0  0  0  0  0  0
   51.2345   98.2769   31.2307 H   0  0  0  0  0  0
   52.5217  100.2854   31.0395 H   0  0  0  0  0  0
   51.2151  103.8315   29.0279 H   0  0  0  0  0  0
   50.3924  102.5102   27.1863 H   0  0  0  0  0  0
   49.6252  101.4398   25.3941 H   0  0  0  0  0  0
   49.2230   99.5034   23.8874 H   0  0  0  0  0  0
   50.9535   97.7130   27.0690 H   0  0  0  0  0  0
   54.2624  102.0150   31.1673 H   0  0  0  0  0  0
   54.1160  104.4900   32.7524 H   0  0  0  0  0  0
   55.5019  103.5051   32.4150 H   0  0  0  0  0  0
   54.9113  101.8776   34.1127 H   0  0  0  0  0  0
   52.4532  104.5629   35.0765 H   0  0  0  0  0  0
   50.1514  104.0473   35.8047 H   0  0  0  0  0  0
   49.3215  101.7192   35.7188 H   0  0  0  0  0  0
   50.7838   99.9017   34.9045 H   0  0  0  0  0  0
   53.0893  100.4065   34.1789 H   0  0  0  0  0  0
  1  2  1  0  0  0
  1 27  1  0  0  0
  1 28  1  0  0  0
  1 29  1  0  0  0
  2  3  1  0  0  0
  3  4  2  0  0  0
  3  8  1  0  0  0
  4  5  1  0  0  0
  4 30  1  0  0  0
  5  6  2  0  0  0
  5 14  1  0  0  0
  6  7  1  0  0  0
  6 31  1  0  0  0
  7  8  2  0  0  0
  7 32  1  0  0  0
  8  9  1  0  0  0
  9 10  2  0  0  0
  9 13  1  0  0  0
 10 11  1  0  0  0
 10 33  1  0  0  0
 11 12  1  0  0  0
 11 34  1  0  0  0
 12 13  2  0  0  0
 13 35  1  0  0  0
 14 15  2  0  0  0
 14 16  1  0  0  0
 16 17  1  0  0  0
 16 36  1  0  0  0
 17 18  1  0  0  0
 17 37  1  0  0  0
 17 38  1  0  0  0
 18 19  1  0  0  0
 18 21  1  0  0  0
 18 39  1  0  0  0
 19 20  3  0  0  0
 21 22  2  0  0  0
 21 26  1  0  0  0
 22 23  1  0  0  0
 22 40  1  0  0  0
 23 24  2  0  0  0
 23 41  1  0  0  0
 24 25  1  0  0  0
 24 42  1  0  0  0
 25 26  2  0  0  0
 25 43  1  0  0  0
 26 44  1  0  0  0
M  END
> <s_m_entry_id>
28025

> <s_m_entry_name>
dock_pv.186

> <s_m_Source_Path>
/home/csk/Desktop/cluster/DUD-E-result/rock1

> <s_m_Source_File>
dock_pv.maegz

> <i_m_Source_File_Index>
186

> <chembl_id>
CHEMBL3903819

> <chembl_pref_name>
None

> <i_lp_mmshare_version>
53161

> <r_lp_tautomer_probability>
0.5

> <s_lp_Force_Field>
OPLS_2005

> <r_lp_Energy>
22.891739

> <b_lp_Chiralities_Consistent>
1

> <s_lp_Variant>
CHEMBL3231_lig693-2

> <s_i_glide_gridfile>
glide-grid_2etr

> <i_i_glide_lignum>
988

> <i_i_glide_rotatable_bonds>
7

> <r_i_docking_score>
-8.08281873774717

> <r_i_glide_ligand_efficiency>
-0.310877643759506

> <r_i_glide_ligand_efficiency_sa>
-0.920973796393078

> <r_i_glide_ligand_efficiency_ln>
-1.89822345866842

> <r_i_glide_gscore>
-8.08281873774717

> <r_i_glide_lipo>
-2.45119346698333

> <r_i_glide_hbond>
-0.664358907040347

> <r_i_glide_metal>
0

> <r_i_glide_rewards>
-1.95424987108638

> <r_i_glide_evdw>
-40.7090225219727

> <r_i_glide_ecoul>
-9.59724617004395

> <r_i_glide_erotb>
0.554588655613883

> <r_i_glide_esite>
-0.0925670966457694

> <r_i_glide_emodel>
-72.4495205941748

> <r_i_glide_energy>
-50.3062686920166

> <r_i_glide_einternal>
7.22951507568359

> <i_i_glide_confnum>
19

> <i_i_glide_posenum>
49

> <r_i_glide_eff_state_penalty>
0

> <s_user_duplicate_titles>
CHEMBL3231_lig693

> <i_f3d_flags>
0

> <s_m_subgroup_title>
dock_pv

> <s_m_subgroupid>
dock_pv

> <b_m_subgroup_collapsed>
1

$$$$
CHEMBL3231_lig701
                    3D
 Schrodinger Suite 2021-1.
 47 49  0  0  1  0            999 V2000
   51.4592  105.8985   35.3024 C   0  0  0  0  0  0
   52.0176  104.5906   35.3025 O   0  0  0  0  0  0
   51.1833  103.4886   35.2772 C   0  0  0  0  0  0
   49.7905  103.5620   35.4626 C   0  0  0  0  0  0
   49.0063  102.4090   35.4333 C   0  0  0  0  0  0
   49.6001  101.1690   35.2133 C   0  0  0  0  0  0
   50.9781  101.0794   35.0282 C   0  0  0  0  0  0
   51.7757  102.2303   35.0632 C   0  0  0  0  0  0
   53.2891  102.0973   34.8734 C   0  0  0  0  0  0
   53.8482  102.6911   33.5592 C   0  0  0  0  0  0
   53.2593  102.1049   32.3501 N   0  0  0  0  0  0
   52.2422  102.6217   31.6392 C   0  0  0  0  0  0
   51.6436  103.6570   31.9400 O   0  0  0  0  0  0
   51.8565  101.8637   30.3965 C   0  0  0  0  0  0
   51.4784  102.5693   29.2522 C   0  0  0  0  0  0
   51.0711  101.8884   28.1120 C   0  0  0  0  0  0
   51.0131  100.4883   28.0823 C   0  0  0  0  0  0
   51.3782   99.7594   29.2340 C   0  0  0  0  0  0
   51.2434   98.3816   29.2147 O   0  0  0  0  0  0
   51.4639   97.6266   30.4059 C   0  0  0  0  0  0
   51.8209  100.4625   30.3731 C   0  0  0  0  0  0
   50.5273   99.8562   26.8079 C   0  0  0  0  0  0
   49.9161  100.4829   25.7250 C   0  0  0  0  0  0
   49.6509   99.5097   24.8110 N   0  0  0  0  0  0
   50.0413   98.3023   25.2114 N   0  0  0  0  0  0
   50.5750   98.5096   26.3938 C   0  0  0  0  0  0
   52.2634  106.6303   35.2296 H   0  0  0  0  0  0
   50.8006  106.0521   34.4461 H   0  0  0  0  0  0
   50.9090  106.1018   36.2228 H   0  0  0  0  0  0
   49.3025  104.5075   35.6419 H   0  0  0  0  0  0
   47.9395  102.4752   35.5876 H   0  0  0  0  0  0
   48.9919  100.2779   35.1906 H   0  0  0  0  0  0
   51.4263  100.1107   34.8588 H   0  0  0  0  0  0
   53.7789  102.5804   35.7203 H   0  0  0  0  0  0
   53.5783  101.0465   34.9396 H   0  0  0  0  0  0
   53.6497  103.7660   33.5386 H   0  0  0  0  0  0
   54.9337  102.5723   33.5185 H   0  0  0  0  0  0
   53.7415  101.3074   31.9590 H   0  0  0  0  0  0
   51.5035  103.6500   29.2370 H   0  0  0  0  0  0
   50.7946  102.4713   27.2467 H   0  0  0  0  0  0
   51.2421   96.5780   30.2090 H   0  0  0  0  0  0
   52.5009   97.6870   30.7404 H   0  0  0  0  0  0
   50.8053   97.9512   31.2141 H   0  0  0  0  0  0
   52.0982   99.9237   31.2668 H   0  0  0  0  0  0
   49.6433  101.5105   25.5307 H   0  0  0  0  0  0
   49.2145   99.6639   23.9049 H   0  0  0  0  0  0
   50.9981   97.6873   26.9500 H   0  0  0  0  0  0
  1  2  1  0  0  0
  1 27  1  0  0  0
  1 28  1  0  0  0
  1 29  1  0  0  0
  2  3  1  0  0  0
  3  4  2  0  0  0
  3  8  1  0  0  0
  4  5  1  0  0  0
  4 30  1  0  0  0
  5  6  2  0  0  0
  5 31  1  0  0  0
  6  7  1  0  0  0
  6 32  1  0  0  0
  7  8  2  0  0  0
  7 33  1  0  0  0
  8  9  1  0  0  0
  9 10  1  0  0  0
  9 34  1  0  0  0
  9 35  1  0  0  0
 10 11  1  0  0  0
 10 36  1  0  0  0
 10 37  1  0  0  0
 11 12  1  0  0  0
 11 38  1  0  0  0
 12 13  2  0  0  0
 12 14  1  0  0  0
 14 15  2  0  0  0
 14 21  1  0  0  0
 15 16  1  0  0  0
 15 39  1  0  0  0
 16 17  2  0  0  0
 16 40  1  0  0  0
 17 18  1  0  0  0
 17 22  1  0  0  0
 18 19  1  0  0  0
 18 21  2  0  0  0
 19 20  1  0  0  0
 20 41  1  0  0  0
 20 42  1  0  0  0
 20 43  1  0  0  0
 21 44  1  0  0  0
 22 23  2  0  0  0
 22 26  1  0  0  0
 23 24  1  0  0  0
 23 45  1  0  0  0
 24 25  1  0  0  0
 24 46  1  0  0  0
 25 26  2  0  0  0
 26 47  1  0  0  0
M  END
> <s_m_entry_id>
28026

> <s_m_entry_name>
dock_pv.187

> <s_m_Source_Path>
/home/csk/Desktop/cluster/DUD-E-result/rock1

> <s_m_Source_File>
dock_pv.maegz

> <i_m_Source_File_Index>
187

> <chembl_id>
CHEMBL3919941

> <chembl_pref_name>
None

> <i_lp_mmshare_version>
53161

> <r_lp_tautomer_probability>
0.5

> <s_lp_Force_Field>
OPLS_2005

> <r_lp_Energy>
25.122468

> <b_lp_Chiralities_Consistent>
1

> <s_lp_Variant>
CHEMBL3231_lig701-1

> <s_i_glide_gridfile>
glide-grid_2etr

> <i_i_glide_lignum>
998

> <i_i_glide_rotatable_bonds>
8

> <r_i_docking_score>
-8.0761833533872

> <r_i_glide_ligand_efficiency>
-0.310622436668739

> <r_i_glide_ligand_efficiency_sa>
-0.920217746390869

> <r_i_glide_ligand_efficiency_ln>
-1.89666516042396

> <r_i_glide_gscore>
-8.0761833533872

> <r_i_glide_lipo>
-2.85457573013638

> <r_i_glide_hbond>
-0.66240962382944

> <r_i_glide_metal>
0

> <r_i_glide_rewards>
-1.98143713176359

> <r_i_glide_evdw>
-42.5946769714355

> <r_i_glide_ecoul>
-6.95190620422363

> <r_i_glide_erotb>
0.648715347840463

> <r_i_glide_esite>
-0.0539564362929267

> <r_i_glide_emodel>
-73.8869722328934

> <r_i_glide_energy>
-49.5465831756592

> <r_i_glide_einternal>
2.43367004394531

> <i_i_glide_confnum>
39

> <i_i_glide_posenum>
350

> <r_i_glide_eff_state_penalty>
0

> <s_user_duplicate_titles>
CHEMBL3231_lig701

> <i_f3d_flags>
0

> <s_m_subgroup_title>
dock_pv

> <s_m_subgroupid>
dock_pv

> <b_m_subgroup_collapsed>
1

$$$$
CHEMBL3231_lig682
                    3D
 Schrodinger Suite 2021-1.
 46 48  0  0  1  0            999 V2000
   50.2562  107.2245   35.3410 C   0  0  0  0  0  0
   49.2891  106.2307   35.6719 O   0  0  0  0  0  0
   49.5974  104.8987   35.4746 C   0  0  0  0  0  0
   48.6117  103.9724   35.8190 C   0  0  0  0  0  0
   48.8230  102.6069   35.6390 C   0  0  0  0  0  0
   50.0292  102.1521   35.1101 C   0  0  0  0  0  0
   51.0361  103.0589   34.7574 C   0  0  0  0  0  0
   50.8130  104.4295   34.9469 C   0  0  0  0  0  0
   52.3736  102.5615   34.1872 C   0  0  1  0  0  0
   53.0607  101.5468   35.1204 C   0  0  0  0  0  0
   52.2536  102.0063   32.8347 N   0  0  0  0  0  0
   51.8750  102.6940   31.7415 C   0  0  0  0  0  0
   51.6431  103.9029   31.7766 O   0  0  0  0  0  0
   51.6612  101.9120   30.4627 C   0  0  0  0  0  0
   51.1284  102.5596   29.3431 C   0  0  0  0  0  0
   50.8433  101.8547   28.1804 C   0  0  0  0  0  0
   51.0812  100.4779   28.0838 C   0  0  0  0  0  0
   51.6430   99.8168   29.1996 C   0  0  0  0  0  0
   51.9531   98.3244   29.2021 C   0  0  0  0  0  0
   51.9380  100.5386   30.3627 C   0  0  0  0  0  0
   50.6804   99.8313   26.7828 C   0  0  0  0  0  0
   50.4062   98.4836   26.4665 C   0  0  0  0  0  0
   50.0429   98.2888   25.2202 N   0  0  0  0  0  0
   50.0431   99.5076   24.6880 N   0  0  0  0  0  0
   50.4480  100.4687   25.5679 C   0  0  0  0  0  0
   49.8506  108.2103   35.5676 H   0  0  0  0  0  0
   51.1699  107.1021   35.9243 H   0  0  0  0  0  0
   50.5052  107.2058   34.2797 H   0  0  0  0  0  0
   47.6715  104.3161   36.2251 H   0  0  0  0  0  0
   48.0492  101.9035   35.9091 H   0  0  0  0  0  0
   50.1765  101.0914   34.9708 H   0  0  0  0  0  0
   51.5940  105.1224   34.6685 H   0  0  0  0  0  0
   53.0572  103.4129   34.1220 H   0  0  0  0  0  0
   53.1906  101.9589   36.1228 H   0  0  0  0  0  0
   52.4879  100.6241   35.2171 H   0  0  0  0  0  0
   54.0514  101.2775   34.7513 H   0  0  0  0  0  0
   52.6347  101.0833   32.6998 H   0  0  0  0  0  0
   50.9128  103.6177   29.3645 H   0  0  0  0  0  0
   50.4120  102.4022   27.3547 H   0  0  0  0  0  0
   52.4395   98.0541   28.2663 H   0  0  0  0  0  0
   52.6377   98.0567   30.0077 H   0  0  0  0  0  0
   51.0422   97.7375   29.3152 H   0  0  0  0  0  0
   52.3597  100.0046   31.2018 H   0  0  0  0  0  0
   50.4496   97.6430   27.1408 H   0  0  0  0  0  0
   49.7586   99.6788   23.7293 H   0  0  0  0  0  0
   50.5046  101.5031   25.2633 H   0  0  0  0  0  0
  1  2  1  0  0  0
  1 26  1  0  0  0
  1 27  1  0  0  0
  1 28  1  0  0  0
  2  3  1  0  0  0
  3  4  2  0  0  0
  3  8  1  0  0  0
  4  5  1  0  0  0
  4 29  1  0  0  0
  5  6  2  0  0  0
  5 30  1  0  0  0
  6  7  1  0  0  0
  6 31  1  0  0  0
  7  8  2  0  0  0
  7  9  1  0  0  0
  8 32  1  0  0  0
  9 10  1  0  0  0
  9 11  1  0  0  0
  9 33  1  0  0  0
 10 34  1  0  0  0
 10 35  1  0  0  0
 10 36  1  0  0  0
 11 12  1  0  0  0
 11 37  1  0  0  0
 12 13  2  0  0  0
 12 14  1  0  0  0
 14 15  2  0  0  0
 14 20  1  0  0  0
 15 16  1  0  0  0
 15 38  1  0  0  0
 16 17  2  0  0  0
 16 39  1  0  0  0
 17 18  1  0  0  0
 17 21  1  0  0  0
 18 19  1  0  0  0
 18 20  2  0  0  0
 19 40  1  0  0  0
 19 41  1  0  0  0
 19 42  1  0  0  0
 20 43  1  0  0  0
 21 22  1  0  0  0
 21 25  2  0  0  0
 22 23  2  0  0  0
 22 44  1  0  0  0
 23 24  1  0  0  0
 24 25  1  0  0  0
 24 45  1  0  0  0
 25 46  1  0  0  0
M  END
> <s_m_entry_id>
28027

> <s_m_entry_name>
dock_pv.188

> <s_m_Source_Path>
/home/csk/Desktop/cluster/DUD-E-result/rock1

> <s_m_Source_File>
dock_pv.maegz

> <i_m_Source_File_Index>
188

> <chembl_id>
CHEMBL4111655

> <chembl_pref_name>
None

> <i_lp_mmshare_version>
53161

> <r_lp_tautomer_probability>
0.5

> <s_lp_Force_Field>
OPLS_2005

> <r_lp_Energy>
22.361747

> <b_lp_Chiralities_Consistent>
1

> <s_lp_Variant>
CHEMBL3231_lig682-1

> <s_i_glide_gridfile>
glide-grid_2etr

> <i_i_glide_lignum>
975

> <i_i_glide_rotatable_bonds>
6

> <r_i_docking_score>
-8.07488587406478

> <r_i_glide_ligand_efficiency>
-0.322995434962591

> <r_i_glide_ligand_efficiency_sa>
-0.944444380179047

> <r_i_glide_ligand_efficiency_ln>
-1.91398993695602

> <r_i_glide_gscore>
-8.07488587406478

> <r_i_glide_lipo>
-2.84404592175666

> <r_i_glide_hbond>
-0.673395419260279

> <r_i_glide_metal>
0

> <r_i_glide_rewards>
-2.01224261265481

> <r_i_glide_evdw>
-40.5267219543457

> <r_i_glide_ecoul>
-7.00342512130737

> <r_i_glide_erotb>
0.587196517146592

> <r_i_glide_esite>
-0.0555485716262228

> <r_i_glide_emodel>
-70.6242677531487

> <r_i_glide_energy>
-47.5301470756531

> <r_i_glide_einternal>
3.53847098350525

> <i_i_glide_confnum>
50

> <i_i_glide_posenum>
206

> <r_i_glide_eff_state_penalty>
0

> <s_user_duplicate_titles>
CHEMBL3231_lig682

> <i_f3d_flags>
0

> <s_m_subgroup_title>
dock_pv

> <s_m_subgroupid>
dock_pv

> <b_m_subgroup_collapsed>
1

$$$$
CHEMBL3231_lig733
                    3D
 Schrodinger Suite 2021-1.
 43 45  0  0  1  0            999 V2000
   54.8381  102.1545   34.1102 C   0  0  0  0  0  0
   53.7353  103.0265   33.4861 C   0  0  1  0  0  0
   53.2489  102.3978   32.2495 N   0  0  0  0  0  0
   52.2627  102.8770   31.4674 C   0  0  0  0  0  0
   51.6431  103.9031   31.7272 O   0  0  0  0  0  0
   51.8967  102.0856   30.2404 C   0  0  0  0  0  0
   51.3175  102.7308   29.1470 C   0  0  0  0  0  0
   50.8946  102.0030   28.0428 C   0  0  0  0  0  0
   51.0296  100.6095   27.9962 C   0  0  0  0  0  0
   51.5919   99.9426   29.1039 C   0  0  0  0  0  0
   51.6419   98.5601   29.0998 O   0  0  0  0  0  0
   51.7519   97.8525   30.3369 C   0  0  0  0  0  0
   52.9801   97.9112   30.8494 F   0  0  0  0  0  0
   50.8428   98.2438   31.2215 F   0  0  0  0  0  0
   52.0437  100.6951   30.2013 C   0  0  0  0  0  0
   50.5345   99.9191   26.7540 C   0  0  0  0  0  0
   49.9186  100.5008   25.6505 C   0  0  0  0  0  0
   49.6433   99.4923   24.7773 N   0  0  0  0  0  0
   50.0430   98.3023   25.2148 N   0  0  0  0  0  0
   50.5741   98.5551   26.3893 C   0  0  0  0  0  0
   52.6312  103.3510   34.5074 C   0  0  0  0  0  0
   51.8829  102.3228   35.0957 C   0  0  0  0  0  0
   50.8799  102.6257   36.0147 C   0  0  0  0  0  0
   50.6237  103.9543   36.3459 C   0  0  0  0  0  0
   49.6495  104.2483   37.2377 F   0  0  0  0  0  0
   51.3612  104.9836   35.7625 C   0  0  0  0  0  0
   52.3636  104.6834   34.8440 C   0  0  0  0  0  0
   55.2807  102.6366   34.9831 H   0  0  0  0  0  0
   54.4656  101.1781   34.4229 H   0  0  0  0  0  0
   55.6414  101.9807   33.3945 H   0  0  0  0  0  0
   54.2131  103.9664   33.1860 H   0  0  0  0  0  0
   53.8489  101.6891   31.8534 H   0  0  0  0  0  0
   51.1896  103.8047   29.1436 H   0  0  0  0  0  0
   50.4542  102.5484   27.2207 H   0  0  0  0  0  0
   51.5539   96.7975   30.1584 H   0  0  0  0  0  0
   52.4718  100.1995   31.0565 H   0  0  0  0  0  0
   49.6431  101.5174   25.4116 H   0  0  0  0  0  0
   49.2021   99.6171   23.8706 H   0  0  0  0  0  0
   50.9929   97.7490   26.9735 H   0  0  0  0  0  0
   52.0745  101.2914   34.8358 H   0  0  0  0  0  0
   50.3008  101.8343   36.4684 H   0  0  0  0  0  0
   51.1543  106.0099   36.0195 H   0  0  0  0  0  0
   52.9209  105.4892   34.3851 H   0  0  0  0  0  0
  1  2  1  0  0  0
  1 28  1  0  0  0
  1 29  1  0  0  0
  1 30  1  0  0  0
  2  3  1  0  0  0
  2 21  1  0  0  0
  2 31  1  0  0  0
  3  4  1  0  0  0
  3 32  1  0  0  0
  4  5  2  0  0  0
  4  6  1  0  0  0
  6  7  2  0  0  0
  6 15  1  0  0  0
  7  8  1  0  0  0
  7 33  1  0  0  0
  8  9  2  0  0  0
  8 34  1  0  0  0
  9 10  1  0  0  0
  9 16  1  0  0  0
 10 11  1  0  0  0
 10 15  2  0  0  0
 11 12  1  0  0  0
 12 13  1  0  0  0
 12 14  1  0  0  0
 12 35  1  0  0  0
 15 36  1  0  0  0
 16 17  2  0  0  0
 16 20  1  0  0  0
 17 18  1  0  0  0
 17 37  1  0  0  0
 18 19  1  0  0  0
 18 38  1  0  0  0
 19 20  2  0  0  0
 20 39  1  0  0  0
 21 22  2  0  0  0
 21 27  1  0  0  0
 22 23  1  0  0  0
 22 40  1  0  0  0
 23 24  2  0  0  0
 23 41  1  0  0  0
 24 25  1  0  0  0
 24 26  1  0  0  0
 26 27  2  0  0  0
 26 42  1  0  0  0
 27 43  1  0  0  0
M  END
> <s_m_entry_id>
28028

> <s_m_entry_name>
dock_pv.189

> <s_m_Source_Path>
/home/csk/Desktop/cluster/DUD-E-result/rock1

> <s_m_Source_File>
dock_pv.maegz

> <i_m_Source_File_Index>
189

> <chembl_id>
CHEMBL4114240

> <chembl_pref_name>
None

> <i_lp_mmshare_version>
53161

> <r_lp_tautomer_probability>
0.5

> <s_lp_Force_Field>
OPLS_2005

> <r_lp_Energy>
16.583599

> <b_lp_Chiralities_Consistent>
1

> <s_lp_Variant>
CHEMBL3231_lig733-1

> <s_i_glide_gridfile>
glide-grid_2etr

> <i_i_glide_lignum>
1042

> <i_i_glide_rotatable_bonds>
7

> <r_i_docking_score>
-8.07043131127761

> <r_i_glide_ligand_efficiency>
-0.298904863380652

> <r_i_glide_ligand_efficiency_sa>
-0.896714589156815

> <r_i_glide_ligand_efficiency_ln>
-1.87866335780672

> <r_i_glide_gscore>
-8.07043131127761

> <r_i_glide_lipo>
-2.21076678297079

> <r_i_glide_hbond>
-0.674312639160345

> <r_i_glide_metal>
0

> <r_i_glide_rewards>
-2.24172802897026

> <r_i_glide_evdw>
-39.6106071472168

> <r_i_glide_ecoul>
-9.19264030456543

> <r_i_glide_erotb>
0.4806132112202

> <r_i_glide_esite>
-0.064810668350763

> <r_i_glide_emodel>
-71.8423722822831

> <r_i_glide_energy>
-48.8032474517822

> <r_i_glide_einternal>
2.82189536094666

> <i_i_glide_confnum>
38

> <i_i_glide_posenum>
280

> <r_i_glide_eff_state_penalty>
0

> <s_user_duplicate_titles>
CHEMBL3231_lig733

> <i_f3d_flags>
0

> <s_m_subgroup_title>
dock_pv

> <s_m_subgroupid>
dock_pv

> <b_m_subgroup_collapsed>
1

$$$$
CHEMBL3231_lig1441
                    3D
 Schrodinger Suite 2021-1.
 45 47  0  0  1  0            999 V2000
   47.4213  103.9027   35.6113 Cl  0  0  0  0  0  0
   51.8347  103.9027   32.4494 O   0  0  0  0  0  0
   55.3704  105.0702   33.6111 O   0  0  0  0  0  0
   53.7012  102.6443   32.7588 N   0  0  0  0  0  0
   50.0432   98.4496   25.2110 N   0  0  0  0  0  0
   52.3082  102.2589   30.7939 C   0  0  0  0  0  0
   51.5317  100.7853   28.5152 C   0  0  0  0  0  0
   52.6062  103.0210   32.0680 C   0  0  0  0  0  0
   51.0534   99.9773   27.3559 C   0  0  0  0  0  0
   52.8276  100.9771   30.5611 C   0  0  0  0  0  0
   51.4357  102.8093   29.8463 C   0  0  0  0  0  0
   52.4430  100.2543   29.4347 C   0  0  0  0  0  0
   51.0476  102.0795   28.7272 C   0  0  0  0  0  0
   54.0838  103.0425   34.1264 C   0  0  2  0  0  0
   51.7661  102.7420   35.3476 C   0  0  0  0  0  0
   53.2379  102.3509   35.2393 C   0  0  0  0  0  0
   50.8460   98.5952   27.4833 C   0  0  0  0  0  0
   50.7646  100.5697   26.1171 C   0  0  0  0  0  0
   51.4062  104.0020   35.8332 C   0  0  0  0  0  0
   50.7721  101.8250   34.9892 C   0  0  0  0  0  0
   54.2735  104.5676   34.3485 C   0  0  0  0  0  0
   49.0807  103.4481   35.5440 C   0  0  0  0  0  0
   50.3486   97.8741   26.3983 C   0  0  0  0  0  0
   50.2604   99.7818   25.0811 C   0  0  0  0  0  0
   50.0646  104.3593   35.9222 C   0  0  0  0  0  0
   49.4286  102.1781   35.0932 C   0  0  0  0  0  0
   55.1360  105.1513   32.6749 H   0  0  0  0  0  0
   54.3384  102.0171   32.2906 H   0  0  0  0  0  0
   53.5058  100.5067   31.2580 H   0  0  0  0  0  0
   51.0279  103.7993   29.9822 H   0  0  0  0  0  0
   52.8499   99.2642   29.2921 H   0  0  0  0  0  0
   50.3434  102.5203   28.0372 H   0  0  0  0  0  0
   55.0802  102.6146   34.2604 H   0  0  0  0  0  0
   53.6935  102.5482   36.2107 H   0  0  0  0  0  0
   53.3084  101.2686   35.1158 H   0  0  0  0  0  0
   51.0467   98.0827   28.4134 H   0  0  0  0  0  0
   50.9181  101.6257   25.9581 H   0  0  0  0  0  0
   52.1627  104.7131   36.1308 H   0  0  0  0  0  0
   51.0392  100.8432   34.6266 H   0  0  0  0  0  0
   53.3801  105.1392   34.0927 H   0  0  0  0  0  0
   54.4965  104.7666   35.3982 H   0  0  0  0  0  0
   50.1829   96.8096   26.4734 H   0  0  0  0  0  0
   50.0207  100.2155   24.1185 H   0  0  0  0  0  0
   49.7916  105.3439   36.2752 H   0  0  0  0  0  0
   48.6605  101.4736   34.8112 H   0  0  0  0  0  0
  1 22  1  0  0  0
  2  8  2  0  0  0
  3 21  1  0  0  0
  3 27  1  0  0  0
  4  8  1  0  0  0
  4 14  1  0  0  0
  4 28  1  0  0  0
  5 23  2  0  0  0
  5 24  1  0  0  0
  6  8  1  0  0  0
  6 10  2  0  0  0
  6 11  1  0  0  0
  7  9  1  0  0  0
  7 12  2  0  0  0
  7 13  1  0  0  0
  9 17  2  0  0  0
  9 18  1  0  0  0
 10 12  1  0  0  0
 10 29  1  0  0  0
 11 13  2  0  0  0
 11 30  1  0  0  0
 12 31  1  0  0  0
 13 32  1  0  0  0
 14 16  1  0  0  0
 14 21  1  0  0  0
 14 33  1  0  0  0
 15 16  1  0  0  0
 15 19  2  0  0  0
 15 20  1  0  0  0
 16 34  1  0  0  0
 16 35  1  0  0  0
 17 23  1  0  0  0
 17 36  1  0  0  0
 18 24  2  0  0  0
 18 37  1  0  0  0
 19 25  1  0  0  0
 19 38  1  0  0  0
 20 26  2  0  0  0
 20 39  1  0  0  0
 21 40  1  0  0  0
 21 41  1  0  0  0
 22 25  2  0  0  0
 22 26  1  0  0  0
 23 42  1  0  0  0
 24 43  1  0  0  0
 25 44  1  0  0  0
 26 45  1  0  0  0
M  END
> <s_m_entry_id>
28029

> <s_m_entry_name>
dock_pv.190

> <s_m_Source_Path>
/home/csk/Desktop/cluster/DUD-E-result/rock1

> <s_m_Source_File>
dock_pv.maegz

> <i_m_Source_File_Index>
190

> <chembl_id>
CHEMBL1996931

> <chembl_pref_name>
None

> <i_lp_mmshare_version>
53161

> <r_lp_tautomer_probability>
1

> <s_lp_Force_Field>
OPLS_2005

> <r_lp_Energy>
17.153471

> <b_lp_Chiralities_Consistent>
1

> <s_lp_Variant>
CHEMBL3231_lig1441-1

> <s_i_glide_gridfile>
glide-grid_2etr

> <i_i_glide_lignum>
2024

> <i_i_glide_rotatable_bonds>
8

> <r_i_docking_score>
-8.06411856096342

> <r_i_glide_ligand_efficiency>
-0.310158406190901

> <r_i_glide_ligand_efficiency_sa>
-0.918843057926146

> <r_i_glide_ligand_efficiency_ln>
-1.89383178351104

> <r_i_glide_gscore>
-8.06411856096342

> <r_i_glide_lipo>
-3.07082721195906

> <r_i_glide_hbond>
-0.441754882006191

> <r_i_glide_metal>
0

> <r_i_glide_rewards>
-2.04883037787073

> <r_i_glide_evdw>
-44.3353309631348

> <r_i_glide_ecoul>
-7.26673555374146

> <r_i_glide_erotb>
0.858364241424846

> <r_i_glide_esite>
-0.0542934493343247

> <r_i_glide_emodel>
-75.1912384276964

> <r_i_glide_energy>
-51.6020665168762

> <r_i_glide_einternal>
6.80485773086548

> <i_i_glide_confnum>
54

> <i_i_glide_posenum>
138

> <r_i_glide_eff_state_penalty>
0

> <s_user_duplicate_titles>
CHEMBL3231_lig1441

> <i_f3d_flags>
0

> <s_m_subgroup_title>
dock_pv

> <s_m_subgroupid>
dock_pv

> <b_m_subgroup_collapsed>
1

$$$$
CHEMBL3231_lig244
                    3D
 Schrodinger Suite 2021-1.
 35 37  0  0  1  0            999 V2000
   49.9370   98.5529   25.2112 N   0  0  0  0  0  0
   50.4705   97.6135   26.0198 C   0  0  0  0  0  0
   51.0187   97.9029   27.2649 C   0  0  0  0  0  0
   49.9036   99.8271   25.6597 C   0  0  0  0  0  0
   50.4571  100.2510   26.9031 C   0  0  0  0  0  0
   51.0487   99.2407   27.7158 C   0  0  0  0  0  0
   51.6432   99.5904   28.9496 C   0  0  0  0  0  0
   51.6443  100.9170   29.3954 C   0  0  0  0  0  0
   51.0422  101.8944   28.6055 C   0  0  0  0  0  0
   50.4576  101.5882   27.3789 C   0  0  0  0  0  0
   49.2431  100.7030   24.8109 N   0  0  0  0  0  0
   52.2079  101.3633   30.5763 O   0  0  0  0  0  0
   52.9302  100.5122   31.4774 C   0  0  2  0  0  0
   54.2542   99.9373   30.9055 C   0  0  0  0  0  0
   55.0420   99.2761   31.9500 N   0  0  1  0  0  0
   54.3034   98.1963   32.6056 C   0  0  0  0  0  0
   52.9866   98.7105   33.2310 C   0  0  0  0  0  0
   52.0855   99.4521   32.2217 C   0  0  0  0  0  0
   50.4640   96.5973   25.6523 H   0  0  0  0  0  0
   51.4250   97.1171   27.8818 H   0  0  0  0  0  0
   52.0976   98.7984   29.5180 H   0  0  0  0  0  0
   51.0474  102.9191   28.9460 H   0  0  0  0  0  0
   50.0211  102.3758   26.7830 H   0  0  0  0  0  0
   49.2611  101.6924   25.0020 H   0  0  0  0  0  0
   48.9519  100.3562   23.8983 H   0  0  0  0  0  0
   53.2351  101.2382   32.2338 H   0  0  0  0  0  0
   54.0932   99.2496   30.0775 H   0  0  0  0  0  0
   54.8431  100.7616   30.5072 H   0  0  0  0  0  0
   55.9318   98.9312   31.5889 H   0  0  0  0  0  0
   54.9407   97.7595   33.3758 H   0  0  0  0  0  0
   54.0982   97.4101   31.8766 H   0  0  0  0  0  0
   53.2192   99.3444   34.0885 H   0  0  0  0  0  0
   52.4431   97.8622   33.6461 H   0  0  0  0  0  0
   51.2771   99.9328   32.7736 H   0  0  0  0  0  0
   51.6533   98.7099   31.5554 H   0  0  0  0  0  0
  1  4  1  0  0  0
  1  2  2  0  0  0
  2  3  1  0  0  0
  2 19  1  0  0  0
  3  6  2  0  0  0
  3 20  1  0  0  0
  4 11  1  0  0  0
  4  5  2  0  0  0
  5 10  1  0  0  0
  5  6  1  0  0  0
  6  7  1  0  0  0
  7  8  2  0  0  0
  7 21  1  0  0  0
  8  9  1  0  0  0
  8 12  1  0  0  0
  9 10  2  0  0  0
  9 22  1  0  0  0
 10 23  1  0  0  0
 11 24  1  0  0  0
 11 25  1  0  0  0
 12 13  1  0  0  0
 13 14  1  0  0  0
 13 18  1  0  0  0
 13 26  1  0  0  0
 14 15  1  0  0  0
 14 27  1  0  0  0
 14 28  1  0  0  0
 15 16  1  0  0  0
 15 29  1  0  0  0
 16 17  1  0  0  0
 16 30  1  0  0  0
 16 31  1  0  0  0
 17 18  1  0  0  0
 17 32  1  0  0  0
 17 33  1  0  0  0
 18 34  1  0  0  0
 18 35  1  0  0  0
M  END
> <s_m_entry_id>
28030

> <s_m_entry_name>
dock_pv.191

> <s_m_Source_Path>
/home/csk/Desktop/cluster/DUD-E-result/rock1

> <s_m_Source_File>
dock_pv.maegz

> <i_m_Source_File_Index>
191

> <chembl_id>
CHEMBL1643368

> <chembl_pref_name>
None

> <i_lp_mmshare_version>
53161

> <r_lp_tautomer_probability>
1

> <s_lp_Force_Field>
OPLS_2005

> <r_lp_Energy>
23.882158

> <b_lp_Chiralities_Consistent>
1

> <s_lp_Variant>
CHEMBL3231_lig244-1

> <s_i_glide_gridfile>
glide-grid_2etr

> <i_i_glide_lignum>
388

> <i_i_glide_rotatable_bonds>
2

> <r_i_docking_score>
-8.05825598395616

> <r_i_glide_ligand_efficiency>
-0.447680887997564

> <r_i_glide_ligand_efficiency_sa>
-1.17325583344103

> <r_i_glide_ligand_efficiency_ln>
-2.07133314897235

> <r_i_glide_gscore>
-8.05825598395616

> <r_i_glide_lipo>
-2.34580987213745

> <r_i_glide_hbond>
-0.491628510376839

> <r_i_glide_metal>
0

> <r_i_glide_rewards>
-3.10350957375717

> <r_i_glide_evdw>
-31.4536037445068

> <r_i_glide_ecoul>
-6.36847686767578

> <r_i_glide_erotb>
0.410643689692012

> <r_i_glide_esite>
0

> <r_i_glide_emodel>
-55.6525576754339

> <r_i_glide_energy>
-37.8220806121826

> <r_i_glide_einternal>
2.04136323928833

> <i_i_glide_confnum>
1

> <i_i_glide_posenum>
389

> <r_i_glide_eff_state_penalty>
0

> <s_user_duplicate_titles>
CHEMBL3231_lig244

> <i_f3d_flags>
0

> <s_m_subgroup_title>
dock_pv

> <s_m_subgroupid>
dock_pv

> <b_m_subgroup_collapsed>
1

$$$$
CHEMBL3231_lig2095
                    3D
 Schrodinger Suite 2021-1.
 34 36  0  0  1  0            999 V2000
   51.0061  101.1543   28.3085 C   0  0  0  0  0  0
   51.4861  100.7763   29.4870 N   0  0  0  0  0  0
   51.7054  101.7917   30.2960 C   0  0  0  0  0  0
   51.3625  103.3440   29.6248 S   0  0  0  0  0  0
   50.8280  102.5361   28.1932 C   0  0  0  0  0  0
   52.1400  101.7577   31.6109 N   0  0  0  0  0  0
   52.0461  100.7138   32.4597 C   0  0  0  0  0  0
   52.4714  100.9971   33.9057 C   0  0  0  0  0  0
   51.6248   99.5975   32.1583 O   0  0  0  0  0  0
   51.4024  101.7850   34.6630 C   0  0  0  0  0  0
   50.2831  101.1277   35.1860 C   0  0  0  0  0  0
   49.3025  101.8503   35.8599 C   0  0  0  0  0  0
   49.4369  103.2277   36.0151 C   0  0  0  0  0  0
   50.5475  103.8894   35.4961 C   0  0  0  0  0  0
   51.5320  103.1691   34.8226 C   0  0  0  0  0  0
   50.6905  100.1494   27.2399 C   0  0  0  0  0  0
   50.7807   98.7676   27.4672 C   0  0  0  0  0  0
   50.4464   97.8864   26.4374 C   0  0  0  0  0  0
   50.0428   98.3017   25.2116 N   0  0  0  0  0  0
   49.9778   99.6367   24.9902 C   0  0  0  0  0  0
   50.2860  100.5820   25.9663 C   0  0  0  0  0  0
   48.4861  103.9269   36.6756 F   0  0  0  0  0  0
   50.4429  103.1048   27.3600 H   0  0  0  0  0  0
   52.4859  102.6261   31.9889 H   0  0  0  0  0  0
   53.4227  101.5303   33.9112 H   0  0  0  0  0  0
   52.6558  100.0492   34.4133 H   0  0  0  0  0  0
   50.1741  100.0599   35.0656 H   0  0  0  0  0  0
   48.4423  101.3448   36.2716 H   0  0  0  0  0  0
   50.6463  104.9579   35.6230 H   0  0  0  0  0  0
   52.3931  103.6903   34.4281 H   0  0  0  0  0  0
   51.0913   98.3778   28.4259 H   0  0  0  0  0  0
   50.4992   96.8175   26.5874 H   0  0  0  0  0  0
   49.6513   99.9476   24.0110 H   0  0  0  0  0  0
   50.2017  101.6305   25.7228 H   0  0  0  0  0  0
  1  2  1  0  0  0
  1  5  2  0  0  0
  1 16  1  0  0  0
  2  3  2  0  0  0
  3  4  1  0  0  0
  3  6  1  0  0  0
  4  5  1  0  0  0
  5 23  1  0  0  0
  6  7  1  0  0  0
  6 24  1  0  0  0
  7  8  1  0  0  0
  7  9  2  0  0  0
  8 10  1  0  0  0
  8 25  1  0  0  0
  8 26  1  0  0  0
 10 11  2  0  0  0
 10 15  1  0  0  0
 11 12  1  0  0  0
 11 27  1  0  0  0
 12 13  2  0  0  0
 12 28  1  0  0  0
 13 14  1  0  0  0
 13 22  1  0  0  0
 14 15  2  0  0  0
 14 29  1  0  0  0
 15 30  1  0  0  0
 16 17  2  0  0  0
 16 21  1  0  0  0
 17 18  1  0  0  0
 17 31  1  0  0  0
 18 19  2  0  0  0
 18 32  1  0  0  0
 19 20  1  0  0  0
 20 21  2  0  0  0
 20 33  1  0  0  0
 21 34  1  0  0  0
M  END
> <s_m_entry_id>
28031

> <s_m_entry_name>
dock_pv.192

> <s_m_Source_Path>
/home/csk/Desktop/cluster/DUD-E-result/rock1

> <s_m_Source_File>
dock_pv.maegz

> <i_m_Source_File_Index>
192

> <chembl_id>
CHEMBL3581119

> <chembl_pref_name>
None

> <i_lp_mmshare_version>
53161

> <r_lp_tautomer_probability>
0.999000488399163

> <s_lp_Force_Field>
OPLS_2005

> <r_lp_Energy>
9.707988

> <b_lp_Chiralities_Consistent>
1

> <s_lp_Variant>
CHEMBL3231_lig2095-1

> <s_i_glide_gridfile>
glide-grid_2etr

> <i_i_glide_lignum>
3023

> <i_i_glide_rotatable_bonds>
5

> <r_i_docking_score>
-8.05655010270002

> <r_i_glide_ligand_efficiency>
-0.366206822850001

> <r_i_glide_ligand_efficiency_sa>
-1.02612591972279

> <r_i_glide_ligand_efficiency_ln>
-1.96931471490511

> <r_i_glide_gscore>
-8.05655010270002

> <r_i_glide_lipo>
-3.01845635432381

> <r_i_glide_hbond>
-0.236209840478991

> <r_i_glide_metal>
0

> <r_i_glide_rewards>
-3.06741862675047

> <r_i_glide_evdw>
-39.814811706543

> <r_i_glide_ecoul>
-3.19556617736816

> <r_i_glide_erotb>
0.756619450330215

> <r_i_glide_esite>
-0.0210092195445934

> <r_i_glide_emodel>
-62.5600868145916

> <r_i_glide_energy>
-43.0103778839111

> <r_i_glide_einternal>
3.39689111709595

> <i_i_glide_confnum>
6

> <i_i_glide_posenum>
157

> <r_i_glide_eff_state_penalty>
0

> <s_user_duplicate_titles>
CHEMBL3231_lig2095

> <i_f3d_flags>
0

> <s_m_subgroup_title>
dock_pv

> <s_m_subgroupid>
dock_pv

> <b_m_subgroup_collapsed>
1

$$$$
CHEMBL3231_lig773
                    3D
 Schrodinger Suite 2021-1.
 50 52  0  0  1  0            999 V2000
   50.2555  104.6984   28.5757 C   0  0  0  0  0  0
   50.8426  103.9030   29.6057 O   0  0  0  0  0  0
   51.0924  102.5598   29.3777 C   0  0  0  0  0  0
   50.7376  101.9184   28.1801 C   0  0  0  0  0  0
   51.0058  100.5649   27.9675 C   0  0  0  0  0  0
   51.6760   99.8431   28.9534 C   0  0  0  0  0  0
   52.0303  100.4550   30.1492 C   0  0  0  0  0  0
   51.7231  101.8049   30.3854 C   0  0  0  0  0  0
   52.0183  102.3967   31.7383 C   0  0  0  0  0  0
   51.1932  103.1029   32.3216 O   0  0  0  0  0  0
   53.2038  102.0467   32.2581 N   0  0  0  0  0  0
   53.6827  102.3007   33.6253 C   0  0  1  0  0  0
   54.3659  101.0307   34.1655 C   0  0  0  0  0  0
   55.2594  100.3027   33.3641 C   0  0  0  0  0  0
   55.8646   99.1419   33.8427 C   0  0  0  0  0  0
   55.5731   98.6836   35.1266 C   0  0  0  0  0  0
   54.6784   99.3902   35.9306 C   0  0  0  0  0  0
   54.0759  100.5558   35.4542 C   0  0  0  0  0  0
   53.2082  101.2197   36.2542 F   0  0  0  0  0  0
   54.5789  103.5868   33.7341 C   0  0  0  0  0  0
   53.8175  104.8678   33.3466 C   0  0  0  0  0  0
   55.2114  103.7695   35.1303 C   0  0  0  0  0  0
   55.6430  103.5032   32.8111 O   0  0  0  0  0  0
   50.5457   99.9029   26.7170 C   0  0  0  0  0  0
   50.5616   98.5360   26.3872 C   0  0  0  0  0  0
   50.0431   98.2771   25.2113 N   0  0  0  0  0  0
   49.6834   99.4719   24.7439 N   0  0  0  0  0  0
   49.9702  100.4912   25.6016 C   0  0  0  0  0  0
   50.1985  105.7378   28.8955 H   0  0  0  0  0  0
   50.8427  104.6813   27.6573 H   0  0  0  0  0  0
   49.2401  104.3673   28.3581 H   0  0  0  0  0  0
   50.2257  102.4640   27.4045 H   0  0  0  0  0  0
   51.9033   98.7969   28.8140 H   0  0  0  0  0  0
   52.5145   99.8535   30.9063 H   0  0  0  0  0  0
   53.8922  101.6668   31.6258 H   0  0  0  0  0  0
   52.8051  102.4678   34.2556 H   0  0  0  0  0  0
   55.5132  100.6448   32.3703 H   0  0  0  0  0  0
   56.5618   98.6023   33.2149 H   0  0  0  0  0  0
   56.0449   97.7844   35.4966 H   0  0  0  0  0  0
   54.4505   99.0390   36.9263 H   0  0  0  0  0  0
   52.9396  105.0160   33.9742 H   0  0  0  0  0  0
   54.4412  105.7595   33.4441 H   0  0  0  0  0  0
   53.4770  104.8452   32.3102 H   0  0  0  0  0  0
   54.4485  103.8020   35.9082 H   0  0  0  0  0  0
   55.8960  102.9559   35.3762 H   0  0  0  0  0  0
   55.7842  104.6945   35.1917 H   0  0  0  0  0  0
   55.6428  104.3053   32.2680 H   0  0  0  0  0  0
   50.9370   97.7380   27.0103 H   0  0  0  0  0  0
   49.2443   99.5875   23.8342 H   0  0  0  0  0  0
   49.7261  101.5125   25.3527 H   0  0  0  0  0  0
  1  2  1  0  0  0
  1 29  1  0  0  0
  1 30  1  0  0  0
  1 31  1  0  0  0
  2  3  1  0  0  0
  3  4  2  0  0  0
  3  8  1  0  0  0
  4  5  1  0  0  0
  4 32  1  0  0  0
  5  6  2  0  0  0
  5 24  1  0  0  0
  6  7  1  0  0  0
  6 33  1  0  0  0
  7  8  2  0  0  0
  7 34  1  0  0  0
  8  9  1  0  0  0
  9 10  2  0  0  0
  9 11  1  0  0  0
 11 12  1  0  0  0
 11 35  1  0  0  0
 12 13  1  0  0  0
 12 20  1  0  0  0
 12 36  1  0  0  0
 13 14  2  0  0  0
 13 18  1  0  0  0
 14 15  1  0  0  0
 14 37  1  0  0  0
 15 16  2  0  0  0
 15 38  1  0  0  0
 16 17  1  0  0  0
 16 39  1  0  0  0
 17 18  2  0  0  0
 17 40  1  0  0  0
 18 19  1  0  0  0
 20 21  1  0  0  0
 20 22  1  0  0  0
 20 23  1  0  0  0
 21 41  1  0  0  0
 21 42  1  0  0  0
 21 43  1  0  0  0
 22 44  1  0  0  0
 22 45  1  0  0  0
 22 46  1  0  0  0
 23 47  1  0  0  0
 24 25  1  0  0  0
 24 28  2  0  0  0
 25 26  2  0  0  0
 25 48  1  0  0  0
 26 27  1  0  0  0
 27 28  1  0  0  0
 27 49  1  0  0  0
 28 50  1  0  0  0
M  END
> <s_m_entry_id>
28032

> <s_m_entry_name>
dock_pv.193

> <s_m_Source_Path>
/home/csk/Desktop/cluster/DUD-E-result/rock1

> <s_m_Source_File>
dock_pv.maegz

> <i_m_Source_File_Index>
193

> <chembl_id>
CHEMBL3965594

> <chembl_pref_name>
None

> <i_lp_mmshare_version>
53161

> <r_lp_tautomer_probability>
0.5

> <s_lp_Force_Field>
OPLS_2005

> <r_lp_Energy>
25.157211

> <b_lp_Chiralities_Consistent>
1

> <s_lp_Variant>
CHEMBL3231_lig773-2

> <s_i_glide_gridfile>
glide-grid_2etr

> <i_i_glide_lignum>
1095

> <i_i_glide_rotatable_bonds>
8

> <r_i_docking_score>
-8.05435710090383

> <r_i_glide_ligand_efficiency>
-0.287655610746565

> <r_i_glide_ligand_efficiency_sa>
-0.873491854320961

> <r_i_glide_ligand_efficiency_ln>
-1.85918210508905

> <r_i_glide_gscore>
-8.05435710090383

> <r_i_glide_lipo>
-1.87244785670133

> <r_i_glide_hbond>
-0.943957832101617

> <r_i_glide_metal>
0

> <r_i_glide_rewards>
-1.76695498722599

> <r_i_glide_evdw>
-41.101131439209

> <r_i_glide_ecoul>
-12.1950845718384

> <r_i_glide_erotb>
0.462639497467991

> <r_i_glide_esite>
-0.0493166646066801

> <r_i_glide_emodel>
-77.4434911789482

> <r_i_glide_energy>
-53.2962160110474

> <r_i_glide_einternal>
5.25814294815063

> <i_i_glide_confnum>
4

> <i_i_glide_posenum>
306

> <r_i_glide_eff_state_penalty>
0

> <s_user_duplicate_titles>
CHEMBL3231_lig773

> <i_f3d_flags>
0

> <s_m_subgroup_title>
dock_pv

> <s_m_subgroupid>
dock_pv

> <b_m_subgroup_collapsed>
1

$$$$
CHEMBL3231_lig769
                    3D
 Schrodinger Suite 2021-1.
 54 56  0  0  1  0            999 V2000
   50.0469  104.8537   28.3032 C   0  0  0  0  0  0
   50.4923  104.0717   29.4051 O   0  0  0  0  0  0
   50.8434  102.7450   29.2351 C   0  0  0  0  0  0
   50.5727  102.0511   28.0474 C   0  0  0  0  0  0
   50.9202  100.7085   27.8891 C   0  0  0  0  0  0
   51.6129  100.0656   28.9145 C   0  0  0  0  0  0
   51.8753  100.7312   30.1084 C   0  0  0  0  0  0
   51.4450  102.0545   30.3077 C   0  0  0  0  0  0
   51.6117  102.7019   31.6663 C   0  0  0  0  0  0
   51.8366  103.9034   31.7822 O   0  0  0  0  0  0
   51.4784  101.8788   32.7249 N   0  0  0  0  0  0
   51.6678  102.2099   34.1435 C   0  0  1  0  0  0
   53.1281  102.6202   34.5132 C   0  0  0  0  0  0
   54.2471  101.5927   34.1837 C   0  0  0  0  0  0
   54.4098  101.3190   32.7529 N   0  0  0  0  0  0
   54.9192  102.4737   32.0115 C   0  0  0  0  0  0
   55.2749  100.1627   32.5240 C   0  0  0  0  0  0
   50.5824  103.1626   34.6787 C   0  0  0  0  0  0
   50.8098  104.5402   34.8140 C   0  0  0  0  0  0
   49.8208  105.3681   35.3402 C   0  0  0  0  0  0
   48.6021  104.8232   35.7376 C   0  0  0  0  0  0
   48.3637  103.4571   35.6120 C   0  0  0  0  0  0
   49.3532  102.6292   35.0882 C   0  0  0  0  0  0
   50.5029   99.9808   26.6574 C   0  0  0  0  0  0
   50.5532   98.6017   26.3796 C   0  0  0  0  0  0
   50.0447   98.2852   25.2111 N   0  0  0  0  0  0
   49.6641   99.4522   24.6951 N   0  0  0  0  0  0
   49.9286  100.5098   25.5114 C   0  0  0  0  0  0
   50.0201  105.9032   28.5962 H   0  0  0  0  0  0
   50.7126  104.7740   27.4429 H   0  0  0  0  0  0
   49.0378  104.5725   28.0112 H   0  0  0  0  0  0
   50.0509  102.5474   27.2452 H   0  0  0  0  0  0
   51.9216   99.0364   28.8102 H   0  0  0  0  0  0
   52.3926  100.1922   30.8903 H   0  0  0  0  0  0
   51.2552  100.9168   32.5272 H   0  0  0  0  0  0
   51.5090  101.2672   34.6711 H   0  0  0  0  0  0
   53.3885  103.5915   34.0961 H   0  0  0  0  0  0
   53.1616  102.7716   35.5926 H   0  0  0  0  0  0
   55.1977  101.9197   34.6105 H   0  0  0  0  0  0
   53.9948  100.6548   34.6819 H   0  0  0  0  0  0
   54.8430  102.2806   30.9407 H   0  0  0  0  0  0
   54.3426  103.3785   32.1918 H   0  0  0  0  0  0
   55.9558  102.7008   32.2626 H   0  0  0  0  0  0
   55.3786   99.9582   31.4568 H   0  0  0  0  0  0
   56.2751  100.3029   32.9358 H   0  0  0  0  0  0
   54.8502   99.2688   32.9825 H   0  0  0  0  0  0
   51.7439  104.9849   34.5021 H   0  0  0  0  0  0
   50.0012  106.4290   35.4388 H   0  0  0  0  0  0
   47.8340  105.4648   36.1436 H   0  0  0  0  0  0
   47.4169  103.0412   35.9244 H   0  0  0  0  0  0
   49.1604  101.5694   35.0019 H   0  0  0  0  0  0
   50.9384   97.8367   27.0379 H   0  0  0  0  0  0
   49.2292   99.5262   23.7796 H   0  0  0  0  0  0
   49.6609  101.5126   25.2168 H   0  0  0  0  0  0
  1  2  1  0  0  0
  1 29  1  0  0  0
  1 30  1  0  0  0
  1 31  1  0  0  0
  2  3  1  0  0  0
  3  4  2  0  0  0
  3  8  1  0  0  0
  4  5  1  0  0  0
  4 32  1  0  0  0
  5  6  2  0  0  0
  5 24  1  0  0  0
  6  7  1  0  0  0
  6 33  1  0  0  0
  7  8  2  0  0  0
  7 34  1  0  0  0
  8  9  1  0  0  0
  9 10  2  0  0  0
  9 11  1  0  0  0
 11 12  1  0  0  0
 11 35  1  0  0  0
 12 13  1  0  0  0
 12 18  1  0  0  0
 12 36  1  0  0  0
 13 14  1  0  0  0
 13 37  1  0  0  0
 13 38  1  0  0  0
 14 15  1  0  0  0
 14 39  1  0  0  0
 14 40  1  0  0  0
 15 16  1  0  0  0
 15 17  1  0  0  0
 16 41  1  0  0  0
 16 42  1  0  0  0
 16 43  1  0  0  0
 17 44  1  0  0  0
 17 45  1  0  0  0
 17 46  1  0  0  0
 18 19  2  0  0  0
 18 23  1  0  0  0
 19 20  1  0  0  0
 19 47  1  0  0  0
 20 21  2  0  0  0
 20 48  1  0  0  0
 21 22  1  0  0  0
 21 49  1  0  0  0
 22 23  2  0  0  0
 22 50  1  0  0  0
 23 51  1  0  0  0
 24 25  1  0  0  0
 24 28  2  0  0  0
 25 26  2  0  0  0
 25 52  1  0  0  0
 26 27  1  0  0  0
 27 28  1  0  0  0
 27 53  1  0  0  0
 28 54  1  0  0  0
M  END
> <s_m_entry_id>
28033

> <s_m_entry_name>
dock_pv.194

> <s_m_Source_Path>
/home/csk/Desktop/cluster/DUD-E-result/rock1

> <s_m_Source_File>
dock_pv.maegz

> <i_m_Source_File_Index>
194

> <chembl_id>
CHEMBL3975905

> <chembl_pref_name>
None

> <i_lp_mmshare_version>
53161

> <r_lp_tautomer_probability>
0.5

> <s_lp_Force_Field>
OPLS_2005

> <r_lp_Energy>
28.070636

> <b_lp_Chiralities_Consistent>
1

> <s_lp_Variant>
CHEMBL3231_lig769-2

> <s_i_glide_gridfile>
glide-grid_2etr

> <i_i_glide_lignum>
1090

> <i_i_glide_rotatable_bonds>
9

> <r_i_docking_score>
-8.04830567525882

> <r_i_glide_ligand_efficiency>
-0.287439488402101

> <r_i_glide_ligand_efficiency_sa>
-0.872835579593913

> <r_i_glide_ligand_efficiency_ln>
-1.85778525837261

> <r_i_glide_gscore>
-8.04830567525882

> <r_i_glide_lipo>
-2.75107192866384

> <r_i_glide_hbond>
-0.732777231990124

> <r_i_glide_metal>
0

> <r_i_glide_rewards>
-1.67620948622035

> <r_i_glide_evdw>
-43.6739273071289

> <r_i_glide_ecoul>
-8.05712890625

> <r_i_glide_erotb>
0.568243482250614

> <r_i_glide_esite>
-0.0642248093411727

> <r_i_glide_emodel>
-78.4689290179849

> <r_i_glide_energy>
-51.7310562133789

> <r_i_glide_einternal>
1.68894171714783

> <i_i_glide_confnum>
17

> <i_i_glide_posenum>
173

> <r_i_glide_eff_state_penalty>
0

> <s_user_duplicate_titles>
CHEMBL3231_lig769

> <i_f3d_flags>
0

> <s_m_subgroup_title>
dock_pv

> <s_m_subgroupid>
dock_pv

> <b_m_subgroup_collapsed>
1

$$$$
CHEMBL3231_lig1348
                    3D
 Schrodinger Suite 2021-1.
 34 36  0  0  1  0            999 V2000
   55.5878   98.1654   35.4891 Cl  0  0  0  0  0  0
   52.0433   98.0027   31.8801 F   0  0  0  0  0  0
   52.0312  103.7000   31.5316 O   0  0  0  0  0  0
   52.2778   99.6777   29.7100 N   0  0  0  0  0  0
   50.6294  100.4855   26.5109 N   0  0  0  0  0  0
   50.0354   98.5367   25.2110 N   0  0  0  0  0  0
   54.0416  103.5030   30.5186 N   0  0  0  0  0  0
   49.6431  100.6961   24.4115 N   0  0  0  0  0  0
   52.7845  100.5082   30.6799 C   0  0  0  0  0  0
   52.4770  101.8106   30.2469 C   0  0  0  0  0  0
   51.6734  100.3560   28.6850 C   0  0  0  0  0  0
   53.4782   99.9312   31.8818 C   0  0  0  0  0  0
   51.8201  101.6963   29.0106 C   0  0  0  0  0  0
   51.0622   99.6726   27.5113 C   0  0  0  0  0  0
   53.0735   98.6947   32.4207 C   0  0  0  0  0  0
   52.8278  103.0609   30.8477 C   0  0  0  0  0  0
   54.5572  100.5975   32.4779 C   0  0  0  0  0  0
   53.7244   98.1540   33.5289 C   0  0  0  0  0  0
   50.9560   98.2788   27.4249 C   0  0  0  0  0  0
   54.7895   98.8338   34.1139 C   0  0  0  0  0  0
   55.2067  100.0538   33.5877 C   0  0  0  0  0  0
   50.1264   99.8734   25.4117 C   0  0  0  0  0  0
   50.4450   97.7528   26.2384 C   0  0  0  0  0  0
   52.3423   98.6712   29.7585 H   0  0  0  0  0  0
   54.6861  102.9028   30.0232 H   0  0  0  0  0  0
   54.3514  104.4184   30.8218 H   0  0  0  0  0  0
   49.2527  100.3026   23.5501 H   0  0  0  0  0  0
   49.6281  101.6897   24.5789 H   0  0  0  0  0  0
   51.4716  102.5240   28.4108 H   0  0  0  0  0  0
   54.9165  101.5335   32.0803 H   0  0  0  0  0  0
   53.4042   97.2027   33.9274 H   0  0  0  0  0  0
   51.2631   97.6243   28.2258 H   0  0  0  0  0  0
   56.0405  100.5710   34.0382 H   0  0  0  0  0  0
   50.3813   96.6863   26.0923 H   0  0  0  0  0  0
  1 20  1  0  0  0
  2 15  1  0  0  0
  3 16  2  0  0  0
  4  9  1  0  0  0
  4 11  1  0  0  0
  4 24  1  0  0  0
  5 14  1  0  0  0
  5 22  2  0  0  0
  6 22  1  0  0  0
  6 23  2  0  0  0
  7 16  1  0  0  0
  7 25  1  0  0  0
  7 26  1  0  0  0
  8 22  1  0  0  0
  8 27  1  0  0  0
  8 28  1  0  0  0
  9 10  2  0  0  0
  9 12  1  0  0  0
 10 13  1  0  0  0
 10 16  1  0  0  0
 11 13  2  0  0  0
 11 14  1  0  0  0
 12 15  1  0  0  0
 12 17  2  0  0  0
 13 29  1  0  0  0
 14 19  2  0  0  0
 15 18  2  0  0  0
 17 21  1  0  0  0
 17 30  1  0  0  0
 18 20  1  0  0  0
 18 31  1  0  0  0
 19 23  1  0  0  0
 19 32  1  0  0  0
 20 21  2  0  0  0
 21 33  1  0  0  0
 23 34  1  0  0  0
M  END
> <s_m_entry_id>
28034

> <s_m_entry_name>
dock_pv.195

> <s_m_Source_Path>
/home/csk/Desktop/cluster/DUD-E-result/rock1

> <s_m_Source_File>
dock_pv.maegz

> <i_m_Source_File_Index>
195

> <chembl_id>
CHEMBL1981079

> <chembl_pref_name>
None

> <i_lp_mmshare_version>
53161

> <r_lp_tautomer_probability>
0.999999987636

> <s_lp_Force_Field>
OPLS_2005

> <r_lp_Energy>
0.372588

> <b_lp_Chiralities_Consistent>
1

> <s_lp_Variant>
CHEMBL3231_lig1348-1

> <s_i_glide_gridfile>
glide-grid_2etr

> <i_i_glide_lignum>
1878

> <i_i_glide_rotatable_bonds>
3

> <r_i_docking_score>
-8.04669022182627

> <r_i_glide_ligand_efficiency>
-0.349856096601142

> <r_i_glide_ligand_efficiency_sa>
-0.994944199783868

> <r_i_glide_ligand_efficiency_ln>
-1.94576265899053

> <r_i_glide_gscore>
-8.04669022182627

> <r_i_glide_lipo>
-1.28084574142266

> <r_i_glide_hbond>
-0.726236542051223

> <r_i_glide_metal>
0

> <r_i_glide_rewards>
-2.68394955530303

> <r_i_glide_evdw>
-36.4453125

> <r_i_glide_ecoul>
-11.4365291595459

> <r_i_glide_erotb>
0.239493028934231

> <r_i_glide_esite>
-0.0574064130517019

> <r_i_glide_emodel>
-71.2564915673506

> <r_i_glide_energy>
-47.8818416595459

> <r_i_glide_einternal>
3.5133101940155

> <i_i_glide_confnum>
2

> <i_i_glide_posenum>
270

> <r_i_glide_eff_state_penalty>
0

> <s_user_duplicate_titles>
CHEMBL3231_lig1348

> <i_f3d_flags>
0

> <s_m_subgroup_title>
dock_pv

> <s_m_subgroupid>
dock_pv

> <b_m_subgroup_collapsed>
1

$$$$
CHEMBL3231_lig236
                    3D
 Schrodinger Suite 2021-1.
 44 46  0  0  1  0            999 V2000
   49.9357   98.5255   25.3113 N   0  0  0  0  0  0
   50.4435   97.5931   26.1466 C   0  0  0  0  0  0
   51.0578   97.9028   27.3543 C   0  0  0  0  0  0
   49.9981   99.8209   25.6933 C   0  0  0  0  0  0
   50.6341  100.2641   26.8921 C   0  0  0  0  0  0
   51.2038   99.2561   27.7277 C   0  0  0  0  0  0
   51.9149   99.6298   28.8917 C   0  0  0  0  0  0
   52.0707  100.9749   29.2238 C   0  0  0  0  0  0
   51.4629  101.9570   28.4437 C   0  0  0  0  0  0
   50.7489  101.6214   27.2953 C   0  0  0  0  0  0
   49.3823  100.7029   24.8110 N   0  0  0  0  0  0
   52.9637  101.3639   30.3913 C   0  0  0  0  0  0
   52.3480  101.0301   31.6689 N   0  0  2  0  0  0
   53.2814  101.3488   32.7443 C   0  0  0  0  0  0
   52.6493  101.0767   34.1242 C   0  0  0  0  0  0
   51.5268  102.0315   34.5237 C   0  0  0  0  0  0
   50.3125  101.5203   34.9861 C   0  0  0  0  0  0
   49.2975  102.3854   35.3853 C   0  0  0  0  0  0
   49.4927  103.7750   35.3302 C   0  0  0  0  0  0
   50.7032  104.2775   34.8562 C   0  0  0  0  0  0
   51.7197  103.4141   34.4617 C   0  0  0  0  0  0
   48.5562  104.7094   35.7256 O   0  0  0  0  0  0
   47.3843  104.2556   36.3873 C   0  0  0  0  0  0
   50.3723   96.5632   25.8299 H   0  0  0  0  0  0
   51.4440   97.1204   27.9898 H   0  0  0  0  0  0
   52.3780   98.8615   29.4948 H   0  0  0  0  0  0
   51.5783  102.9986   28.7082 H   0  0  0  0  0  0
   50.3143  102.4021   26.6888 H   0  0  0  0  0  0
   49.3856  101.6921   25.0029 H   0  0  0  0  0  0
   49.0454  100.3437   23.9193 H   0  0  0  0  0  0
   53.1824  102.4327   30.3460 H   0  0  0  0  0  0
   53.9110  100.8321   30.2770 H   0  0  0  0  0  0
   52.1746  100.0351   31.6877 H   0  0  0  0  0  0
   53.5441  102.4051   32.6655 H   0  0  0  0  0  0
   54.2129  100.7857   32.6470 H   0  0  0  0  0  0
   53.4255  101.1504   34.8864 H   0  0  0  0  0  0
   52.2993  100.0437   34.1656 H   0  0  0  0  0  0
   50.1528  100.4532   35.0420 H   0  0  0  0  0  0
   48.3714  101.9589   35.7394 H   0  0  0  0  0  0
   50.8653  105.3447   34.8144 H   0  0  0  0  0  0
   52.6578  103.8269   34.1196 H   0  0  0  0  0  0
   46.8454  105.1023   36.8087 H   0  0  0  0  0  0
   47.6430  103.5913   37.2120 H   0  0  0  0  0  0
   46.7146  103.7351   35.7007 H   0  0  0  0  0  0
  1  2  2  0  0  0
  1  4  1  0  0  0
  2  3  1  0  0  0
  2 24  1  0  0  0
  3  6  2  0  0  0
  3 25  1  0  0  0
  4 11  1  0  0  0
  4  5  2  0  0  0
  5  6  1  0  0  0
  5 10  1  0  0  0
  6  7  1  0  0  0
  7  8  2  0  0  0
  7 26  1  0  0  0
  8 12  1  0  0  0
  8  9  1  0  0  0
  9 10  2  0  0  0
  9 27  1  0  0  0
 10 28  1  0  0  0
 11 29  1  0  0  0
 11 30  1  0  0  0
 12 13  1  0  0  0
 12 31  1  0  0  0
 12 32  1  0  0  0
 13 14  1  0  0  0
 13 33  1  0  0  0
 14 15  1  0  0  0
 14 34  1  0  0  0
 14 35  1  0  0  0
 15 16  1  0  0  0
 15 36  1  0  0  0
 15 37  1  0  0  0
 16 17  2  0  0  0
 16 21  1  0  0  0
 17 18  1  0  0  0
 17 38  1  0  0  0
 18 19  2  0  0  0
 18 39  1  0  0  0
 19 20  1  0  0  0
 19 22  1  0  0  0
 20 21  2  0  0  0
 20 40  1  0  0  0
 21 41  1  0  0  0
 22 23  1  0  0  0
 23 42  1  0  0  0
 23 43  1  0  0  0
 23 44  1  0  0  0
M  END
> <s_m_entry_id>
28035

> <s_m_entry_name>
dock_pv.196

> <s_m_Source_Path>
/home/csk/Desktop/cluster/DUD-E-result/rock1

> <s_m_Source_File>
dock_pv.maegz

> <i_m_Source_File_Index>
196

> <chembl_id>
CHEMBL1643360

> <chembl_pref_name>
None

> <i_lp_mmshare_version>
53161

> <r_lp_tautomer_probability>
1

> <s_lp_Force_Field>
OPLS_2005

> <r_lp_Energy>
18.606047

> <b_lp_Chiralities_Consistent>
1

> <s_lp_Variant>
CHEMBL3231_lig236-1

> <s_i_glide_gridfile>
glide-grid_2etr

> <i_i_glide_lignum>
380

> <i_i_glide_rotatable_bonds>
6

> <r_i_docking_score>
-8.04173593449079

> <r_i_glide_ligand_efficiency>
-0.349640692803947

> <r_i_glide_ligand_efficiency_sa>
-0.994331620038331

> <r_i_glide_ligand_efficiency_ln>
-1.94456466738982

> <r_i_glide_gscore>
-8.04173593449079

> <r_i_glide_lipo>
-3.22721587547658

> <r_i_glide_hbond>
-0.375001998021873

> <r_i_glide_metal>
0

> <r_i_glide_rewards>
-2.63725726871743

> <r_i_glide_evdw>
-38.568286895752

> <r_i_glide_ecoul>
-5.6804518699646

> <r_i_glide_erotb>
0.978221333007382

> <r_i_glide_esite>
0

> <r_i_glide_emodel>
-64.5793712777272

> <r_i_glide_energy>
-44.2487387657166

> <r_i_glide_einternal>
2.03324484825134

> <i_i_glide_confnum>
187

> <i_i_glide_posenum>
393

> <r_i_glide_eff_state_penalty>
0

> <s_user_duplicate_titles>
CHEMBL3231_lig236

> <i_f3d_flags>
0

> <s_m_subgroup_title>
dock_pv

> <s_m_subgroupid>
dock_pv

> <b_m_subgroup_collapsed>
1

$$$$
CHEMBL3231_lig252
                    3D
 Schrodinger Suite 2021-1.
 46 49  0  0  1  0            999 V2000
   50.3549   98.4368   25.6105 N   0  0  0  0  0  0
   50.0445   99.7005   25.2317 C   0  0  0  0  0  0
   50.2089  100.8143   26.0570 C   0  0  0  0  0  0
   50.8676   98.2665   26.8510 C   0  0  0  0  0  0
   51.0970   99.3119   27.7746 C   0  0  0  0  0  0
   50.7382  100.6292   27.3626 C   0  0  0  0  0  0
   50.9143  101.7005   28.2706 C   0  0  0  0  0  0
   51.4385  101.4879   29.5452 C   0  0  0  0  0  0
   51.7941  100.1862   29.9316 C   0  0  0  0  0  0
   51.6389   99.1075   29.0640 C   0  0  0  0  0  0
   51.5451  102.6066   30.3520 O   0  0  0  0  0  0
   52.2655  102.5559   31.5889 C   0  0  2  0  0  0
   51.3088  102.2868   32.7791 C   0  0  0  0  0  0
   52.0188  102.3331   34.0666 N   0  0  1  0  0  0
   52.7786  103.5721   34.2971 C   0  0  0  0  0  0
   53.7167  103.9067   33.1166 C   0  0  0  0  0  0
   52.9734  103.9033   31.7723 C   0  0  0  0  0  0
   51.2442  101.8622   35.2240 C   0  0  0  0  0  0
   50.1095  102.7848   35.6734 C   0  0  0  0  0  0
   50.3624  103.8121   36.5890 C   0  0  0  0  0  0
   49.3302  104.6552   36.9935 C   0  0  0  0  0  0
   48.0503  104.4755   36.4724 C   0  0  0  0  0  0
   47.7969  103.4808   35.5352 C   0  0  0  0  0  0
   48.8292  102.6390   35.1319 C   0  0  0  0  0  0
   49.6430   99.8167   24.2354 H   0  0  0  0  0  0
   49.9328  101.8018   25.7175 H   0  0  0  0  0  0
   51.1089   97.2513   27.1279 H   0  0  0  0  0  0
   50.6368  102.6982   27.9673 H   0  0  0  0  0  0
   52.1807   99.9786   30.9175 H   0  0  0  0  0  0
   51.9065   98.1093   29.3807 H   0  0  0  0  0  0
   53.0439  101.7909   31.5578 H   0  0  0  0  0  0
   50.8797  101.2910   32.6595 H   0  0  0  0  0  0
   50.4678  102.9809   32.7855 H   0  0  0  0  0  0
   52.0951  104.3989   34.4947 H   0  0  0  0  0  0
   53.3789  103.4445   35.2000 H   0  0  0  0  0  0
   54.1566  104.8924   33.2781 H   0  0  0  0  0  0
   54.5623  103.2182   33.1052 H   0  0  0  0  0  0
   52.2426  104.7095   31.7872 H   0  0  0  0  0  0
   53.6841  104.0893   30.9642 H   0  0  0  0  0  0
   51.9326  101.7204   36.0592 H   0  0  0  0  0  0
   50.8334  100.8771   34.9922 H   0  0  0  0  0  0
   51.3540  103.9492   36.9948 H   0  0  0  0  0  0
   49.5249  105.4394   37.7098 H   0  0  0  0  0  0
   47.2386  105.1031   36.8038 H   0  0  0  0  0  0
   46.7996  103.3509   35.1378 H   0  0  0  0  0  0
   48.6262  101.8655   34.4116 H   0  0  0  0  0  0
  1  2  2  0  0  0
  1  4  1  0  0  0
  2  3  1  0  0  0
  2 25  1  0  0  0
  3  6  2  0  0  0
  3 26  1  0  0  0
  4  5  2  0  0  0
  4 27  1  0  0  0
  5  6  1  0  0  0
  5 10  1  0  0  0
  6  7  1  0  0  0
  7  8  2  0  0  0
  7 28  1  0  0  0
  8  9  1  0  0  0
  8 11  1  0  0  0
  9 10  2  0  0  0
  9 29  1  0  0  0
 10 30  1  0  0  0
 11 12  1  0  0  0
 12 13  1  0  0  0
 12 17  1  0  0  0
 12 31  1  0  0  0
 13 14  1  0  0  0
 13 32  1  0  0  0
 13 33  1  0  0  0
 14 15  1  0  0  0
 14 18  1  0  0  0
 15 16  1  0  0  0
 15 34  1  0  0  0
 15 35  1  0  0  0
 16 17  1  0  0  0
 16 36  1  0  0  0
 16 37  1  0  0  0
 17 38  1  0  0  0
 17 39  1  0  0  0
 18 19  1  0  0  0
 18 40  1  0  0  0
 18 41  1  0  0  0
 19 20  2  0  0  0
 19 24  1  0  0  0
 20 21  1  0  0  0
 20 42  1  0  0  0
 21 22  2  0  0  0
 21 43  1  0  0  0
 22 23  1  0  0  0
 22 44  1  0  0  0
 23 24  2  0  0  0
 23 45  1  0  0  0
 24 46  1  0  0  0
M  END
> <s_m_entry_id>
28036

> <s_m_entry_name>
dock_pv.197

> <s_m_Source_Path>
/home/csk/Desktop/cluster/DUD-E-result/rock1

> <s_m_Source_File>
dock_pv.maegz

> <i_m_Source_File_Index>
197

> <chembl_id>
CHEMBL1667965

> <chembl_pref_name>
None

> <i_lp_mmshare_version>
53161

> <r_lp_tautomer_probability>
1

> <s_lp_Force_Field>
OPLS_2005

> <r_lp_Energy>
29.650712

> <b_lp_Chiralities_Consistent>
1

> <s_lp_Variant>
CHEMBL3231_lig252-1

> <s_i_glide_gridfile>
glide-grid_2etr

> <i_i_glide_lignum>
396

> <i_i_glide_rotatable_bonds>
4

> <r_i_docking_score>
-8.03962146738018

> <r_i_glide_ligand_efficiency>
-0.334984227807507

> <r_i_glide_ligand_efficiency_sa>
-0.966261716206663

> <r_i_glide_ligand_efficiency_ln>
-1.92425033133444

> <r_i_glide_gscore>
-8.03962146738018

> <r_i_glide_lipo>
-3.82629212306711

> <r_i_glide_hbond>
0

> <r_i_glide_metal>
0

> <r_i_glide_rewards>
-2.56866173581694

> <r_i_glide_evdw>
-44.0928268432617

> <r_i_glide_ecoul>
-1.1707329750061

> <r_i_glide_erotb>
0.735583679917873

> <r_i_glide_esite>
0

> <r_i_glide_emodel>
-59.4974915396711

> <r_i_glide_energy>
-45.2635598182678

> <r_i_glide_einternal>
14.3795938491821

> <i_i_glide_confnum>
16

> <i_i_glide_posenum>
284

> <r_i_glide_eff_state_penalty>
0

> <s_user_duplicate_titles>
CHEMBL3231_lig252

> <i_f3d_flags>
0

> <s_m_subgroup_title>
dock_pv

> <s_m_subgroupid>
dock_pv

> <b_m_subgroup_collapsed>
1

$$$$
CHEMBL3231_lig562
                    3D
 Schrodinger Suite 2021-1.
 33 35  0  0  1  0            999 V2000
   51.2433  103.5028   32.3390 O   0  0  0  0  0  0
   52.1662  102.6890   32.3100 C   0  0  0  0  0  0
   52.8731  102.3430   33.3985 N   0  0  0  0  0  0
   52.6072  102.7803   34.7758 C   0  0  0  0  0  0
   51.1857  102.5065   35.2366 C   0  0  0  0  0  0
   50.2653  103.4817   35.0001 O   0  0  0  0  0  0
   49.0695  103.0308   35.4579 C   0  0  0  0  0  0
   49.2202  101.7739   36.0107 C   0  0  0  0  0  0
   50.5724  101.4517   35.8972 C   0  0  0  0  0  0
   52.5365  101.9950   31.2156 N   0  0  0  0  0  0
   51.8738  102.0370   29.9976 C   0  0  0  0  0  0
   51.7267  100.9692   29.2556 N   0  0  0  0  0  0
   51.0272  101.2058   28.1545 C   0  0  0  0  0  0
   50.6198  102.5360   28.0111 C   0  0  0  0  0  0
   51.2333  103.5027   29.3015 S   0  0  0  0  0  0
   50.7206  100.1055   27.1875 C   0  0  0  0  0  0
   50.2941  100.4317   25.8930 C   0  0  0  0  0  0
   49.9737   99.4072   25.0077 C   0  0  0  0  0  0
   50.0431   98.0967   25.3370 N   0  0  0  0  0  0
   50.4740   97.7856   26.5833 C   0  0  0  0  0  0
   50.8287   98.7485   27.5303 C   0  0  0  0  0  0
   53.7653  101.8963   33.2456 H   0  0  0  0  0  0
   52.8342  103.8447   34.8513 H   0  0  0  0  0  0
   53.3219  102.2756   35.4231 H   0  0  0  0  0  0
   48.2232  103.6890   35.3208 H   0  0  0  0  0  0
   48.4432  101.1661   36.4469 H   0  0  0  0  0  0
   51.0494  100.5441   36.2380 H   0  0  0  0  0  0
   53.2470  101.2857   31.3219 H   0  0  0  0  0  0
   50.0424  102.9890   27.2191 H   0  0  0  0  0  0
   50.2055  101.4568   25.5687 H   0  0  0  0  0  0
   49.6422   99.6392   24.0108 H   0  0  0  0  0  0
   50.5366   96.7323   26.8109 H   0  0  0  0  0  0
   51.1570   98.4415   28.5132 H   0  0  0  0  0  0
  1  2  2  0  0  0
  2  3  1  0  0  0
  2 10  1  0  0  0
  3  4  1  0  0  0
  3 22  1  0  0  0
  4  5  1  0  0  0
  4 23  1  0  0  0
  4 24  1  0  0  0
  5  6  1  0  0  0
  5  9  2  0  0  0
  6  7  1  0  0  0
  7  8  2  0  0  0
  7 25  1  0  0  0
  8  9  1  0  0  0
  8 26  1  0  0  0
  9 27  1  0  0  0
 10 11  1  0  0  0
 10 28  1  0  0  0
 11 12  2  0  0  0
 11 15  1  0  0  0
 12 13  1  0  0  0
 13 14  2  0  0  0
 13 16  1  0  0  0
 14 15  1  0  0  0
 14 29  1  0  0  0
 16 17  2  0  0  0
 16 21  1  0  0  0
 17 18  1  0  0  0
 17 30  1  0  0  0
 18 19  2  0  0  0
 18 31  1  0  0  0
 19 20  1  0  0  0
 20 21  2  0  0  0
 20 32  1  0  0  0
 21 33  1  0  0  0
M  END
> <s_m_entry_id>
28037

> <s_m_entry_name>
dock_pv.198

> <s_m_Source_Path>
/home/csk/Desktop/cluster/DUD-E-result/rock1

> <s_m_Source_File>
dock_pv.maegz

> <i_m_Source_File_Index>
198

> <chembl_id>
CHEMBL3963845

> <chembl_pref_name>
None

> <i_lp_mmshare_version>
53161

> <r_lp_tautomer_probability>
0.999000488399163

> <s_lp_Force_Field>
OPLS_2005

> <r_lp_Energy>
1.105261

> <b_lp_Chiralities_Consistent>
1

> <s_lp_Variant>
CHEMBL3231_lig562-1

> <s_i_glide_gridfile>
glide-grid_2etr

> <i_i_glide_lignum>
840

> <i_i_glide_rotatable_bonds>
6

> <r_i_docking_score>
-8.03891885923608

> <r_i_glide_ligand_efficiency>
-0.382805659963623

> <r_i_glide_ligand_efficiency_sa>
-1.05613178905736

> <r_i_glide_ligand_efficiency_ln>
-1.98760644378104

> <r_i_glide_gscore>
-8.03891885923608

> <r_i_glide_lipo>
-3.04970137174169

> <r_i_glide_hbond>
-0.35889706241316

> <r_i_glide_metal>
0

> <r_i_glide_rewards>
-2.72769330530215

> <r_i_glide_evdw>
-36.9178848266602

> <r_i_glide_ecoul>
-6.74008750915527

> <r_i_glide_erotb>
1.01883141998529

> <r_i_glide_esite>
-0.0645511720580721

> <r_i_glide_emodel>
-64.4280323897484

> <r_i_glide_energy>
-43.6579723358154

> <r_i_glide_einternal>
2.40242433547974

> <i_i_glide_confnum>
9

> <i_i_glide_posenum>
346

> <r_i_glide_eff_state_penalty>
0

> <s_user_duplicate_titles>
CHEMBL3231_lig562

> <i_f3d_flags>
0

> <s_m_subgroup_title>
dock_pv

> <s_m_subgroupid>
dock_pv

> <b_m_subgroup_collapsed>
1

$$$$
CHEMBL3231_lig1213
                    3D
 Schrodinger Suite 2021-1.
 42 45  0  0  1  0            999 V2000
   51.5267  102.7675   30.2560 O   0  0  0  0  0  0
   52.7676  102.4444   34.1791 O   0  0  0  0  0  0
   52.6948   98.5196   33.2319 O   0  0  0  0  0  0
   54.3399  100.9784   33.4209 N   0  0  0  0  0  0
   52.0477  103.0081   31.5272 N   0  0  0  0  0  0
   49.9315   99.4468   25.0161 N   0  0  0  0  0  0
   50.0431   98.1228   25.2112 N   0  0  0  0  0  0
   53.6437   96.7035   32.3773 N   0  0  0  0  0  0
   51.7346  101.4639   29.9382 C   0  0  0  0  0  0
   52.6109  101.8878   31.9420 C   0  0  0  0  0  0
   51.2621  100.9791   28.6102 C   0  0  0  0  0  0
   53.2352  101.7705   33.2552 C   0  0  0  0  0  0
   52.3600  100.8692   31.0087 C   0  0  0  0  0  0
   50.7727   99.1932   27.0612 C   0  0  0  0  0  0
   50.3544  100.1583   26.1186 C   0  0  0  0  0  0
   51.2449   99.6109   28.3160 C   0  0  0  0  0  0
   50.8369  101.9033   27.6532 C   0  0  0  0  0  0
   50.4036  101.5235   26.3838 C   0  0  0  0  0  0
   55.0161  100.1784   32.3720 C   0  0  0  0  0  0
   55.0863   98.6670   32.7697 C   0  0  1  0  0  0
   50.5689   97.9520   26.3957 C   0  0  0  0  0  0
   55.0343  100.9482   34.7308 C   0  0  0  0  0  0
   55.7363   98.5397   34.1714 C   0  0  0  0  0  0
   55.1091   99.4829   35.2234 C   0  0  0  0  0  0
   53.7049   97.9624   32.8126 C   0  0  0  0  0  0
   49.5429   99.8104   24.1536 H   0  0  0  0  0  0
   54.4806   96.2254   32.0735 H   0  0  0  0  0  0
   52.7604   96.2037   32.4115 H   0  0  0  0  0  0
   52.6196   99.8263   31.0828 H   0  0  0  0  0  0
   51.5711   98.8869   29.0480 H   0  0  0  0  0  0
   50.8410  102.9563   27.8977 H   0  0  0  0  0  0
   50.0832  102.2524   25.6584 H   0  0  0  0  0  0
   56.0430  100.5420   32.3588 H   0  0  0  0  0  0
   54.7254  100.3770   31.3432 H   0  0  0  0  0  0
   55.6432   98.1169   32.0118 H   0  0  0  0  0  0
   50.7937   96.9690   26.7749 H   0  0  0  0  0  0
   54.5749  101.5897   35.4851 H   0  0  0  0  0  0
   56.0459  101.3244   34.5699 H   0  0  0  0  0  0
   55.7773   97.4984   34.4968 H   0  0  0  0  0  0
   56.8025   98.7471   34.0535 H   0  0  0  0  0  0
   54.1109   99.1385   35.4959 H   0  0  0  0  0  0
   55.6928   99.4400   36.1425 H   0  0  0  0  0  0
  1  5  1  0  0  0
  1  9  1  0  0  0
  2 12  2  0  0  0
  3 25  2  0  0  0
  4 12  1  0  0  0
  4 19  1  0  0  0
  4 22  1  0  0  0
  5 10  2  0  0  0
  6  7  1  0  0  0
  6 15  1  0  0  0
  6 26  1  0  0  0
  7 21  2  0  0  0
  8 25  1  0  0  0
  8 27  1  0  0  0
  8 28  1  0  0  0
  9 11  1  0  0  0
  9 13  2  0  0  0
 10 12  1  0  0  0
 10 13  1  0  0  0
 11 16  1  0  0  0
 11 17  2  0  0  0
 13 29  1  0  0  0
 14 15  1  0  0  0
 14 16  2  0  0  0
 14 21  1  0  0  0
 15 18  2  0  0  0
 16 30  1  0  0  0
 17 18  1  0  0  0
 17 31  1  0  0  0
 18 32  1  0  0  0
 19 20  1  0  0  0
 19 33  1  0  0  0
 19 34  1  0  0  0
 20 23  1  0  0  0
 20 25  1  0  0  0
 20 35  1  0  0  0
 21 36  1  0  0  0
 22 24  1  0  0  0
 22 37  1  0  0  0
 22 38  1  0  0  0
 23 24  1  0  0  0
 23 39  1  0  0  0
 23 40  1  0  0  0
 24 41  1  0  0  0
 24 42  1  0  0  0
M  END
> <s_m_entry_id>
28038

> <s_m_entry_name>
dock_pv.199

> <s_m_Source_Path>
/home/csk/Desktop/cluster/DUD-E-result/rock1

> <s_m_Source_File>
dock_pv.maegz

> <i_m_Source_File_Index>
199

> <chembl_id>
CHEMBL1970369

> <chembl_pref_name>
None

> <i_lp_mmshare_version>
53161

> <r_lp_tautomer_probability>
0.980392156862745

> <s_lp_Force_Field>
OPLS_2005

> <r_lp_Energy>
32.602078

> <b_lp_Chiralities_Consistent>
1

> <s_lp_Variant>
CHEMBL3231_lig1213-2

> <s_i_glide_gridfile>
glide-grid_2etr

> <i_i_glide_lignum>
1683

> <i_i_glide_rotatable_bonds>
4

> <r_i_docking_score>
-8.03660151124332

> <r_i_glide_ligand_efficiency>
-0.321464060449733

> <r_i_glide_ligand_efficiency_sa>
-0.939966613944406

> <r_i_glide_ligand_efficiency_ln>
-1.90491539567756

> <r_i_glide_gscore>
-8.03660151124332

> <r_i_glide_lipo>
-1.97305590723818

> <r_i_glide_hbond>
-0.730908748133525

> <r_i_glide_metal>
0

> <r_i_glide_rewards>
-2.32048107090354

> <r_i_glide_evdw>
-37.2351341247559

> <r_i_glide_ecoul>
-9.13570022583008

> <r_i_glide_erotb>
0.345088205228956

> <r_i_glide_esite>
-0.125132250084724

> <r_i_glide_emodel>
-68.4302013125779

> <r_i_glide_energy>
-46.3708343505859

> <r_i_glide_einternal>
4.39062261581421

> <i_i_glide_confnum>
11

> <i_i_glide_posenum>
241

> <r_i_glide_eff_state_penalty>
0

> <s_user_duplicate_titles>
CHEMBL3231_lig1213,CHEMBL3231_lig1213

> <i_f3d_flags>
0

> <s_m_subgroup_title>
dock_pv

> <s_m_subgroupid>
dock_pv

> <b_m_subgroup_collapsed>
1

$$$$
CHEMBL3231_lig783
                    3D
 Schrodinger Suite 2021-1.
 48 50  0  0  1  0            999 V2000
   50.2484  104.6870   28.4850 C   0  0  0  0  0  0
   50.8430  103.9035   29.5180 O   0  0  0  0  0  0
   51.0877  102.5551   29.3168 C   0  0  0  0  0  0
   50.7476  101.9011   28.1234 C   0  0  0  0  0  0
   51.0034  100.5417   27.9373 C   0  0  0  0  0  0
   51.6426   99.8256   28.9479 C   0  0  0  0  0  0
   51.9842  100.4515   30.1400 C   0  0  0  0  0  0
   51.6966  101.8104   30.3479 C   0  0  0  0  0  0
   51.9983  102.4347   31.6875 C   0  0  0  0  0  0
   51.2433  103.2696   32.1905 O   0  0  0  0  0  0
   53.1153  101.9985   32.2911 N   0  0  0  0  0  0
   53.6351  102.4878   33.5724 C   0  0  2  0  0  0
   54.4665  103.7870   33.3645 C   0  0  2  0  0  0
   55.6365  103.5031   32.6131 O   0  0  0  0  0  0
   54.8230  104.5320   34.6701 C   0  0  0  0  0  0
   55.2430  105.8627   34.4110 O   0  0  0  0  0  0
   54.3961  101.3857   34.3257 C   0  0  0  0  0  0
   55.2431  100.5015   33.6421 C   0  0  0  0  0  0
   55.9220   99.5020   34.3316 C   0  0  0  0  0  0
   55.7441   99.3727   35.7063 C   0  0  0  0  0  0
   54.8950  100.2350   36.3965 C   0  0  0  0  0  0
   54.2214  101.2401   35.7069 C   0  0  0  0  0  0
   50.5609   99.8670   26.6886 C   0  0  0  0  0  0
   50.0436  100.4490   25.5415 C   0  0  0  0  0  0
   49.7419   99.4179   24.7028 N   0  0  0  0  0  0
   50.0430   98.2231   25.2110 N   0  0  0  0  0  0
   50.5374   98.4920   26.3944 C   0  0  0  0  0  0
   50.1679  105.7235   28.8115 H   0  0  0  0  0  0
   50.8429  104.6830   27.5718 H   0  0  0  0  0  0
   49.2419  104.3379   28.2581 H   0  0  0  0  0  0
   50.2585  102.4432   27.3306 H   0  0  0  0  0  0
   51.8608   98.7748   28.8296 H   0  0  0  0  0  0
   52.4486   99.8538   30.9127 H   0  0  0  0  0  0
   53.7692  101.4690   31.7343 H   0  0  0  0  0  0
   52.7740  102.7395   34.1972 H   0  0  0  0  0  0
   53.8712  104.4666   32.7498 H   0  0  0  0  0  0
   55.8942  104.3157   32.1508 H   0  0  0  0  0  0
   53.9501  104.5843   35.3224 H   0  0  0  0  0  0
   55.6034  104.0015   35.2185 H   0  0  0  0  0  0
   54.5551  106.3195   33.9100 H   0  0  0  0  0  0
   55.4059  100.6019   32.5783 H   0  0  0  0  0  0
   56.5903   98.8375   33.8007 H   0  0  0  0  0  0
   56.2746   98.5984   36.2409 H   0  0  0  0  0  0
   54.7634  100.1253   37.4628 H   0  0  0  0  0  0
   53.5667  101.9047   36.2513 H   0  0  0  0  0  0
   49.8434  101.4725   25.2603 H   0  0  0  0  0  0
   49.3215   99.5259   23.7840 H   0  0  0  0  0  0
   50.8639   97.6963   27.0481 H   0  0  0  0  0  0
  1  2  1  0  0  0
  1 28  1  0  0  0
  1 29  1  0  0  0
  1 30  1  0  0  0
  2  3  1  0  0  0
  3  4  2  0  0  0
  3  8  1  0  0  0
  4  5  1  0  0  0
  4 31  1  0  0  0
  5  6  2  0  0  0
  5 23  1  0  0  0
  6  7  1  0  0  0
  6 32  1  0  0  0
  7  8  2  0  0  0
  7 33  1  0  0  0
  8  9  1  0  0  0
  9 10  2  0  0  0
  9 11  1  0  0  0
 11 12  1  0  0  0
 11 34  1  0  0  0
 12 13  1  0  0  0
 12 17  1  0  0  0
 12 35  1  0  0  0
 13 14  1  0  0  0
 13 15  1  0  0  0
 13 36  1  0  0  0
 14 37  1  0  0  0
 15 16  1  0  0  0
 15 38  1  0  0  0
 15 39  1  0  0  0
 16 40  1  0  0  0
 17 18  2  0  0  0
 17 22  1  0  0  0
 18 19  1  0  0  0
 18 41  1  0  0  0
 19 20  2  0  0  0
 19 42  1  0  0  0
 20 21  1  0  0  0
 20 43  1  0  0  0
 21 22  2  0  0  0
 21 44  1  0  0  0
 22 45  1  0  0  0
 23 24  2  0  0  0
 23 27  1  0  0  0
 24 25  1  0  0  0
 24 46  1  0  0  0
 25 26  1  0  0  0
 25 47  1  0  0  0
 26 27  2  0  0  0
 27 48  1  0  0  0
M  END
> <s_m_entry_id>
28039

> <s_m_entry_name>
dock_pv.200

> <s_m_Source_Path>
/home/csk/Desktop/cluster/DUD-E-result/rock1

> <s_m_Source_File>
dock_pv.maegz

> <i_m_Source_File_Index>
200

> <chembl_id>
CHEMBL4107177

> <chembl_pref_name>
None

> <i_lp_mmshare_version>
53161

> <r_lp_tautomer_probability>
0.5

> <s_lp_Force_Field>
OPLS_2005

> <r_lp_Energy>
29.920347

> <b_lp_Chiralities_Consistent>
1

> <s_lp_Variant>
CHEMBL3231_lig783-1

> <s_i_glide_gridfile>
glide-grid_2etr

> <i_i_glide_lignum>
1107

> <i_i_glide_rotatable_bonds>
10

> <r_i_docking_score>
-8.03429948251403

> <r_i_glide_ligand_efficiency>
-0.29756664750052

> <r_i_glide_ligand_efficiency_sa>
-0.892699941520828

> <r_i_glide_ligand_efficiency_ln>
-1.87025246375032

> <r_i_glide_gscore>
-8.03429948251403

> <r_i_glide_lipo>
-1.92943805026468

> <r_i_glide_hbond>
-0.698611248563168

> <r_i_glide_metal>
0

> <r_i_glide_rewards>
-1.82449114371754

> <r_i_glide_evdw>
-39.3695907592773

> <r_i_glide_ecoul>
-14.4172468185425

> <r_i_glide_erotb>
0.599226220005183

> <r_i_glide_esite>
-0.0499186992285912

> <r_i_glide_emodel>
-79.9231330225023

> <r_i_glide_energy>
-53.7868375778198

> <r_i_glide_einternal>
3.67679572105408

> <i_i_glide_confnum>
1

> <i_i_glide_posenum>
335

> <r_i_glide_eff_state_penalty>
0

> <s_user_duplicate_titles>
CHEMBL3231_lig783

> <i_f3d_flags>
0

> <s_m_subgroup_title>
dock_pv

> <s_m_subgroupid>
dock_pv

> <b_m_subgroup_collapsed>
1

$$$$
CHEMBL3231_lig659
                    3D
 Schrodinger Suite 2021-1.
 42 44  0  0  1  0            999 V2000
   53.4018  101.4497   35.1790 C   0  0  0  0  0  0
   52.5809  102.4616   34.3643 C   0  0  1  0  0  0
   52.4355  101.9925   32.9818 N   0  0  0  0  0  0
   51.9449  102.7147   31.9567 C   0  0  0  0  0  0
   51.6431  103.9028   32.0754 O   0  0  0  0  0  0
   51.7080  101.9895   30.6482 C   0  0  0  0  0  0
   51.1518  102.6735   29.5607 C   0  0  0  0  0  0
   50.8428  102.0051   28.3799 C   0  0  0  0  0  0
   51.0855  100.6327   28.2308 C   0  0  0  0  0  0
   51.6741   99.9434   29.3123 C   0  0  0  0  0  0
   52.0156   98.4656   29.2566 C   0  0  0  0  0  0
   51.9864  100.6234   30.4938 C   0  0  0  0  0  0
   50.6770  100.0115   26.9188 C   0  0  0  0  0  0
   50.4593  100.6660   25.7113 C   0  0  0  0  0  0
   50.0589   99.7194   24.8109 N   0  0  0  0  0  0
   50.0429   98.4926   25.3286 N   0  0  0  0  0  0
   50.3831   98.6716   26.5846 C   0  0  0  0  0  0
   51.2506  102.7746   35.0664 C   0  0  0  0  0  0
   51.1131  103.9594   35.7982 C   0  0  0  0  0  0
   49.9103  104.2532   36.4365 C   0  0  0  0  0  0
   48.8424  103.3641   36.3405 C   0  0  0  0  0  0
   48.9655  102.1844   35.6107 C   0  0  0  0  0  0
   50.1682  101.8895   34.9734 C   0  0  0  0  0  0
   53.5956  101.8196   36.1865 H   0  0  0  0  0  0
   52.8840  100.4943   35.2721 H   0  0  0  0  0  0
   54.3698  101.2575   34.7133 H   0  0  0  0  0  0
   53.1736  103.3800   34.3204 H   0  0  0  0  0  0
   52.8736  101.1108   32.7669 H   0  0  0  0  0  0
   50.9358  103.7302   29.6221 H   0  0  0  0  0  0
   50.3935  102.5748   27.5805 H   0  0  0  0  0  0
   51.1283   97.8536   29.4202 H   0  0  0  0  0  0
   52.4427   98.2214   28.2873 H   0  0  0  0  0  0
   52.7678   98.1959   30.0005 H   0  0  0  0  0  0
   52.4244  100.0588   31.3041 H   0  0  0  0  0  0
   50.5365  101.7041   25.4292 H   0  0  0  0  0  0
   49.7944   99.9032   23.8496 H   0  0  0  0  0  0
   50.4053   97.8264   27.2544 H   0  0  0  0  0  0
   51.9369  104.6553   35.8728 H   0  0  0  0  0  0
   49.8080  105.1680   37.0011 H   0  0  0  0  0  0
   47.9082  103.5879   36.8345 H   0  0  0  0  0  0
   48.1303  101.5032   35.5420 H   0  0  0  0  0  0
   50.2619  100.9727   34.4096 H   0  0  0  0  0  0
  1  2  1  0  0  0
  1 24  1  0  0  0
  1 25  1  0  0  0
  1 26  1  0  0  0
  2  3  1  0  0  0
  2 18  1  0  0  0
  2 27  1  0  0  0
  3  4  1  0  0  0
  3 28  1  0  0  0
  4  5  2  0  0  0
  4  6  1  0  0  0
  6  7  2  0  0  0
  6 12  1  0  0  0
  7  8  1  0  0  0
  7 29  1  0  0  0
  8  9  2  0  0  0
  8 30  1  0  0  0
  9 10  1  0  0  0
  9 13  1  0  0  0
 10 11  1  0  0  0
 10 12  2  0  0  0
 11 31  1  0  0  0
 11 32  1  0  0  0
 11 33  1  0  0  0
 12 34  1  0  0  0
 13 14  2  0  0  0
 13 17  1  0  0  0
 14 15  1  0  0  0
 14 35  1  0  0  0
 15 16  1  0  0  0
 15 36  1  0  0  0
 16 17  2  0  0  0
 17 37  1  0  0  0
 18 19  2  0  0  0
 18 23  1  0  0  0
 19 20  1  0  0  0
 19 38  1  0  0  0
 20 21  2  0  0  0
 20 39  1  0  0  0
 21 22  1  0  0  0
 21 40  1  0  0  0
 22 23  2  0  0  0
 22 41  1  0  0  0
 23 42  1  0  0  0
M  END
> <s_m_entry_id>
28040

> <s_m_entry_name>
dock_pv.201

> <s_m_Source_Path>
/home/csk/Desktop/cluster/DUD-E-result/rock1

> <s_m_Source_File>
dock_pv.maegz

> <i_m_Source_File_Index>
201

> <chembl_id>
CHEMBL4111337

> <chembl_pref_name>
None

> <i_lp_mmshare_version>
53161

> <r_lp_tautomer_probability>
0.5

> <s_lp_Force_Field>
OPLS_2005

> <r_lp_Energy>
18.887898

> <b_lp_Chiralities_Consistent>
1

> <s_lp_Variant>
CHEMBL3231_lig659-1

> <s_i_glide_gridfile>
glide-grid_2etr

> <i_i_glide_lignum>
949

> <i_i_glide_rotatable_bonds>
5

> <r_i_docking_score>
-8.03343293121382

> <r_i_glide_ligand_efficiency>
-0.349279692661471

> <r_i_glide_ligand_efficiency_sa>
-0.993304983654492

> <r_i_glide_ligand_efficiency_ln>
-1.94255692590998

> <r_i_glide_gscore>
-8.03343293121382

> <r_i_glide_lipo>
-2.95507295350598

> <r_i_glide_hbond>
-0.444783935829422

> <r_i_glide_metal>
0

> <r_i_glide_rewards>
-2.48840669443823

> <r_i_glide_evdw>
-38.5003395080566

> <r_i_glide_ecoul>
-4.81433010101318

> <r_i_glide_erotb>
0.554162348767917

> <r_i_glide_esite>
-0.0521652056532997

> <r_i_glide_emodel>
-63.9441093890937

> <r_i_glide_energy>
-43.3146696090698

> <r_i_glide_einternal>
1.5194137096405

> <i_i_glide_confnum>
19

> <i_i_glide_posenum>
200

> <r_i_glide_eff_state_penalty>
0

> <s_user_duplicate_titles>
CHEMBL3231_lig659

> <i_f3d_flags>
0

> <s_m_subgroup_title>
dock_pv

> <s_m_subgroupid>
dock_pv

> <b_m_subgroup_collapsed>
1

$$$$
CHEMBL3231_lig397
                    3D
 Schrodinger Suite 2021-1.
 49 51  0  0  1  0            999 V2000
   53.0848  102.7304   30.9419 N   0  0  0  0  0  0
   52.4713  103.3704   31.9473 C   0  0  0  0  0  0
   51.2449  103.5012   32.0530 O   0  0  0  0  0  0
   53.3800  103.7678   32.8546 N   0  0  0  0  0  0
   53.2208  103.9269   34.3108 C   0  0  1  0  0  0
   53.5689  105.3657   34.7730 C   0  0  0  0  0  0
   54.9422  105.8684   34.3016 C   0  0  0  0  0  0
   51.9086  103.3786   34.8932 C   0  0  0  0  0  0
   50.8140  104.2179   35.1204 C   0  0  0  0  0  0
   49.6094  103.7162   35.6027 C   0  0  0  0  0  0
   49.4993  102.3428   35.8742 C   0  0  0  0  0  0
   50.5898  101.4983   35.6700 C   0  0  0  0  0  0
   51.7906  102.0156   35.1884 C   0  0  0  0  0  0
   48.6021  104.6391   35.7725 O   0  0  0  0  0  0
   47.4123  104.2206   36.4113 C   0  0  0  0  0  0
   55.2429  107.1016   34.9131 O   0  0  0  0  0  0
   52.4189  102.0537   29.9222 C   0  0  0  0  0  0
   51.4517  102.6862   29.1373 C   0  0  0  0  0  0
   50.8426  101.9842   28.1050 C   0  0  0  0  0  0
   51.2007  100.6553   27.8568 C   0  0  0  0  0  0
   52.1430  100.0226   28.6699 C   0  0  0  0  0  0
   52.7640  100.7252   29.6941 C   0  0  0  0  0  0
   49.6438   99.4268   24.8019 N   0  0  0  0  0  0
   50.0430   98.2512   25.2849 N   0  0  0  0  0  0
   50.6144   98.5521   26.4259 C   0  0  0  0  0  0
   50.6147   99.9332   26.6984 C   0  0  0  0  0  0
   49.9611  100.4813   25.6066 C   0  0  0  0  0  0
   54.0697  102.5264   31.0436 H   0  0  0  0  0  0
   54.2897  104.0185   32.4950 H   0  0  0  0  0  0
   53.9962  103.2874   34.7407 H   0  0  0  0  0  0
   52.8183  106.0675   34.4114 H   0  0  0  0  0  0
   53.5400  105.3976   35.8635 H   0  0  0  0  0  0
   55.7136  105.1424   34.5605 H   0  0  0  0  0  0
   54.9801  105.9585   33.2149 H   0  0  0  0  0  0
   50.8734  105.2706   34.8987 H   0  0  0  0  0  0
   48.5768  101.9157   36.2403 H   0  0  0  0  0  0
   50.5058  100.4419   35.8800 H   0  0  0  0  0  0
   52.6248  101.3493   35.0200 H   0  0  0  0  0  0
   46.8388  105.1030   36.6740 H   0  0  0  0  0  0
   46.8045  103.5850   35.7648 H   0  0  0  0  0  0
   47.6427  103.6971   37.3425 H   0  0  0  0  0  0
   54.7294  107.7874   34.4718 H   0  0  0  0  0  0
   51.1915  103.7209   29.3081 H   0  0  0  0  0  0
   50.1108  102.4858   27.4884 H   0  0  0  0  0  0
   52.4405   98.9994   28.4903 H   0  0  0  0  0  0
   53.5147  100.2355   30.2981 H   0  0  0  0  0  0
   49.1766   99.5071   23.9029 H   0  0  0  0  0  0
   51.0408   97.7809   27.0513 H   0  0  0  0  0  0
   49.7117  101.4970   25.3303 H   0  0  0  0  0  0
  1  2  1  0  0  0
  1 17  1  0  0  0
  1 28  1  0  0  0
  2  3  2  0  0  0
  2  4  1  0  0  0
  4  5  1  0  0  0
  4 29  1  0  0  0
  5  6  1  0  0  0
  5  8  1  0  0  0
  5 30  1  0  0  0
  6  7  1  0  0  0
  6 31  1  0  0  0
  6 32  1  0  0  0
  7 16  1  0  0  0
  7 33  1  0  0  0
  7 34  1  0  0  0
  8  9  1  0  0  0
  8 13  2  0  0  0
  9 10  2  0  0  0
  9 35  1  0  0  0
 10 11  1  0  0  0
 10 14  1  0  0  0
 11 12  2  0  0  0
 11 36  1  0  0  0
 12 13  1  0  0  0
 12 37  1  0  0  0
 13 38  1  0  0  0
 14 15  1  0  0  0
 15 39  1  0  0  0
 15 40  1  0  0  0
 15 41  1  0  0  0
 16 42  1  0  0  0
 17 18  1  0  0  0
 17 22  2  0  0  0
 18 19  2  0  0  0
 18 43  1  0  0  0
 19 20  1  0  0  0
 19 44  1  0  0  0
 20 21  2  0  0  0
 20 26  1  0  0  0
 21 22  1  0  0  0
 21 45  1  0  0  0
 22 46  1  0  0  0
 23 24  1  0  0  0
 23 27  1  0  0  0
 23 47  1  0  0  0
 24 25  2  0  0  0
 25 26  1  0  0  0
 25 48  1  0  0  0
 26 27  2  0  0  0
 27 49  1  0  0  0
M  END
> <s_m_entry_id>
28041

> <s_m_entry_name>
dock_pv.202

> <s_m_Source_Path>
/home/csk/Desktop/cluster/DUD-E-result/rock1

> <s_m_Source_File>
dock_pv.maegz

> <i_m_Source_File_Index>
202

> <chembl_id>
CHEMBL2332076

> <chembl_pref_name>
None

> <i_lp_mmshare_version>
53161

> <r_lp_tautomer_probability>
0.5

> <s_lp_Force_Field>
OPLS_2005

> <r_lp_Energy>
21.225547

> <b_lp_Chiralities_Consistent>
1

> <s_lp_Variant>
CHEMBL3231_lig397-2

> <s_i_glide_gridfile>
glide-grid_2etr

> <i_i_glide_lignum>
557

> <i_i_glide_rotatable_bonds>
10

> <r_i_docking_score>
-8.03165045128053

> <r_i_glide_ligand_efficiency>
-0.297468535232612

> <r_i_glide_ligand_efficiency_sa>
-0.892405604717429

> <r_i_glide_ligand_efficiency_ln>
-1.86963581295185

> <r_i_glide_gscore>
-8.03165045128053

> <r_i_glide_lipo>
-2.90218258146022

> <r_i_glide_hbond>
-0.69878720535332

> <r_i_glide_metal>
0

> <r_i_glide_rewards>
-1.01049165434782

> <r_i_glide_evdw>
-44.9068069458008

> <r_i_glide_ecoul>
-12.3412971496582

> <r_i_glide_erotb>
0.802807002320185

> <r_i_glide_esite>
-0.126461092700577

> <r_i_glide_emodel>
-78.4064231543644

> <r_i_glide_energy>
-57.248104095459

> <r_i_glide_einternal>
11.6501035690308

> <i_i_glide_confnum>
103

> <i_i_glide_posenum>
258

> <r_i_glide_eff_state_penalty>
0

> <s_user_duplicate_titles>
CHEMBL3231_lig397

> <i_f3d_flags>
0

> <s_m_subgroup_title>
dock_pv

> <s_m_subgroupid>
dock_pv

> <b_m_subgroup_collapsed>
1

$$$$
CHEMBL3231_lig1213
                    3D
 Schrodinger Suite 2021-1.
 42 45  0  0  1  0            999 V2000
   51.6433  100.4908   30.9697 O   0  0  0  0  0  0
   52.4444   98.8198   34.7534 O   0  0  0  0  0  0
   53.2428   95.7189   35.9957 O   0  0  0  0  0  0
   54.3035   98.1132   33.6191 N   0  0  0  0  0  0
   52.1130  100.3941   32.2795 N   0  0  0  0  0  0
   50.0429   98.9857   24.9890 N   0  0  0  0  0  0
   50.0430  100.3022   24.7388 N   0  0  0  0  0  0
   53.6435   94.3025   34.3383 N   0  0  0  0  0  0
   51.6920   99.2673   30.3835 C   0  0  0  0  0  0
   52.4524   99.1351   32.4645 C   0  0  0  0  0  0
   51.2656   99.1702   28.9571 C   0  0  0  0  0  0
   53.0549   98.6610   33.6919 C   0  0  0  0  0  0
   52.1489   98.3678   31.3282 C   0  0  0  0  0  0
   50.7156  100.2124   26.8471 C   0  0  0  0  0  0
   50.4419   98.9263   26.2927 C   0  0  0  0  0  0
   51.1431  100.3275   28.1784 C   0  0  0  0  0  0
   50.9789   97.9198   28.4053 C   0  0  0  0  0  0
   50.5832   97.7792   27.0765 C   0  0  0  0  0  0
   55.0260   97.6782   34.8372 C   0  0  0  0  0  0
   55.2865   96.1390   34.7838 C   0  0  2  0  0  0
   50.4464  101.1022   25.7785 C   0  0  0  0  0  0
   55.0636   97.8953   32.3719 C   0  0  0  0  0  0
   55.9413   95.7501   33.4223 C   0  0  0  0  0  0
   55.2342   96.3694   32.1971 C   0  0  0  0  0  0
   53.9677   95.3722   35.0675 C   0  0  0  0  0  0
   49.7577  100.6515   23.8318 H   0  0  0  0  0  0
   54.2671   93.9766   33.6162 H   0  0  0  0  0  0
   52.7871   93.8072   34.5332 H   0  0  0  0  0  0
   52.2939   97.3037   31.2051 H   0  0  0  0  0  0
   51.3640  101.2979   28.5982 H   0  0  0  0  0  0
   51.0674   97.0333   29.0178 H   0  0  0  0  0  0
   50.3846   96.8001   26.6638 H   0  0  0  0  0  0
   54.5631   98.0166   35.7665 H   0  0  0  0  0  0
   55.9898   98.1904   34.8303 H   0  0  0  0  0  0
   55.9322   95.8287   35.6069 H   0  0  0  0  0  0
   50.4837  102.1766   25.6683 H   0  0  0  0  0  0
   56.0440   98.3498   32.5256 H   0  0  0  0  0  0
   54.6836   98.4182   31.4942 H   0  0  0  0  0  0
   56.9801   96.0864   33.4571 H   0  0  0  0  0  0
   56.1082   94.6757   33.3404 H   0  0  0  0  0  0
   55.8262   96.1755   31.3015 H   0  0  0  0  0  0
   54.2660   95.9016   32.0225 H   0  0  0  0  0  0
  1  5  1  0  0  0
  1  9  1  0  0  0
  2 12  2  0  0  0
  3 25  2  0  0  0
  4 12  1  0  0  0
  4 19  1  0  0  0
  4 22  1  0  0  0
  5 10  2  0  0  0
  6  7  1  0  0  0
  6 15  2  0  0  0
  7 26  1  0  0  0
  7 21  1  0  0  0
  8 25  1  0  0  0
  8 27  1  0  0  0
  8 28  1  0  0  0
  9 13  2  0  0  0
  9 11  1  0  0  0
 10 12  1  0  0  0
 10 13  1  0  0  0
 11 17  1  0  0  0
 11 16  2  0  0  0
 13 29  1  0  0  0
 14 16  1  0  0  0
 14 15  1  0  0  0
 14 21  2  0  0  0
 15 18  1  0  0  0
 16 30  1  0  0  0
 17 18  2  0  0  0
 17 31  1  0  0  0
 18 32  1  0  0  0
 19 20  1  0  0  0
 19 33  1  0  0  0
 19 34  1  0  0  0
 20 23  1  0  0  0
 20 25  1  0  0  0
 20 35  1  0  0  0
 21 36  1  0  0  0
 22 24  1  0  0  0
 22 37  1  0  0  0
 22 38  1  0  0  0
 23 24  1  0  0  0
 23 39  1  0  0  0
 23 40  1  0  0  0
 24 41  1  0  0  0
 24 42  1  0  0  0
M  END
> <s_m_entry_id>
28042

> <s_m_entry_name>
dock_pv.203

> <s_m_Source_Path>
/home/csk/Desktop/cluster/DUD-E-result/rock1

> <s_m_Source_File>
dock_pv.maegz

> <i_m_Source_File_Index>
203

> <chembl_id>
CHEMBL1970369

> <chembl_pref_name>
None

> <i_lp_mmshare_version>
53161

> <r_lp_tautomer_probability>
0.0196078431372549

> <s_lp_Force_Field>
OPLS_2005

> <r_lp_Energy>
46.129511

> <b_lp_Chiralities_Consistent>
1

> <s_lp_Variant>
CHEMBL3231_lig1213-3

> <s_i_glide_gridfile>
glide-grid_2etr

> <i_i_glide_lignum>
1684

> <i_i_glide_rotatable_bonds>
4

> <r_i_docking_score>
-8.0283906009396

> <r_i_glide_ligand_efficiency>
-0.321135624037584

> <r_i_glide_ligand_efficiency_sa>
-0.939006260050438

> <r_i_glide_ligand_efficiency_ln>
-1.90296916387446

> <r_i_glide_gscore>
-8.0283906009396

> <r_i_glide_lipo>
-2.13043500578675

> <r_i_glide_hbond>
-0.136640482498903

> <r_i_glide_metal>
0

> <r_i_glide_rewards>
-3.10687950533652

> <r_i_glide_evdw>
-40.2887802124023

> <r_i_glide_ecoul>
-7.30031728744507

> <r_i_glide_erotb>
0.49298315032708

> <r_i_glide_esite>
-0.0379321539076271

> <r_i_glide_emodel>
-69.2279321976562

> <r_i_glide_energy>
-47.5890974998474

> <r_i_glide_einternal>
5.68302726745605

> <i_i_glide_confnum>
14

> <i_i_glide_posenum>
238

> <r_i_glide_eff_state_penalty>
0

> <s_user_duplicate_titles>
CHEMBL3231_lig1213,CHEMBL3231_lig1213

> <i_f3d_flags>
0

> <s_m_subgroup_title>
dock_pv

> <s_m_subgroupid>
dock_pv

> <b_m_subgroup_collapsed>
1

$$$$
CHEMBL3231_lig557
                    3D
 Schrodinger Suite 2021-1.
 44 46  0  0  1  0            999 V2000
   52.7458   98.6418   35.7375 C   0  0  0  0  0  0
   51.6438   99.5042   36.0021 O   0  0  0  0  0  0
   51.7447  100.8422   35.6816 C   0  0  0  0  0  0
   52.8529  101.4250   35.0480 C   0  0  0  0  0  0
   52.8611  102.7879   34.7452 C   0  0  0  0  0  0
   54.0371  103.4004   33.9843 C   0  0  0  0  0  0
   54.0626  103.0709   32.5534 N   0  0  0  0  0  0
   53.0192  103.2280   31.7225 C   0  0  0  0  0  0
   52.0434  103.9300   31.9976 O   0  0  0  0  0  0
   53.1334  102.4639   30.6181 N   0  0  0  0  0  0
   52.1635  102.3118   29.6340 C   0  0  0  0  0  0
   52.0887  101.2288   28.8992 N   0  0  0  0  0  0
   51.1342  101.3002   27.9812 C   0  0  0  0  0  0
   50.4433  102.5109   27.9580 C   0  0  0  0  0  0
   51.0177  103.5531   29.2033 S   0  0  0  0  0  0
   50.8399  100.1557   27.0756 C   0  0  0  0  0  0
   51.0368   98.8277   27.4747 C   0  0  0  0  0  0
   50.6634   97.8044   26.6033 C   0  0  0  0  0  0
   50.1263   98.0332   25.3795 N   0  0  0  0  0  0
   49.9781   99.3224   24.9906 C   0  0  0  0  0  0
   50.3115  100.4026   25.8024 C   0  0  0  0  0  0
   51.7764  103.5823   35.1253 C   0  0  0  0  0  0
   50.6594  103.0254   35.7474 C   0  0  0  0  0  0
   49.6212  103.8846   36.0514 O   0  0  0  0  0  0
   48.4423  103.3569   36.6485 C   0  0  0  0  0  0
   50.6540  101.6474   36.0114 C   0  0  0  0  0  0
   52.5058   97.6371   36.0855 H   0  0  0  0  0  0
   52.9592   98.5791   34.6686 H   0  0  0  0  0  0
   53.6460   98.9638   36.2639 H   0  0  0  0  0  0
   53.7046  100.8277   34.7586 H   0  0  0  0  0  0
   54.0606  104.4857   34.1077 H   0  0  0  0  0  0
   54.9652  103.0381   34.4275 H   0  0  0  0  0  0
   54.9532  102.8031   32.1631 H   0  0  0  0  0  0
   53.9424  101.8651   30.5436 H   0  0  0  0  0  0
   49.6548  102.8279   27.2943 H   0  0  0  0  0  0
   51.4459   98.5910   28.4461 H   0  0  0  0  0  0
   50.7963   96.7702   26.8829 H   0  0  0  0  0  0
   49.5618   99.4898   24.0109 H   0  0  0  0  0  0
   50.1504  101.4097   25.4478 H   0  0  0  0  0  0
   51.7799  104.6385   34.8962 H   0  0  0  0  0  0
   47.7256  104.1610   36.8126 H   0  0  0  0  0  0
   48.6570  102.9026   37.6161 H   0  0  0  0  0  0
   47.9625  102.6179   36.0049 H   0  0  0  0  0  0
   49.8054  101.1768   36.4814 H   0  0  0  0  0  0
  1  2  1  0  0  0
  1 27  1  0  0  0
  1 28  1  0  0  0
  1 29  1  0  0  0
  2  3  1  0  0  0
  3  4  2  0  0  0
  3 26  1  0  0  0
  4  5  1  0  0  0
  4 30  1  0  0  0
  5  6  1  0  0  0
  5 22  2  0  0  0
  6  7  1  0  0  0
  6 31  1  0  0  0
  6 32  1  0  0  0
  7  8  1  0  0  0
  7 33  1  0  0  0
  8  9  2  0  0  0
  8 10  1  0  0  0
 10 11  1  0  0  0
 10 34  1  0  0  0
 11 12  2  0  0  0
 11 15  1  0  0  0
 12 13  1  0  0  0
 13 14  2  0  0  0
 13 16  1  0  0  0
 14 15  1  0  0  0
 14 35  1  0  0  0
 16 17  2  0  0  0
 16 21  1  0  0  0
 17 18  1  0  0  0
 17 36  1  0  0  0
 18 19  2  0  0  0
 18 37  1  0  0  0
 19 20  1  0  0  0
 20 21  2  0  0  0
 20 38  1  0  0  0
 21 39  1  0  0  0
 22 23  1  0  0  0
 22 40  1  0  0  0
 23 24  1  0  0  0
 23 26  2  0  0  0
 24 25  1  0  0  0
 25 41  1  0  0  0
 25 42  1  0  0  0
 25 43  1  0  0  0
 26 44  1  0  0  0
M  END
> <s_m_entry_id>
28043

> <s_m_entry_name>
dock_pv.204

> <s_m_Source_Path>
/home/csk/Desktop/cluster/DUD-E-result/rock1

> <s_m_Source_File>
dock_pv.maegz

> <i_m_Source_File_Index>
204

> <chembl_id>
CHEMBL3931698

> <chembl_pref_name>
None

> <i_lp_mmshare_version>
53161

> <r_lp_tautomer_probability>
0.999000488399163

> <s_lp_Force_Field>
OPLS_2005

> <r_lp_Energy>
14.795925

> <b_lp_Chiralities_Consistent>
1

> <s_lp_Variant>
CHEMBL3231_lig557-1

> <s_i_glide_gridfile>
glide-grid_2etr

> <i_i_glide_lignum>
835

> <i_i_glide_rotatable_bonds>
8

> <r_i_docking_score>
-8.02664176580349

> <r_i_glide_ligand_efficiency>
-0.308716990992442

> <r_i_glide_ligand_efficiency_sa>
-0.914572871072407

> <r_i_glide_ligand_efficiency_ln>
-1.88503048113913

> <r_i_glide_gscore>
-8.02664176580349

> <r_i_glide_lipo>
-2.91516662878878

> <r_i_glide_hbond>
-0.310655539951882

> <r_i_glide_metal>
0

> <r_i_glide_rewards>
-2.22726441111349

> <r_i_glide_evdw>
-43.4118347167969

> <r_i_glide_ecoul>
-7.71175003051758

> <r_i_glide_erotb>
0.843574544847676

> <r_i_glide_esite>
-0.0897754903795287

> <r_i_glide_emodel>
-76.361727265517

> <r_i_glide_energy>
-51.1235847473145

> <r_i_glide_einternal>
2.93268322944641

> <i_i_glide_confnum>
11

> <i_i_glide_posenum>
140

> <r_i_glide_eff_state_penalty>
0

> <s_user_duplicate_titles>
CHEMBL3231_lig557

> <i_f3d_flags>
0

> <s_m_subgroup_title>
dock_pv

> <s_m_subgroupid>
dock_pv

> <b_m_subgroup_collapsed>
1

$$$$
CHEMBL3231_lig576
                    3D
 Schrodinger Suite 2021-1.
 44 46  0  0  1  0            999 V2000
   50.1815  107.2099   35.0919 C   0  0  0  0  0  0
   49.2847  106.1904   35.5275 O   0  0  0  0  0  0
   49.6701  104.8677   35.4363 C   0  0  0  0  0  0
   48.7963  103.9198   35.9740 C   0  0  0  0  0  0
   49.1039  102.5592   35.9302 C   0  0  0  0  0  0
   50.2869  102.1315   35.3308 C   0  0  0  0  0  0
   51.1666  103.0613   34.7690 C   0  0  0  0  0  0
   52.4731  102.5900   34.1306 C   0  0  0  0  0  0
   52.3154  102.0191   32.7894 N   0  0  0  0  0  0
   51.8835  102.6940   31.7085 C   0  0  0  0  0  0
   51.6459  103.9028   31.7376 O   0  0  0  0  0  0
   51.6456  101.9066   30.4380 C   0  0  0  0  0  0
   51.3354  102.5849   29.2565 C   0  0  0  0  0  0
   51.0348  101.8907   28.0938 C   0  0  0  0  0  0
   51.0389  100.4923   28.0599 C   0  0  0  0  0  0
   51.3584   99.7823   29.2366 C   0  0  0  0  0  0
   51.3121   98.3985   29.2077 O   0  0  0  0  0  0
   51.4340   97.6466   30.4135 C   0  0  0  0  0  0
   51.6730  100.5021   30.4051 C   0  0  0  0  0  0
   50.6543   99.8454   26.7578 C   0  0  0  0  0  0
   50.4246   98.4882   26.4504 C   0  0  0  0  0  0
   50.0429   98.2823   25.2111 N   0  0  0  0  0  0
   50.0421   99.4955   24.6635 N   0  0  0  0  0  0
   50.4213  100.4707   25.5368 C   0  0  0  0  0  0
   50.8634  104.4255   34.8396 C   0  0  0  0  0  0
   49.7324  108.1848   35.2720 H   0  0  0  0  0  0
   51.1222  107.1768   35.6402 H   0  0  0  0  0  0
   50.3897  107.1342   34.0241 H   0  0  0  0  0  0
   47.8768  104.2424   36.4379 H   0  0  0  0  0  0
   48.4290  101.8355   36.3621 H   0  0  0  0  0  0
   50.5178  101.0782   35.2954 H   0  0  0  0  0  0
   53.2069  103.3981   34.1094 H   0  0  0  0  0  0
   52.9146  101.8236   34.7739 H   0  0  0  0  0  0
   52.6088  101.0607   32.6674 H   0  0  0  0  0  0
   51.3126  103.6658   29.2302 H   0  0  0  0  0  0
   50.7833  102.4689   27.2168 H   0  0  0  0  0  0
   51.2425   96.5950   30.2026 H   0  0  0  0  0  0
   52.4389   97.7242   30.8293 H   0  0  0  0  0  0
   50.7063   97.9611   31.1660 H   0  0  0  0  0  0
   51.9090   99.9622   31.3092 H   0  0  0  0  0  0
   50.5105   97.6540   27.1290 H   0  0  0  0  0  0
   49.7482   99.6534   23.7082 H   0  0  0  0  0  0
   50.4557  101.5018   25.2182 H   0  0  0  0  0  0
   51.5617  105.1305   34.4111 H   0  0  0  0  0  0
  1  2  1  0  0  0
  1 26  1  0  0  0
  1 27  1  0  0  0
  1 28  1  0  0  0
  2  3  1  0  0  0
  3  4  2  0  0  0
  3 25  1  0  0  0
  4  5  1  0  0  0
  4 29  1  0  0  0
  5  6  2  0  0  0
  5 30  1  0  0  0
  6  7  1  0  0  0
  6 31  1  0  0  0
  7  8  1  0  0  0
  7 25  2  0  0  0
  8  9  1  0  0  0
  8 32  1  0  0  0
  8 33  1  0  0  0
  9 10  1  0  0  0
  9 34  1  0  0  0
 10 11  2  0  0  0
 10 12  1  0  0  0
 12 13  2  0  0  0
 12 19  1  0  0  0
 13 14  1  0  0  0
 13 35  1  0  0  0
 14 15  2  0  0  0
 14 36  1  0  0  0
 15 16  1  0  0  0
 15 20  1  0  0  0
 16 17  1  0  0  0
 16 19  2  0  0  0
 17 18  1  0  0  0
 18 37  1  0  0  0
 18 38  1  0  0  0
 18 39  1  0  0  0
 19 40  1  0  0  0
 20 21  1  0  0  0
 20 24  2  0  0  0
 21 22  2  0  0  0
 21 41  1  0  0  0
 22 23  1  0  0  0
 23 24  1  0  0  0
 23 42  1  0  0  0
 24 43  1  0  0  0
 25 44  1  0  0  0
M  END
> <s_m_entry_id>
28044

> <s_m_entry_name>
dock_pv.205

> <s_m_Source_Path>
/home/csk/Desktop/cluster/DUD-E-result/rock1

> <s_m_Source_File>
dock_pv.maegz

> <i_m_Source_File_Index>
205

> <chembl_id>
CHEMBL3951271

> <chembl_pref_name>
None

> <i_lp_mmshare_version>
53161

> <r_lp_tautomer_probability>
0.5

> <s_lp_Force_Field>
OPLS_2005

> <r_lp_Energy>
24.236683

> <b_lp_Chiralities_Consistent>
1

> <s_lp_Variant>
CHEMBL3231_lig576-1

> <s_i_glide_gridfile>
glide-grid_2etr

> <i_i_glide_lignum>
855

> <i_i_glide_rotatable_bonds>
7

> <r_i_docking_score>
-8.02638482551524

> <r_i_glide_ligand_efficiency>
-0.321055393020609

> <r_i_glide_ligand_efficiency_sa>
-0.938771663133902

> <r_i_glide_ligand_efficiency_ln>
-1.90249373499064

> <r_i_glide_gscore>
-8.02638482551524

> <r_i_glide_lipo>
-2.69791157333124

> <r_i_glide_hbond>
-0.683228081002622

> <r_i_glide_metal>
0

> <r_i_glide_rewards>
-1.92865948569906

> <r_i_glide_evdw>
-42.2014808654785

> <r_i_glide_ecoul>
-7.54530191421509

> <r_i_glide_erotb>
0.581129694408677

> <r_i_glide_esite>
-0.0558460494847953

> <r_i_glide_emodel>
-73.507135989451

> <r_i_glide_energy>
-49.7467827796936

> <r_i_glide_einternal>
2.09025096893311

> <i_i_glide_confnum>
48

> <i_i_glide_posenum>
308

> <r_i_glide_eff_state_penalty>
0

> <s_user_duplicate_titles>
CHEMBL3231_lig576

> <i_f3d_flags>
0

> <s_m_subgroup_title>
dock_pv

> <s_m_subgroupid>
dock_pv

> <b_m_subgroup_collapsed>
1

$$$$
CHEMBL3231_lig1538
                    3D
 Schrodinger Suite 2021-1.
 53 58  0  0  1  0            999 V2000
   55.3251   97.3407   36.9693 C   0  0  0  0  0  0
   56.1823   98.2891   37.4191 N   0  0  0  0  0  0
   56.3090   99.4104   36.6753 C   0  0  0  0  0  0
   55.6437   99.7134   35.5386 N   0  0  0  0  0  0
   54.6087   97.5603   35.7873 C   0  0  0  0  0  0
   54.7784   98.7920   35.0913 C   0  0  0  0  0  0
   53.8853   98.7930   33.9495 C   0  0  0  0  0  0
   53.3087   97.5274   33.9656 C   0  0  0  0  0  0
   53.7085   96.8036   35.0688 N   0  0  0  0  0  0
   57.2440  100.3314   37.1065 N   0  0  0  0  0  0
   53.2831   95.4547   35.4146 C   0  0  0  0  0  0
   54.4004   94.4212   35.2068 C   0  0  0  0  0  0
   53.6409   99.8900   32.9487 C   0  0  0  0  0  0
   50.1337   98.3647   25.6165 C   0  0  0  0  0  0
   49.7721   99.6669   25.2905 C   0  0  0  0  0  0
   50.0431  100.7236   26.1524 C   0  0  0  0  0  0
   50.7946   98.0803   26.8089 C   0  0  0  0  0  0
   51.1031   99.1210   27.6968 C   0  0  0  0  0  0
   50.6970  100.4395   27.3584 C   0  0  0  0  0  0
   51.1067  101.5668   28.6280 S   0  0  0  0  0  0
   51.9597  100.3154   29.5315 C   0  0  0  0  0  0
   51.7939   99.0775   28.9374 C   0  0  0  0  0  0
   52.7263  100.6452   30.7853 C   0  0  0  0  0  0
   52.9255   99.6577   31.7652 C   0  0  0  0  0  0
   54.1599  101.1627   33.1955 C   0  0  0  0  0  0
   53.3219  101.9073   31.0158 C   0  0  0  0  0  0
   54.0192  102.1608   32.2382 C   0  0  0  0  0  0
   54.4428  103.5030   32.1399 C   0  0  0  0  0  0
   54.0423  103.9029   30.8982 N   0  0  0  0  0  0
   53.3611  103.0002   30.1886 N   0  0  0  0  0  0
   54.7542   94.1481   33.7329 C   0  0  0  0  0  0
   53.6429   93.5038   33.0562 N   0  0  0  0  0  0
   55.2389   96.4321   37.5475 H   0  0  0  0  0  0
   52.6106   97.0784   33.2735 H   0  0  0  0  0  0
   57.8525   99.9857   37.8295 H   0  0  0  0  0  0
   57.6628  100.8901   36.3668 H   0  0  0  0  0  0
   52.9349   95.4598   36.4489 H   0  0  0  0  0  0
   52.4429   95.1771   34.7889 H   0  0  0  0  0  0
   55.3045   94.7252   35.7363 H   0  0  0  0  0  0
   54.0784   93.5042   35.6963 H   0  0  0  0  0  0
   49.9037   97.5617   24.9352 H   0  0  0  0  0  0
   49.2548   99.8612   24.3641 H   0  0  0  0  0  0
   49.7443  101.7320   25.9010 H   0  0  0  0  0  0
   51.0727   97.0689   27.0480 H   0  0  0  0  0  0
   52.1968   98.1660   29.3473 H   0  0  0  0  0  0
   52.5189   98.6742   31.5949 H   0  0  0  0  0  0
   54.6923  101.3979   34.0997 H   0  0  0  0  0  0
   55.0113  104.1683   32.7726 H   0  0  0  0  0  0
   54.2713  104.8140   30.5184 H   0  0  0  0  0  0
   55.0181   95.0720   33.2152 H   0  0  0  0  0  0
   55.6290   93.5021   33.6649 H   0  0  0  0  0  0
   53.2591   92.7503   33.6169 H   0  0  0  0  0  0
   52.8815   94.1586   32.9075 H   0  0  0  0  0  0
  1  5  1  0  0  0
  1  2  2  0  0  0
  1 33  1  0  0  0
  2  3  1  0  0  0
  3 10  1  0  0  0
  3  4  2  0  0  0
  4  6  1  0  0  0
  5  9  1  0  0  0
  5  6  2  0  0  0
  6  7  1  0  0  0
  7  8  2  0  0  0
  7 13  1  0  0  0
  8  9  1  0  0  0
  8 34  1  0  0  0
  9 11  1  0  0  0
 10 35  1  0  0  0
 10 36  1  0  0  0
 11 12  1  0  0  0
 11 37  1  0  0  0
 11 38  1  0  0  0
 12 31  1  0  0  0
 12 39  1  0  0  0
 12 40  1  0  0  0
 13 24  1  0  0  0
 13 25  2  0  0  0
 14 15  2  0  0  0
 14 17  1  0  0  0
 14 41  1  0  0  0
 15 16  1  0  0  0
 15 42  1  0  0  0
 16 19  2  0  0  0
 16 43  1  0  0  0
 17 18  2  0  0  0
 17 44  1  0  0  0
 18 22  1  0  0  0
 18 19  1  0  0  0
 19 20  1  0  0  0
 20 21  1  0  0  0
 21 22  2  0  0  0
 21 23  1  0  0  0
 22 45  1  0  0  0
 23 26  1  0  0  0
 23 24  2  0  0  0
 24 46  1  0  0  0
 25 47  1  0  0  0
 25 27  1  0  0  0
 26 30  2  0  0  0
 26 27  1  0  0  0
 27 28  2  0  0  0
 28 29  1  0  0  0
 28 48  1  0  0  0
 29 49  1  0  0  0
 29 30  1  0  0  0
 31 32  1  0  0  0
 31 50  1  0  0  0
 31 51  1  0  0  0
 32 52  1  0  0  0
 32 53  1  0  0  0
M  END
> <s_m_entry_id>
28045

> <s_m_entry_name>
dock_pv.206

> <s_m_Source_Path>
/home/csk/Desktop/cluster/DUD-E-result/rock1

> <s_m_Source_File>
dock_pv.maegz

> <i_m_Source_File_Index>
206

> <chembl_id>
CHEMBL592030

> <chembl_pref_name>
None

> <i_lp_mmshare_version>
53161

> <r_lp_tautomer_probability>
0.0196078431372549

> <s_lp_Force_Field>
OPLS_2005

> <r_lp_Energy>
32.70747

> <b_lp_Chiralities_Consistent>
1

> <s_lp_Variant>
CHEMBL3231_lig1538-2

> <s_i_glide_gridfile>
glide-grid_2etr

> <i_i_glide_lignum>
2182

> <i_i_glide_rotatable_bonds>
5

> <r_i_docking_score>
-8.02287699872647

> <r_i_glide_ligand_efficiency>
-0.250714906210202

> <r_i_glide_ligand_efficiency_sa>
-0.795970210804826

> <r_i_glide_ligand_efficiency_ln>
-1.79654085538212

> <r_i_glide_gscore>
-8.02287699872647

> <r_i_glide_lipo>
-2.45744512564037

> <r_i_glide_hbond>
-1.03707903101439

> <r_i_glide_metal>
0

> <r_i_glide_rewards>
-1.02058487878788

> <r_i_glide_evdw>
-40.3085708618164

> <r_i_glide_ecoul>
-12.0880746841431

> <r_i_glide_erotb>
0.413247664071979

> <r_i_glide_esite>
-0.0923758816435284

> <r_i_glide_emodel>
-77.1531931667011

> <r_i_glide_energy>
-52.3966455459595

> <r_i_glide_einternal>
4.20711517333984

> <i_i_glide_confnum>
22

> <i_i_glide_posenum>
345

> <r_i_glide_eff_state_penalty>
0

> <s_user_duplicate_titles>
CHEMBL3231_lig1538

> <i_f3d_flags>
0

> <s_m_subgroup_title>
dock_pv

> <s_m_subgroupid>
dock_pv

> <b_m_subgroup_collapsed>
1

$$$$
CHEMBL3231_lig700
                    3D
 Schrodinger Suite 2021-1.
 55 58  0  0  1  0            999 V2000
   51.5575   97.7634   30.4120 C   0  0  0  0  0  0
   51.2933   98.4828   29.2082 O   0  0  0  0  0  0
   51.3384   99.8683   29.2108 C   0  0  0  0  0  0
   51.7731  100.6035   30.3294 C   0  0  0  0  0  0
   51.7411  102.0061   30.3456 C   0  0  0  0  0  0
   51.2641  102.6801   29.2206 C   0  0  0  0  0  0
   50.8573  101.9671   28.0972 C   0  0  0  0  0  0
   50.9030  100.5668   28.0651 C   0  0  0  0  0  0
   50.4621   99.8970   26.7936 C   0  0  0  0  0  0
   49.8777  100.4950   25.6860 C   0  0  0  0  0  0
   49.6460   99.4989   24.7872 N   0  0  0  0  0  0
   50.0439   98.3037   25.2125 N   0  0  0  0  0  0
   50.5430   98.5445   26.4014 C   0  0  0  0  0  0
   52.1905  102.7840   31.5582 C   0  0  0  0  0  0
   51.6463  103.8456   31.8627 O   0  0  0  0  0  0
   53.1989  102.2342   32.2500 N   0  0  0  0  0  0
   53.8159  102.7577   33.4696 C   0  0  0  0  0  0
   53.6168  101.8517   34.7221 C   0  0  2  0  0  0
   54.1233  100.4759   34.5102 N   0  0  0  0  0  0
   55.5110  100.3784   34.0606 C   0  0  0  0  0  0
   55.9020   98.9100   34.2350 C   0  0  0  0  0  0
   54.9692   98.4117   35.3396 C   0  0  0  0  0  0
   54.1507   99.6497   35.7163 C   0  0  0  0  0  0
   52.1438  101.8778   35.1758 C   0  0  0  0  0  0
   51.2103  100.9315   34.7325 C   0  0  0  0  0  0
   49.8841  101.0001   35.1536 C   0  0  0  0  0  0
   49.4748  102.0340   35.9917 C   0  0  0  0  0  0
   50.3840  103.0016   36.4114 C   0  0  0  0  0  0
   51.7135  102.9212   36.0029 C   0  0  0  0  0  0
   51.3827   96.7007   30.2485 H   0  0  0  0  0  0
   52.5957   97.8817   30.7284 H   0  0  0  0  0  0
   50.8963   98.0728   31.2240 H   0  0  0  0  0  0
   52.1168  100.0839   31.2131 H   0  0  0  0  0  0
   51.2266  103.7628   29.1991 H   0  0  0  0  0  0
   50.5110  102.5299   27.2441 H   0  0  0  0  0  0
   49.6054  101.5144   25.4604 H   0  0  0  0  0  0
   49.2247   99.6354   23.8719 H   0  0  0  0  0  0
   50.9648   97.7346   26.9804 H   0  0  0  0  0  0
   53.6325  101.4081   31.8643 H   0  0  0  0  0  0
   53.4856  103.7757   33.6873 H   0  0  0  0  0  0
   54.8787  102.8644   33.2555 H   0  0  0  0  0  0
   54.2055  102.2942   35.5275 H   0  0  0  0  0  0
   55.5839  100.6891   33.0183 H   0  0  0  0  0  0
   56.1717  101.0525   34.6100 H   0  0  0  0  0  0
   55.7613   98.3509   33.3079 H   0  0  0  0  0  0
   56.9521   98.8165   34.5150 H   0  0  0  0  0  0
   55.5243   98.0285   36.1969 H   0  0  0  0  0  0
   54.3234   97.6072   34.9829 H   0  0  0  0  0  0
   54.5625  100.1820   36.5767 H   0  0  0  0  0  0
   53.1322   99.3911   36.0062 H   0  0  0  0  0  0
   51.5170  100.1367   34.0668 H   0  0  0  0  0  0
   49.1716  100.2564   34.8195 H   0  0  0  0  0  0
   48.4447  102.0866   36.3202 H   0  0  0  0  0  0
   50.0602  103.8105   37.0529 H   0  0  0  0  0  0
   52.4119  103.6780   36.3320 H   0  0  0  0  0  0
  1  2  1  0  0  0
  1 30  1  0  0  0
  1 31  1  0  0  0
  1 32  1  0  0  0
  2  3  1  0  0  0
  3  4  2  0  0  0
  3  8  1  0  0  0
  4  5  1  0  0  0
  4 33  1  0  0  0
  5  6  2  0  0  0
  5 14  1  0  0  0
  6  7  1  0  0  0
  6 34  1  0  0  0
  7  8  2  0  0  0
  7 35  1  0  0  0
  8  9  1  0  0  0
  9 10  2  0  0  0
  9 13  1  0  0  0
 10 11  1  0  0  0
 10 36  1  0  0  0
 11 12  1  0  0  0
 11 37  1  0  0  0
 12 13  2  0  0  0
 13 38  1  0  0  0
 14 15  2  0  0  0
 14 16  1  0  0  0
 16 17  1  0  0  0
 16 39  1  0  0  0
 17 18  1  0  0  0
 17 40  1  0  0  0
 17 41  1  0  0  0
 18 19  1  0  0  0
 18 24  1  0  0  0
 18 42  1  0  0  0
 19 20  1  0  0  0
 19 23  1  0  0  0
 20 21  1  0  0  0
 20 43  1  0  0  0
 20 44  1  0  0  0
 21 22  1  0  0  0
 21 45  1  0  0  0
 21 46  1  0  0  0
 22 23  1  0  0  0
 22 47  1  0  0  0
 22 48  1  0  0  0
 23 49  1  0  0  0
 23 50  1  0  0  0
 24 25  2  0  0  0
 24 29  1  0  0  0
 25 26  1  0  0  0
 25 51  1  0  0  0
 26 27  2  0  0  0
 26 52  1  0  0  0
 27 28  1  0  0  0
 27 53  1  0  0  0
 28 29  2  0  0  0
 28 54  1  0  0  0
 29 55  1  0  0  0
M  END
> <s_m_entry_id>
28046

> <s_m_entry_name>
dock_pv.207

> <s_m_Source_Path>
/home/csk/Desktop/cluster/DUD-E-result/rock1

> <s_m_Source_File>
dock_pv.maegz

> <i_m_Source_File_Index>
207

> <chembl_id>
CHEMBL3947236

> <chembl_pref_name>
None

> <i_lp_mmshare_version>
53161

> <r_lp_tautomer_probability>
0.5

> <s_lp_Force_Field>
OPLS_2005

> <r_lp_Energy>
43.337363

> <b_lp_Chiralities_Consistent>
1

> <s_lp_Variant>
CHEMBL3231_lig700-1

> <s_i_glide_gridfile>
glide-grid_2etr

> <i_i_glide_lignum>
996

> <i_i_glide_rotatable_bonds>
8

> <r_i_docking_score>
-8.0192536878438

> <r_i_glide_ligand_efficiency>
-0.276525989235993

> <r_i_glide_ligand_efficiency_sa>
-0.849575448515574

> <r_i_glide_ligand_efficiency_ln>
-1.83620574378829

> <r_i_glide_gscore>
-8.0192536878438

> <r_i_glide_lipo>
-2.92077037887692

> <r_i_glide_hbond>
-0.670254607922801

> <r_i_glide_metal>
0

> <r_i_glide_rewards>
-1.71613268053785

> <r_i_glide_evdw>
-42.7936248779297

> <r_i_glide_ecoul>
-7.58820533752441

> <r_i_glide_erotb>
0.626824239267567

> <r_i_glide_esite>
-0.0610082152486496

> <r_i_glide_emodel>
-73.2527303073422

> <r_i_glide_energy>
-50.3818302154541

> <r_i_glide_einternal>
4.72760009765625

> <i_i_glide_confnum>
11

> <i_i_glide_posenum>
390

> <r_i_glide_eff_state_penalty>
0

> <s_user_duplicate_titles>
CHEMBL3231_lig700

> <i_f3d_flags>
0

> <s_m_subgroup_title>
dock_pv

> <s_m_subgroupid>
dock_pv

> <b_m_subgroup_collapsed>
1

$$$$
CHEMBL3231_lig1140
                    3D
 Schrodinger Suite 2021-1.
 49 52  0  0  1  0            999 V2000
   53.9871  101.2842   33.9036 O   0  0  0  0  0  0
   52.5548   99.0185   36.4103 O   0  0  0  0  0  0
   48.9405  101.3052   35.2112 N   0  0  0  0  0  0
   53.8728  103.5028   31.0057 N   0  0  0  0  0  0
   49.9955   98.3044   25.2113 N   0  0  0  0  0  0
   50.2371  102.8350   36.2225 C   0  0  0  0  0  0
   51.0303  101.6493   36.0116 C   0  0  0  0  0  0
   48.9299  102.5872   35.6992 C   0  0  0  0  0  0
   50.1836  100.7568   35.3786 C   0  0  0  0  0  0
   50.4936  104.0881   36.8056 C   0  0  0  0  0  0
   52.4829  101.4650   36.4387 C   0  0  0  0  0  0
   47.9085  103.5374   35.7382 C   0  0  0  0  0  0
   53.2102  100.1862   35.9375 C   0  0  2  0  0  0
   49.4718  105.0357   36.8581 C   0  0  0  0  0  0
   48.2090  104.7577   36.3399 C   0  0  0  0  0  0
   53.7292  101.6853   32.6080 C   0  0  0  0  0  0
   52.8366  101.4075   30.3582 C   0  0  0  0  0  0
   53.3504  100.1041   34.4011 C   0  0  0  0  0  0
   53.1009  100.8928   31.6334 C   0  0  0  0  0  0
   54.1084  102.9779   32.2346 C   0  0  0  0  0  0
   53.2463  102.7219   30.0937 C   0  0  0  0  0  0
   52.1552  100.5519   29.3703 C   0  0  0  0  0  0
   51.2438   99.9564   27.1091 C   0  0  0  0  0  0
   51.9051  100.8479   28.0782 C   0  0  0  0  0  0
   50.6919  100.4995   25.9421 C   0  0  0  0  0  0
   51.1487   98.5703   27.3124 C   0  0  0  0  0  0
   50.0751   99.6451   25.0262 C   0  0  0  0  0  0
   50.5185   97.7859   26.3471 C   0  0  0  0  0  0
   52.4092   99.1027   37.3595 H   0  0  0  0  0  0
   48.1749  100.8087   34.7810 H   0  0  0  0  0  0
   50.3638   99.7471   35.0465 H   0  0  0  0  0  0
   51.4711  104.3156   37.2071 H   0  0  0  0  0  0
   52.5454  101.4954   37.5274 H   0  0  0  0  0  0
   53.0581  102.3273   36.1002 H   0  0  0  0  0  0
   46.9190  103.3365   35.3479 H   0  0  0  0  0  0
   54.2172  100.1876   36.3608 H   0  0  0  0  0  0
   49.6650  106.0014   37.3032 H   0  0  0  0  0  0
   47.4342  105.5035   36.4079 H   0  0  0  0  0  0
   52.3559   99.9784   33.9738 H   0  0  0  0  0  0
   53.9382   99.2284   34.1176 H   0  0  0  0  0  0
   52.8167   99.8740   31.8523 H   0  0  0  0  0  0
   54.6113  103.6245   32.9393 H   0  0  0  0  0  0
   53.0897  103.1878   29.1323 H   0  0  0  0  0  0
   51.8271   99.5939   29.7475 H   0  0  0  0  0  0
   52.2185  101.8039   27.6840 H   0  0  0  0  0  0
   50.7404  101.5597   25.7453 H   0  0  0  0  0  0
   51.5688   98.0956   28.1849 H   0  0  0  0  0  0
   49.6435  100.0358   24.1145 H   0  0  0  0  0  0
   50.4430   96.7144   26.4642 H   0  0  0  0  0  0
  1 16  1  0  0  0
  1 18  1  0  0  0
  2 13  1  0  0  0
  2 29  1  0  0  0
  3  8  1  0  0  0
  3  9  1  0  0  0
  3 30  1  0  0  0
  4 20  1  0  0  0
  4 21  2  0  0  0
  5 27  2  0  0  0
  5 28  1  0  0  0
  6  7  1  0  0  0
  6  8  1  0  0  0
  6 10  2  0  0  0
  7  9  2  0  0  0
  7 11  1  0  0  0
  8 12  2  0  0  0
  9 31  1  0  0  0
 10 14  1  0  0  0
 10 32  1  0  0  0
 11 13  1  0  0  0
 11 33  1  0  0  0
 11 34  1  0  0  0
 12 15  1  0  0  0
 12 35  1  0  0  0
 13 18  1  0  0  0
 13 36  1  0  0  0
 14 15  2  0  0  0
 14 37  1  0  0  0
 15 38  1  0  0  0
 16 19  1  0  0  0
 16 20  2  0  0  0
 17 19  2  0  0  0
 17 21  1  0  0  0
 17 22  1  0  0  0
 18 39  1  0  0  0
 18 40  1  0  0  0
 19 41  1  0  0  0
 20 42  1  0  0  0
 21 43  1  0  0  0
 22 24  2  3  0  0
 22 44  1  0  0  0
 23 24  1  0  0  0
 23 25  2  0  0  0
 23 26  1  0  0  0
 24 45  1  0  0  0
 25 27  1  0  0  0
 25 46  1  0  0  0
 26 28  2  0  0  0
 26 47  1  0  0  0
 27 48  1  0  0  0
 28 49  1  0  0  0
M  END
> <s_m_entry_id>
28048

> <s_m_entry_name>
dock_pv.209

> <s_m_Source_Path>
/home/csk/Desktop/cluster/DUD-E-result/rock1

> <s_m_Source_File>
dock_pv.maegz

> <i_m_Source_File_Index>
209

> <chembl_id>
CHEMBL1993584

> <chembl_pref_name>
None

> <i_lp_mmshare_version>
53161

> <r_lp_tautomer_probability>
1

> <s_lp_Force_Field>
OPLS_2005

> <r_lp_Energy>
21.142293

> <b_lp_Chiralities_Consistent>
1

> <s_lp_Variant>
CHEMBL3231_lig1140-1

> <s_i_glide_gridfile>
glide-grid_2etr

> <i_i_glide_lignum>
1580

> <i_i_glide_rotatable_bonds>
8

> <r_i_docking_score>
-8.01372281304003

> <r_i_glide_ligand_efficiency>
-0.286204386180001

> <r_i_glide_ligand_efficiency_sa>
-0.869085081811312

> <r_i_glide_ligand_efficiency_ln>
-1.84980251837556

> <r_i_glide_gscore>
-8.01372281304003

> <r_i_glide_lipo>
-3.95849728614463

> <r_i_glide_hbond>
-0.39793949487456

> <r_i_glide_metal>
0

> <r_i_glide_rewards>
-1.7782734712033

> <r_i_glide_evdw>
-47.7400932312012

> <r_i_glide_ecoul>
-2.21003723144531

> <r_i_glide_erotb>
0.839497685459311

> <r_i_glide_esite>
0

> <r_i_glide_emodel>
-72.7670452434695

> <r_i_glide_energy>
-49.9501304626465

> <r_i_glide_einternal>
2.32505822181702

> <i_i_glide_confnum>
14

> <i_i_glide_posenum>
279

> <r_i_glide_eff_state_penalty>
0

> <s_user_duplicate_titles>
CHEMBL3231_lig1140

> <i_f3d_flags>
0

> <s_m_subgroup_title>
dock_pv

> <s_m_subgroupid>
dock_pv

> <b_m_subgroup_collapsed>
1

$$$$
CHEMBL3231_lig51
                    3D
 Schrodinger Suite 2021-1.
 47 50  0  0  1  0            999 V2000
   52.7023  101.6097   32.9273 C   0  0  2  0  0  0
   52.6513  102.3395   31.5780 C   0  0  0  0  0  0
   53.6814  103.1520   31.2509 C   0  0  0  0  0  0
   54.6624  103.5027   32.1280 N   0  0  0  0  0  0
   54.6916  103.2240   33.4498 C   0  0  0  0  0  0
   53.3982  102.5376   33.9761 C   0  0  0  0  0  0
   55.6185  103.5766   34.1748 O   0  0  0  0  0  0
   53.8825  103.7783   29.8773 C   0  0  0  0  0  0
   51.6438  101.9732   30.6124 C   0  0  0  0  0  0
   50.7043  102.7173   30.3194 O   0  0  0  0  0  0
   51.9405  100.7939   30.0380 N   0  0  0  0  0  0
   51.3872  100.1960   28.9022 C   0  0  0  0  0  0
   51.5441   98.8127   28.8017 C   0  0  0  0  0  0
   51.0961   98.1088   27.6857 C   0  0  0  0  0  0
   50.7868  100.9268   27.8693 C   0  0  0  0  0  0
   50.3605  100.2402   26.7250 C   0  0  0  0  0  0
   50.5141   98.8211   26.6323 C   0  0  0  0  0  0
   50.0459   98.3195   25.4482 N   0  0  0  0  0  0
   49.6430   99.4245   24.8027 N   0  0  0  0  0  0
   49.7585  100.5943   25.4980 C   0  0  0  0  0  0
   53.3300  100.2051   32.8493 C   0  0  0  0  0  0
   52.8343   99.1767   33.6587 C   0  0  0  0  0  0
   53.3429   97.8825   33.5483 C   0  0  0  0  0  0
   54.3545   97.5996   32.6266 C   0  0  0  0  0  0
   54.8539   98.6280   31.8275 C   0  0  0  0  0  0
   54.3672   99.9221   31.9502 C   0  0  0  0  0  0
   54.9261   96.1865   32.4930 C   0  0  0  0  0  0
   56.0068   96.0787   33.2643 F   0  0  0  0  0  0
   55.2746   95.9256   31.2314 F   0  0  0  0  0  0
   54.0435   95.2624   32.8712 F   0  0  0  0  0  0
   51.6745  101.4352   33.2615 H   0  0  0  0  0  0
   55.4377  104.0692   31.8023 H   0  0  0  0  0  0
   52.7548  103.3976   34.1635 H   0  0  0  0  0  0
   53.5815  102.0429   34.9296 H   0  0  0  0  0  0
   54.4424  103.0905   29.2394 H   0  0  0  0  0  0
   52.9415  104.0065   29.3718 H   0  0  0  0  0  0
   54.4421  104.7035   29.9359 H   0  0  0  0  0  0
   52.6429  100.2463   30.5137 H   0  0  0  0  0  0
   52.0237   98.2631   29.6019 H   0  0  0  0  0  0
   51.2233   97.0404   27.6303 H   0  0  0  0  0  0
   50.6867  101.9987   27.9191 H   0  0  0  0  0  0
   49.2435   99.3782   23.8706 H   0  0  0  0  0  0
   49.4116  101.5152   25.0640 H   0  0  0  0  0  0
   52.0432   99.3733   34.3649 H   0  0  0  0  0  0
   52.9462   97.0986   34.1768 H   0  0  0  0  0  0
   55.6417   98.4310   31.1149 H   0  0  0  0  0  0
   54.7984  100.6931   31.3234 H   0  0  0  0  0  0
  1  6  1  0  0  0
  1 21  1  0  0  0
  1  2  1  0  0  0
  1 31  1  0  0  0
  2  9  1  0  0  0
  2  3  2  0  0  0
  3  8  1  0  0  0
  3  4  1  0  0  0
  4  5  1  0  0  0
  4 32  1  0  0  0
  5  7  2  0  0  0
  5  6  1  0  0  0
  6 33  1  0  0  0
  6 34  1  0  0  0
  8 35  1  0  0  0
  8 36  1  0  0  0
  8 37  1  0  0  0
  9 10  2  0  0  0
  9 11  1  0  0  0
 11 38  1  0  0  0
 11 12  1  0  0  0
 12 13  1  0  0  0
 12 15  2  0  0  0
 13 14  2  0  0  0
 13 39  1  0  0  0
 14 17  1  0  0  0
 14 40  1  0  0  0
 15 41  1  0  0  0
 15 16  1  0  0  0
 16 17  1  0  0  0
 16 20  2  0  0  0
 17 18  2  0  0  0
 18 19  1  0  0  0
 19 42  1  0  0  0
 19 20  1  0  0  0
 20 43  1  0  0  0
 21 22  2  0  0  0
 21 26  1  0  0  0
 22 23  1  0  0  0
 22 44  1  0  0  0
 23 24  2  0  0  0
 23 45  1  0  0  0
 24 25  1  0  0  0
 24 27  1  0  0  0
 25 26  2  0  0  0
 25 46  1  0  0  0
 26 47  1  0  0  0
 27 28  1  0  0  0
 27 29  1  0  0  0
 27 30  1  0  0  0
M  END
> <s_m_entry_id>
28049

> <s_m_entry_name>
dock_pv.210

> <s_m_Source_Path>
/home/csk/Desktop/cluster/DUD-E-result/rock1

> <s_m_Source_File>
dock_pv.maegz

> <i_m_Source_File_Index>
210

> <chembl_id>
CHEMBL218719

> <chembl_pref_name>
None

> <i_lp_mmshare_version>
53161

> <r_lp_tautomer_probability>
0.019607843137214

> <s_lp_Force_Field>
OPLS_2005

> <r_lp_Energy>
47.720563

> <b_lp_Chiralities_Consistent>
1

> <s_lp_Variant>
CHEMBL3231_lig51-3

> <s_i_glide_gridfile>
glide-grid_2etr

> <i_i_glide_lignum>
77

> <i_i_glide_rotatable_bonds>
5

> <r_i_docking_score>
-8.01221639628714

> <r_i_glide_ligand_efficiency>
-0.267073879876238

> <r_i_glide_ligand_efficiency_sa>
-0.829860640101823

> <r_i_glide_ligand_efficiency_ln>
-1.82046286532626

> <r_i_glide_gscore>
-8.01221639628714

> <r_i_glide_lipo>
-1.9291759065525

> <r_i_glide_hbond>
-0.653155834880844

> <r_i_glide_metal>
0

> <r_i_glide_rewards>
-1.86374788393484

> <r_i_glide_evdw>
-45.0421600341797

> <r_i_glide_ecoul>
-9.82973480224609

> <r_i_glide_erotb>
0.321840230170192

> <r_i_glide_esite>
-0.161408779043246

> <r_i_glide_emodel>
-76.8937073333505

> <r_i_glide_energy>
-54.8718948364258

> <r_i_glide_einternal>
6.5213680267334

> <i_i_glide_confnum>
35

> <i_i_glide_posenum>
157

> <r_i_glide_eff_state_penalty>
0

> <s_user_duplicate_titles>
CHEMBL3231_lig51,CHEMBL3231_lig51,365453

> <i_f3d_flags>
0

> <s_m_subgroup_title>
dock_pv

> <s_m_subgroupid>
dock_pv

> <b_m_subgroup_collapsed>
1

$$$$
CHEMBL3231_lig856
                    3D
 Schrodinger Suite 2021-1.
 43 45  0  0  1  0            999 V2000
   52.6822   98.1323   31.1993 C   0  0  0  0  0  0
   52.4806   99.5355   31.3642 O   0  0  0  0  0  0
   51.9391  100.2990   30.3384 C   0  0  0  0  0  0
   51.6411   99.7392   29.0827 C   0  0  0  0  0  0
   51.0532  100.4956   28.0680 C   0  0  0  0  0  0
   50.8365  101.8523   28.2831 C   0  0  0  0  0  0
   51.1281  102.4356   29.5074 C   0  0  0  0  0  0
   50.8423  103.7527   29.6403 F   0  0  0  0  0  0
   51.6543  101.6702   30.5673 C   0  0  0  0  0  0
   51.8219  102.3199   31.9315 C   0  0  0  0  0  0
   51.9445  103.5387   32.0468 O   0  0  0  0  0  0
   51.7545  101.5044   32.9986 N   0  0  0  0  0  0
   51.8578  101.8880   34.4069 C   0  0  2  0  0  0
   51.9979  100.6273   35.2827 C   0  0  0  0  0  0
   50.7265  102.8125   34.8789 C   0  0  0  0  0  0
   50.9797  104.1746   35.0903 C   0  0  0  0  0  0
   49.9711  105.0138   35.5604 C   0  0  0  0  0  0
   48.7047  104.4912   35.8204 C   0  0  0  0  0  0
   48.4400  103.1387   35.6116 C   0  0  0  0  0  0
   49.4495  102.2998   35.1453 C   0  0  0  0  0  0
   50.5971   99.8744   26.7924 C   0  0  0  0  0  0
   50.0424  100.5091   25.6900 C   0  0  0  0  0  0
   49.7170   99.5207   24.8106 N   0  0  0  0  0  0
   50.0430   98.3028   25.2434 N   0  0  0  0  0  0
   50.5699   98.5154   26.4262 C   0  0  0  0  0  0
   53.0718   97.7158   32.1277 H   0  0  0  0  0  0
   51.7464   97.6157   30.9778 H   0  0  0  0  0  0
   53.4079   97.9115   30.4165 H   0  0  0  0  0  0
   51.8264   98.6938   28.8948 H   0  0  0  0  0  0
   50.3975  102.4696   27.5143 H   0  0  0  0  0  0
   51.9065  100.5257   32.7901 H   0  0  0  0  0  0
   52.8024  102.4297   34.5136 H   0  0  0  0  0  0
   52.1126  100.8871   36.3356 H   0  0  0  0  0  0
   51.1341   99.9681   35.1950 H   0  0  0  0  0  0
   52.8750  100.0468   34.9937 H   0  0  0  0  0  0
   51.9597  104.5873   34.8870 H   0  0  0  0  0  0
   50.1759  106.0617   35.7222 H   0  0  0  0  0  0
   47.9167  105.1364   36.1835 H   0  0  0  0  0  0
   47.4538  102.7435   35.8113 H   0  0  0  0  0  0
   49.2324  101.2518   34.9882 H   0  0  0  0  0  0
   49.8294  101.5443   25.4668 H   0  0  0  0  0  0
   49.2806   99.6752   23.9066 H   0  0  0  0  0  0
   50.9151   97.6883   27.0300 H   0  0  0  0  0  0
  1  2  1  0  0  0
  1 26  1  0  0  0
  1 27  1  0  0  0
  1 28  1  0  0  0
  2  3  1  0  0  0
  3  4  2  0  0  0
  3  9  1  0  0  0
  4  5  1  0  0  0
  4 29  1  0  0  0
  5  6  2  0  0  0
  5 21  1  0  0  0
  6  7  1  0  0  0
  6 30  1  0  0  0
  7  8  1  0  0  0
  7  9  2  0  0  0
  9 10  1  0  0  0
 10 11  2  0  0  0
 10 12  1  0  0  0
 12 13  1  0  0  0
 12 31  1  0  0  0
 13 14  1  0  0  0
 13 15  1  0  0  0
 13 32  1  0  0  0
 14 33  1  0  0  0
 14 34  1  0  0  0
 14 35  1  0  0  0
 15 16  2  0  0  0
 15 20  1  0  0  0
 16 17  1  0  0  0
 16 36  1  0  0  0
 17 18  2  0  0  0
 17 37  1  0  0  0
 18 19  1  0  0  0
 18 38  1  0  0  0
 19 20  2  0  0  0
 19 39  1  0  0  0
 20 40  1  0  0  0
 21 22  2  0  0  0
 21 25  1  0  0  0
 22 23  1  0  0  0
 22 41  1  0  0  0
 23 24  1  0  0  0
 23 42  1  0  0  0
 24 25  2  0  0  0
 25 43  1  0  0  0
M  END
> <s_m_entry_id>
28050

> <s_m_entry_name>
dock_pv.211

> <s_m_Source_Path>
/home/csk/Desktop/cluster/DUD-E-result/rock1

> <s_m_Source_File>
dock_pv.maegz

> <i_m_Source_File_Index>
211

> <chembl_id>
CHEMBL4112130

> <chembl_pref_name>
None

> <i_lp_mmshare_version>
53161

> <r_lp_tautomer_probability>
0.5

> <s_lp_Force_Field>
OPLS_2005

> <r_lp_Energy>
23.702597

> <b_lp_Chiralities_Consistent>
1

> <s_lp_Variant>
CHEMBL3231_lig856-1

> <s_i_glide_gridfile>
glide-grid_2etr

> <i_i_glide_lignum>
1209

> <i_i_glide_rotatable_bonds>
6

> <r_i_docking_score>
-8.01123060843319

> <r_i_glide_ligand_efficiency>
-0.320449224337328

> <r_i_glide_ligand_efficiency_sa>
-0.936999215153539

> <r_i_glide_ligand_efficiency_ln>
-1.89890173140696

> <r_i_glide_gscore>
-8.01123060843319

> <r_i_glide_lipo>
-2.83725222773641

> <r_i_glide_hbond>
-0.526827401380198

> <r_i_glide_metal>
0

> <r_i_glide_rewards>
-2.07433239662915

> <r_i_glide_evdw>
-42.2424583435059

> <r_i_glide_ecoul>
-5.65499258041382

> <r_i_glide_erotb>
0.460081698707408

> <r_i_glide_esite>
-0.0725284771574814

> <r_i_glide_emodel>
-69.9130645179231

> <r_i_glide_energy>
-47.8974509239197

> <r_i_glide_einternal>
2.69428753852844

> <i_i_glide_confnum>
13

> <i_i_glide_posenum>
263

> <r_i_glide_eff_state_penalty>
0

> <s_user_duplicate_titles>
CHEMBL3231_lig856

> <i_f3d_flags>
0

> <s_m_subgroup_title>
dock_pv

> <s_m_subgroupid>
dock_pv

> <b_m_subgroup_collapsed>
1

$$$$
CHEMBL3231_lig596
                    3D
 Schrodinger Suite 2021-1.
 44 46  0  0  1  0            999 V2000
   48.8437  100.9740   35.3541 C   0  0  0  0  0  0
   50.0612  101.5848   34.9559 O   0  0  0  0  0  0
   50.2010  102.9551   35.0885 C   0  0  0  0  0  0
   49.2025  103.7950   35.6207 C   0  0  0  0  0  0
   49.4084  105.1702   35.7290 C   0  0  0  0  0  0
   50.6127  105.7273   35.3073 C   0  0  0  0  0  0
   51.6108  104.9086   34.7804 C   0  0  0  0  0  0
   51.4110  103.5274   34.6597 C   0  0  0  0  0  0
   52.5428  102.6603   34.0949 C   0  0  0  0  0  0
   52.2725  102.0261   32.7968 N   0  0  0  0  0  0
   51.9017  102.6851   31.6844 C   0  0  0  0  0  0
   51.7323  103.9028   31.6701 O   0  0  0  0  0  0
   51.6451  101.8824   30.4287 C   0  0  0  0  0  0
   51.3551  102.5596   29.2421 C   0  0  0  0  0  0
   51.0322  101.8634   28.0887 C   0  0  0  0  0  0
   50.9849  100.4665   28.0775 C   0  0  0  0  0  0
   51.3096   99.7560   29.2508 C   0  0  0  0  0  0
   51.2428   98.3730   29.2217 O   0  0  0  0  0  0
   51.4190   97.6176   30.4159 C   0  0  0  0  0  0
   51.6493  100.4774   30.4107 C   0  0  0  0  0  0
   50.5290   99.8228   26.8021 C   0  0  0  0  0  0
   49.9281  100.4492   25.7152 C   0  0  0  0  0  0
   49.6529   99.4703   24.8107 N   0  0  0  0  0  0
   50.0431   98.2632   25.2130 N   0  0  0  0  0  0
   50.5703   98.4746   26.3962 C   0  0  0  0  0  0
   48.8821   99.9049   35.1433 H   0  0  0  0  0  0
   48.6712  101.1012   36.4202 H   0  0  0  0  0  0
   47.9942  101.3894   34.8112 H   0  0  0  0  0  0
   48.2604  103.3963   35.9653 H   0  0  0  0  0  0
   48.6354  105.8041   36.1403 H   0  0  0  0  0  0
   50.7773  106.7935   35.3894 H   0  0  0  0  0  0
   52.5365  105.3602   34.4475 H   0  0  0  0  0  0
   53.4909  103.2031   34.0671 H   0  0  0  0  0  0
   52.7057  101.8406   34.7961 H   0  0  0  0  0  0
   52.5130  101.0507   32.7147 H   0  0  0  0  0  0
   51.3600  103.6398   29.1976 H   0  0  0  0  0  0
   50.8008  102.4328   27.2031 H   0  0  0  0  0  0
   51.2428   96.5626   30.2052 H   0  0  0  0  0  0
   52.4350   97.7135   30.8024 H   0  0  0  0  0  0
   50.7098   97.9157   31.1903 H   0  0  0  0  0  0
   51.8781   99.9418   31.3181 H   0  0  0  0  0  0
   49.6571  101.4759   25.5123 H   0  0  0  0  0  0
   49.2193   99.6239   23.9045 H   0  0  0  0  0  0
   50.9778   97.6517   26.9652 H   0  0  0  0  0  0
  1  2  1  0  0  0
  1 26  1  0  0  0
  1 27  1  0  0  0
  1 28  1  0  0  0
  2  3  1  0  0  0
  3  4  2  0  0  0
  3  8  1  0  0  0
  4  5  1  0  0  0
  4 29  1  0  0  0
  5  6  2  0  0  0
  5 30  1  0  0  0
  6  7  1  0  0  0
  6 31  1  0  0  0
  7  8  2  0  0  0
  7 32  1  0  0  0
  8  9  1  0  0  0
  9 10  1  0  0  0
  9 33  1  0  0  0
  9 34  1  0  0  0
 10 11  1  0  0  0
 10 35  1  0  0  0
 11 12  2  0  0  0
 11 13  1  0  0  0
 13 14  2  0  0  0
 13 20  1  0  0  0
 14 15  1  0  0  0
 14 36  1  0  0  0
 15 16  2  0  0  0
 15 37  1  0  0  0
 16 17  1  0  0  0
 16 21  1  0  0  0
 17 18  1  0  0  0
 17 20  2  0  0  0
 18 19  1  0  0  0
 19 38  1  0  0  0
 19 39  1  0  0  0
 19 40  1  0  0  0
 20 41  1  0  0  0
 21 22  2  0  0  0
 21 25  1  0  0  0
 22 23  1  0  0  0
 22 42  1  0  0  0
 23 24  1  0  0  0
 23 43  1  0  0  0
 24 25  2  0  0  0
 25 44  1  0  0  0
M  END
> <s_m_entry_id>
28051

> <s_m_entry_name>
dock_pv.212

> <s_m_Source_Path>
/home/csk/Desktop/cluster/DUD-E-result/rock1

> <s_m_Source_File>
dock_pv.maegz

> <i_m_Source_File_Index>
212

> <chembl_id>
CHEMBL3951573

> <chembl_pref_name>
None

> <i_lp_mmshare_version>
53161

> <r_lp_tautomer_probability>
0.5

> <s_lp_Force_Field>
OPLS_2005

> <r_lp_Energy>
24.212575

> <b_lp_Chiralities_Consistent>
1

> <s_lp_Variant>
CHEMBL3231_lig596-1

> <s_i_glide_gridfile>
glide-grid_2etr

> <i_i_glide_lignum>
882

> <i_i_glide_rotatable_bonds>
7

> <r_i_docking_score>
-8.0018584872907

> <r_i_glide_ligand_efficiency>
-0.320074339491628

> <r_i_glide_ligand_efficiency_sa>
-0.935903045216102

> <r_i_glide_ligand_efficiency_ln>
-1.89668025783638

> <r_i_glide_gscore>
-8.0018584872907

> <r_i_glide_lipo>
-2.58814050924023

> <r_i_glide_hbond>
-0.691029656323975

> <r_i_glide_metal>
0

> <r_i_glide_rewards>
-2.08706551359801

> <r_i_glide_evdw>
-42.083080291748

> <r_i_glide_ecoul>
-7.04678583145142

> <r_i_glide_erotb>
0.581129694408677

> <r_i_glide_esite>
-0.0555806132320438

> <r_i_glide_emodel>
-69.8537652850977

> <r_i_glide_energy>
-49.1298661231995

> <r_i_glide_einternal>
4.22661828994751

> <i_i_glide_confnum>
93

> <i_i_glide_posenum>
207

> <r_i_glide_eff_state_penalty>
0

> <s_user_duplicate_titles>
CHEMBL3231_lig596

> <i_f3d_flags>
0

> <s_m_subgroup_title>
dock_pv

> <s_m_subgroupid>
dock_pv

> <b_m_subgroup_collapsed>
1

$$$$
CHEMBL3231_lig580
                    3D
 Schrodinger Suite 2021-1.
 44 46  0  0  1  0            999 V2000
   51.4539   97.6347   30.3972 C   0  0  0  0  0  0
   51.2781   98.3899   29.2008 O   0  0  0  0  0  0
   51.4012   99.7698   29.2218 C   0  0  0  0  0  0
   51.8172  100.4726   30.3675 C   0  0  0  0  0  0
   51.8512  101.8754   30.3947 C   0  0  0  0  0  0
   51.5095  102.5766   29.2363 C   0  0  0  0  0  0
   51.1149  101.8961   28.0916 C   0  0  0  0  0  0
   51.0472  100.4973   28.0657 C   0  0  0  0  0  0
   50.5545   99.8617   26.7973 C   0  0  0  0  0  0
   49.9332  100.4859   25.7208 C   0  0  0  0  0  0
   49.6524   99.5093   24.8111 N   0  0  0  0  0  0
   50.0432   98.3029   25.2108 N   0  0  0  0  0  0
   50.5929   98.5147   26.3850 C   0  0  0  0  0  0
   52.1571  102.6330   31.6630 C   0  0  0  0  0  0
   51.6430  103.7338   31.8660 O   0  0  0  0  0  0
   52.9706  102.0274   32.5467 N   0  0  0  0  0  0
   53.2457  102.5095   33.9091 C   0  0  2  0  0  0
   54.4210  101.7220   34.5344 C   0  0  0  0  0  0
   54.9842  102.3966   35.6441 O   0  0  0  0  0  0
   52.0063  102.5483   34.8257 C   0  0  0  0  0  0
   51.8216  103.6283   35.6955 C   0  0  0  0  0  0
   50.6783  103.7074   36.4878 C   0  0  0  0  0  0
   49.7135  102.7027   36.4108 C   0  0  0  0  0  0
   49.8876  101.6167   35.5546 C   0  0  0  0  0  0
   51.0303  101.5413   34.7605 C   0  0  0  0  0  0
   51.2423   96.5857   30.1940 H   0  0  0  0  0  0
   52.4778   97.6975   30.7667 H   0  0  0  0  0  0
   50.7669   97.9569   31.1809 H   0  0  0  0  0  0
   52.0696   99.9276   31.2637 H   0  0  0  0  0  0
   51.5337  103.6579   29.2195 H   0  0  0  0  0  0
   50.8430  102.4775   27.2250 H   0  0  0  0  0  0
   49.6560  101.5107   25.5269 H   0  0  0  0  0  0
   49.2075   99.6640   23.9103 H   0  0  0  0  0  0
   51.0146   97.6901   26.9404 H   0  0  0  0  0  0
   53.5473  101.2713   32.2061 H   0  0  0  0  0  0
   53.6010  103.5359   33.7794 H   0  0  0  0  0  0
   54.0910  100.7326   34.8556 H   0  0  0  0  0  0
   55.2105  101.5583   33.7986 H   0  0  0  0  0  0
   55.7642  101.9130   35.9311 H   0  0  0  0  0  0
   52.5627  104.4145   35.7502 H   0  0  0  0  0  0
   50.5395  104.5449   37.1584 H   0  0  0  0  0  0
   48.8261  102.7579   37.0252 H   0  0  0  0  0  0
   49.1378  100.8386   35.5045 H   0  0  0  0  0  0
   51.1541  100.7032   34.0894 H   0  0  0  0  0  0
  1  2  1  0  0  0
  1 26  1  0  0  0
  1 27  1  0  0  0
  1 28  1  0  0  0
  2  3  1  0  0  0
  3  4  2  0  0  0
  3  8  1  0  0  0
  4  5  1  0  0  0
  4 29  1  0  0  0
  5  6  2  0  0  0
  5 14  1  0  0  0
  6  7  1  0  0  0
  6 30  1  0  0  0
  7  8  2  0  0  0
  7 31  1  0  0  0
  8  9  1  0  0  0
  9 10  2  0  0  0
  9 13  1  0  0  0
 10 11  1  0  0  0
 10 32  1  0  0  0
 11 12  1  0  0  0
 11 33  1  0  0  0
 12 13  2  0  0  0
 13 34  1  0  0  0
 14 15  2  0  0  0
 14 16  1  0  0  0
 16 17  1  0  0  0
 16 35  1  0  0  0
 17 18  1  0  0  0
 17 20  1  0  0  0
 17 36  1  0  0  0
 18 19  1  0  0  0
 18 37  1  0  0  0
 18 38  1  0  0  0
 19 39  1  0  0  0
 20 21  2  0  0  0
 20 25  1  0  0  0
 21 22  1  0  0  0
 21 40  1  0  0  0
 22 23  2  0  0  0
 22 41  1  0  0  0
 23 24  1  0  0  0
 23 42  1  0  0  0
 24 25  2  0  0  0
 24 43  1  0  0  0
 25 44  1  0  0  0
M  END
> <s_m_entry_id>
28052

> <s_m_entry_name>
dock_pv.213

> <s_m_Source_Path>
/home/csk/Desktop/cluster/DUD-E-result/rock1

> <s_m_Source_File>
dock_pv.maegz

> <i_m_Source_File_Index>
213

> <chembl_id>
CHEMBL3955445

> <chembl_pref_name>
None

> <i_lp_mmshare_version>
53161

> <r_lp_tautomer_probability>
0.5

> <s_lp_Force_Field>
OPLS_2005

> <r_lp_Energy>
24.72257

> <b_lp_Chiralities_Consistent>
1

> <s_lp_Variant>
CHEMBL3231_lig580-1

> <s_i_glide_gridfile>
glide-grid_2etr

> <i_i_glide_lignum>
860

> <i_i_glide_rotatable_bonds>
8

> <r_i_docking_score>
-8.00088865227738

> <r_i_glide_ligand_efficiency>
-0.320035546091095

> <r_i_glide_ligand_efficiency_sa>
-0.93578961262494

> <r_i_glide_ligand_efficiency_ln>
-1.89645037787462

> <r_i_glide_gscore>
-8.00088865227738

> <r_i_glide_lipo>
-2.64803710312812

> <r_i_glide_hbond>
-0.677492819833942

> <r_i_glide_metal>
0

> <r_i_glide_rewards>
-2.06203887578128

> <r_i_glide_evdw>
-40.0498199462891

> <r_i_glide_ecoul>
-7.60259962081909

> <r_i_glide_erotb>
0.581129694408677

> <r_i_glide_esite>
-0.0515686075054051

> <r_i_glide_emodel>
-71.3459745981184

> <r_i_glide_energy>
-47.6524195671082

> <r_i_glide_einternal>
2.79729080200195

> <i_i_glide_confnum>
35

> <i_i_glide_posenum>
338

> <r_i_glide_eff_state_penalty>
0

> <s_user_duplicate_titles>
CHEMBL3231_lig580

> <i_f3d_flags>
0

> <s_m_subgroup_title>
dock_pv

> <s_m_subgroupid>
dock_pv

> <b_m_subgroup_collapsed>
1

$$$$
CHEMBL3231_lig381
                    3D
 Schrodinger Suite 2021-1.
 44 46  0  0  1  0            999 V2000
   53.2747  106.5371   36.3641 O   0  0  0  0  0  0
   53.4558  105.2556   35.7895 C   0  0  0  0  0  0
   52.3568  104.9284   34.7534 C   0  0  1  0  0  0
   52.7771  103.8104   33.8888 N   0  0  0  0  0  0
   52.0718  103.3046   32.8625 C   0  0  0  0  0  0
   50.8630  103.4946   32.7122 O   0  0  0  0  0  0
   52.8399  102.5844   32.0232 N   0  0  0  0  0  0
   52.4060  101.9502   30.8472 C   0  0  0  0  0  0
   51.4529  102.5132   29.9889 C   0  0  0  0  0  0
   51.0205  101.8091   28.8702 C   0  0  0  0  0  0
   51.5423  100.5432   28.5769 C   0  0  0  0  0  0
   52.5308  100.0137   29.4182 C   0  0  0  0  0  0
   52.9693  100.7143   30.5383 C   0  0  0  0  0  0
   51.0407   99.7694   27.4040 C   0  0  0  0  0  0
   50.6469  100.4138   26.2190 C   0  0  0  0  0  0
   50.1488   99.6541   25.1600 C   0  0  0  0  0  0
   50.0430   98.3038   25.2111 N   0  0  0  0  0  0
   50.4408   97.6822   26.3472 C   0  0  0  0  0  0
   50.9295   98.3714   27.4557 C   0  0  0  0  0  0
   50.9657  104.8000   35.4038 C   0  0  0  0  0  0
   50.5048  103.5687   35.8900 C   0  0  0  0  0  0
   49.2160  103.4572   36.4063 C   0  0  0  0  0  0
   48.3879  104.5773   36.4390 C   0  0  0  0  0  0
   48.8422  105.8088   35.9756 C   0  0  0  0  0  0
   50.1285  105.9200   35.4565 C   0  0  0  0  0  0
   53.3796  107.2003   35.6761 H   0  0  0  0  0  0
   53.4509  104.5157   36.5915 H   0  0  0  0  0  0
   54.4483  105.2155   35.3367 H   0  0  0  0  0  0
   52.3091  105.7770   34.0670 H   0  0  0  0  0  0
   53.7713  103.6434   33.8693 H   0  0  0  0  0  0
   53.7826  102.3699   32.3128 H   0  0  0  0  0  0
   51.0339  103.4871   30.1877 H   0  0  0  0  0  0
   50.2607  102.2502   28.2414 H   0  0  0  0  0  0
   52.9684   99.0472   29.2134 H   0  0  0  0  0  0
   53.7271  100.2758   31.1736 H   0  0  0  0  0  0
   50.7194  101.4869   26.1159 H   0  0  0  0  0  0
   49.8339  100.1276   24.2411 H   0  0  0  0  0  0
   50.3554   96.6053   26.3661 H   0  0  0  0  0  0
   51.2083   97.8194   28.3420 H   0  0  0  0  0  0
   51.1375  102.6938   35.8485 H   0  0  0  0  0  0
   48.8542  102.5054   36.7684 H   0  0  0  0  0  0
   47.3791  104.4863   36.8161 H   0  0  0  0  0  0
   48.1957  106.6725   36.0105 H   0  0  0  0  0  0
   50.4732  106.8769   35.0888 H   0  0  0  0  0  0
  1  2  1  0  0  0
  1 26  1  0  0  0
  2  3  1  0  0  0
  2 27  1  0  0  0
  2 28  1  0  0  0
  3  4  1  0  0  0
  3 20  1  0  0  0
  3 29  1  0  0  0
  4  5  1  0  0  0
  4 30  1  0  0  0
  5  6  2  0  0  0
  5  7  1  0  0  0
  7  8  1  0  0  0
  7 31  1  0  0  0
  8  9  2  0  0  0
  8 13  1  0  0  0
  9 10  1  0  0  0
  9 32  1  0  0  0
 10 11  2  0  0  0
 10 33  1  0  0  0
 11 12  1  0  0  0
 11 14  1  0  0  0
 12 13  2  0  0  0
 12 34  1  0  0  0
 13 35  1  0  0  0
 14 15  2  0  0  0
 14 19  1  0  0  0
 15 16  1  0  0  0
 15 36  1  0  0  0
 16 17  2  0  0  0
 16 37  1  0  0  0
 17 18  1  0  0  0
 18 19  2  0  0  0
 18 38  1  0  0  0
 19 39  1  0  0  0
 20 21  2  0  0  0
 20 25  1  0  0  0
 21 22  1  0  0  0
 21 40  1  0  0  0
 22 23  2  0  0  0
 22 41  1  0  0  0
 23 24  1  0  0  0
 23 42  1  0  0  0
 24 25  2  0  0  0
 24 43  1  0  0  0
 25 44  1  0  0  0
M  END
> <s_m_entry_id>
28053

> <s_m_entry_name>
dock_pv.214

> <s_m_Source_Path>
/home/csk/Desktop/cluster/DUD-E-result/rock1

> <s_m_Source_File>
dock_pv.maegz

> <i_m_Source_File_Index>
214

> <chembl_id>
CHEMBL2023158

> <chembl_pref_name>
None

> <i_lp_mmshare_version>
53161

> <r_lp_tautomer_probability>
1

> <s_lp_Force_Field>
OPLS_2005

> <r_lp_Energy>
19.542689

> <b_lp_Chiralities_Consistent>
1

> <s_lp_Variant>
CHEMBL3231_lig381-1

> <s_i_glide_gridfile>
glide-grid_2etr

> <i_i_glide_lignum>
533

> <i_i_glide_rotatable_bonds>
8

> <r_i_docking_score>
-7.99936779453876

> <r_i_glide_ligand_efficiency>
-0.31997471178155

> <r_i_glide_ligand_efficiency_sa>
-0.93561173202493

> <r_i_glide_ligand_efficiency_ln>
-1.89608988901413

> <r_i_glide_gscore>
-7.99936779453876

> <r_i_glide_lipo>
-3.11027298512942

> <r_i_glide_hbond>
-0.320922284462261

> <r_i_glide_metal>
0

> <r_i_glide_rewards>
-2.39223855674325

> <r_i_glide_evdw>
-40.3958053588867

> <r_i_glide_ecoul>
-7.25698709487915

> <r_i_glide_erotb>
1.01741997810679

> <r_i_glide_esite>
-0.0850156141344088

> <r_i_glide_emodel>
-71.4893111753162

> <r_i_glide_energy>
-47.6527924537659

> <r_i_glide_einternal>
2.98835515975952

> <i_i_glide_confnum>
6

> <i_i_glide_posenum>
213

> <r_i_glide_eff_state_penalty>
0

> <s_user_duplicate_titles>
CHEMBL3231_lig381

> <i_f3d_flags>
0

> <s_m_subgroup_title>
dock_pv

> <s_m_subgroupid>
dock_pv

> <b_m_subgroup_collapsed>
1

$$$$
CHEMBL3231_lig784
                    3D
 Schrodinger Suite 2021-1.
 43 45  0  0  1  0            999 V2000
   54.0161   98.9775   30.5510 C   0  0  0  0  0  0
   53.3157  100.1685   30.9022 O   0  0  0  0  0  0
   52.4350  100.7533   30.0050 C   0  0  0  0  0  0
   52.0289  100.0959   28.8278 C   0  0  0  0  0  0
   51.1456  100.6919   27.9257 C   0  0  0  0  0  0
   50.6962  101.9844   28.1764 C   0  0  0  0  0  0
   51.0655  102.6426   29.3381 C   0  0  0  0  0  0
   51.9009  102.0358   30.2888 C   0  0  0  0  0  0
   52.1360  102.7855   31.5882 C   0  0  0  0  0  0
   51.6441  103.9030   31.7499 O   0  0  0  0  0  0
   52.8073  102.1612   32.5705 N   0  0  0  0  0  0
   52.9141  102.6007   33.9680 C   0  0  1  0  0  0
   53.7550  103.8937   34.0990 C   0  0  0  0  0  0
   51.5463  102.5732   34.6920 C   0  0  0  0  0  0
   50.8808  101.3396   34.8039 C   0  0  0  0  0  0
   51.4408  100.2097   34.3150 F   0  0  0  0  0  0
   49.6328  101.2506   35.4175 C   0  0  0  0  0  0
   49.0226  102.3881   35.9341 C   0  0  0  0  0  0
   49.6672  103.6177   35.8380 C   0  0  0  0  0  0
   50.9160  103.7171   35.2232 C   0  0  0  0  0  0
   51.4757  104.9442   35.1474 F   0  0  0  0  0  0
   50.6413   99.9734   26.7236 C   0  0  0  0  0  0
   50.6326   98.5932   26.4516 C   0  0  0  0  0  0
   50.0578   98.2904   25.3101 N   0  0  0  0  0  0
   49.6889   99.4683   24.8090 N   0  0  0  0  0  0
   50.0259  100.5194   25.6081 C   0  0  0  0  0  0
   54.7355   98.7393   31.3346 H   0  0  0  0  0  0
   53.3391   98.1273   30.4578 H   0  0  0  0  0  0
   54.5765   99.0978   29.6220 H   0  0  0  0  0  0
   52.3850   99.1025   28.6077 H   0  0  0  0  0  0
   50.0324  102.4822   27.4863 H   0  0  0  0  0  0
   50.6625  103.6321   29.4980 H   0  0  0  0  0  0
   53.1608  101.2380   32.3474 H   0  0  0  0  0  0
   53.5117  101.8346   34.4673 H   0  0  0  0  0  0
   53.9219  104.1564   35.1437 H   0  0  0  0  0  0
   54.7358  103.7699   33.6379 H   0  0  0  0  0  0
   53.2894  104.7475   33.6046 H   0  0  0  0  0  0
   49.1389  100.2947   35.4911 H   0  0  0  0  0  0
   48.0552  102.3142   36.4089 H   0  0  0  0  0  0
   49.1992  104.5038   36.2384 H   0  0  0  0  0  0
   51.0260   97.8204   27.0958 H   0  0  0  0  0  0
   49.2260   99.5537   23.9087 H   0  0  0  0  0  0
   49.7827  101.5310   25.3242 H   0  0  0  0  0  0
  1  2  1  0  0  0
  1 27  1  0  0  0
  1 28  1  0  0  0
  1 29  1  0  0  0
  2  3  1  0  0  0
  3  4  2  0  0  0
  3  8  1  0  0  0
  4  5  1  0  0  0
  4 30  1  0  0  0
  5  6  2  0  0  0
  5 22  1  0  0  0
  6  7  1  0  0  0
  6 31  1  0  0  0
  7  8  2  0  0  0
  7 32  1  0  0  0
  8  9  1  0  0  0
  9 10  2  0  0  0
  9 11  1  0  0  0
 11 12  1  0  0  0
 11 33  1  0  0  0
 12 13  1  0  0  0
 12 14  1  0  0  0
 12 34  1  0  0  0
 13 35  1  0  0  0
 13 36  1  0  0  0
 13 37  1  0  0  0
 14 15  2  0  0  0
 14 20  1  0  0  0
 15 16  1  0  0  0
 15 17  1  0  0  0
 17 18  2  0  0  0
 17 38  1  0  0  0
 18 19  1  0  0  0
 18 39  1  0  0  0
 19 20  2  0  0  0
 19 40  1  0  0  0
 20 21  1  0  0  0
 22 23  1  0  0  0
 22 26  2  0  0  0
 23 24  2  0  0  0
 23 41  1  0  0  0
 24 25  1  0  0  0
 25 26  1  0  0  0
 25 42  1  0  0  0
 26 43  1  0  0  0
M  END
> <s_m_entry_id>
28054

> <s_m_entry_name>
dock_pv.215

> <s_m_Source_Path>
/home/csk/Desktop/cluster/DUD-E-result/rock1

> <s_m_Source_File>
dock_pv.maegz

> <i_m_Source_File_Index>
215

> <chembl_id>
CHEMBL3894616

> <chembl_pref_name>
None

> <i_lp_mmshare_version>
53161

> <r_lp_tautomer_probability>
0.5

> <s_lp_Force_Field>
OPLS_2005

> <r_lp_Energy>
23.252852

> <b_lp_Chiralities_Consistent>
1

> <s_lp_Variant>
CHEMBL3231_lig784-2

> <s_i_glide_gridfile>
glide-grid_2etr

> <i_i_glide_lignum>
1109

> <i_i_glide_rotatable_bonds>
6

> <r_i_docking_score>
-7.99872996117716

> <r_i_glide_ligand_efficiency>
-0.307643460045275

> <r_i_glide_ligand_efficiency_sa>
-0.911392539865566

> <r_i_glide_ligand_efficiency_ln>
-1.87847548540873

> <r_i_glide_gscore>
-7.99872996117716

> <r_i_glide_lipo>
-2.77065461061858

> <r_i_glide_hbond>
-0.624431792781973

> <r_i_glide_metal>
0

> <r_i_glide_rewards>
-1.98377913847775

> <r_i_glide_evdw>
-41.2294082641602

> <r_i_glide_ecoul>
-5.99601411819458

> <r_i_glide_erotb>
0.419732904482184

> <r_i_glide_esite>
-0.0787247928438407

> <r_i_glide_emodel>
-62.4449018213834

> <r_i_glide_energy>
-47.2254223823547

> <r_i_glide_einternal>
12.9241600036621

> <i_i_glide_confnum>
16

> <i_i_glide_posenum>
382

> <r_i_glide_eff_state_penalty>
0

> <s_user_duplicate_titles>
CHEMBL3231_lig784

> <i_f3d_flags>
0

> <s_m_subgroup_title>
dock_pv

> <s_m_subgroupid>
dock_pv

> <b_m_subgroup_collapsed>
1

$$$$
CHEMBL3231_lig433
                    3D
 Schrodinger Suite 2021-1.
 46 48  0  0  1  0            999 V2000
   51.2059  109.9838   34.6171 C   0  0  0  0  0  0
   50.1118  109.0070   35.0746 C   0  0  0  0  0  0
   50.5767  107.5459   35.0707 C   0  0  0  0  0  0
   49.5213  106.7190   35.5577 O   0  0  0  0  0  0
   49.7451  105.3618   35.6928 C   0  0  0  0  0  0
   48.7057  104.5981   36.2279 C   0  0  0  0  0  0
   48.8476  103.2201   36.3924 C   0  0  0  0  0  0
   50.0275  102.5851   36.0107 C   0  0  0  0  0  0
   51.0709  103.3269   35.4539 C   0  0  0  0  0  0
   52.3666  102.6412   35.0208 C   0  0  0  0  0  0
   52.3211  101.9354   33.7317 N   0  0  0  0  0  0
   51.8520  102.4356   32.5751 C   0  0  0  0  0  0
   51.2434  103.5028   32.4988 O   0  0  0  0  0  0
   52.0960  101.6129   31.5344 N   0  0  0  0  0  0
   51.6454  101.7807   30.2289 C   0  0  0  0  0  0
   51.5146  100.7580   29.4210 N   0  0  0  0  0  0
   51.0123  101.0911   28.2397 C   0  0  0  0  0  0
   50.7751  102.4601   28.0897 C   0  0  0  0  0  0
   51.2444  103.3186   29.5095 S   0  0  0  0  0  0
   50.7172  100.0508   27.2052 C   0  0  0  0  0  0
   50.8044   98.6754   27.4738 C   0  0  0  0  0  0
   50.4547   97.7667   26.4731 C   0  0  0  0  0  0
   50.0442   98.1501   25.2402 N   0  0  0  0  0  0
   49.9851   99.4781   24.9854 C   0  0  0  0  0  0
   50.3083  100.4491   25.9256 C   0  0  0  0  0  0
   50.9343  104.7130   35.3195 C   0  0  0  0  0  0
   50.8396  111.0105   34.6074 H   0  0  0  0  0  0
   51.5526  109.7466   33.6104 H   0  0  0  0  0  0
   52.0714  109.9489   35.2801 H   0  0  0  0  0  0
   49.7767  109.2842   36.0754 H   0  0  0  0  0  0
   49.2463  109.1024   34.4208 H   0  0  0  0  0  0
   50.8424  107.2487   34.0549 H   0  0  0  0  0  0
   51.4611  107.4412   35.7024 H   0  0  0  0  0  0
   47.7821  105.0779   36.5156 H   0  0  0  0  0  0
   48.0430  102.6388   36.8109 H   0  0  0  0  0  0
   50.1238  101.5162   36.1354 H   0  0  0  0  0  0
   53.1906  103.3574   35.0072 H   0  0  0  0  0  0
   52.6410  101.9131   35.7856 H   0  0  0  0  0  0
   52.8835  101.0995   33.6821 H   0  0  0  0  0  0
   52.5624  100.7399   31.7270 H   0  0  0  0  0  0
   50.3694  102.9961   27.2447 H   0  0  0  0  0  0
   51.1173   98.3118   28.4417 H   0  0  0  0  0  0
   50.5025   96.7030   26.6528 H   0  0  0  0  0  0
   49.6428   99.7723   24.0110 H   0  0  0  0  0  0
   50.2229  101.4888   25.6510 H   0  0  0  0  0  0
   51.7544  105.2677   34.8880 H   0  0  0  0  0  0
  1  2  1  0  0  0
  1 27  1  0  0  0
  1 28  1  0  0  0
  1 29  1  0  0  0
  2  3  1  0  0  0
  2 30  1  0  0  0
  2 31  1  0  0  0
  3  4  1  0  0  0
  3 32  1  0  0  0
  3 33  1  0  0  0
  4  5  1  0  0  0
  5  6  2  0  0  0
  5 26  1  0  0  0
  6  7  1  0  0  0
  6 34  1  0  0  0
  7  8  2  0  0  0
  7 35  1  0  0  0
  8  9  1  0  0  0
  8 36  1  0  0  0
  9 10  1  0  0  0
  9 26  2  0  0  0
 10 11  1  0  0  0
 10 37  1  0  0  0
 10 38  1  0  0  0
 11 12  1  0  0  0
 11 39  1  0  0  0
 12 13  2  0  0  0
 12 14  1  0  0  0
 14 15  1  0  0  0
 14 40  1  0  0  0
 15 16  2  0  0  0
 15 19  1  0  0  0
 16 17  1  0  0  0
 17 18  2  0  0  0
 17 20  1  0  0  0
 18 19  1  0  0  0
 18 41  1  0  0  0
 20 21  2  0  0  0
 20 25  1  0  0  0
 21 22  1  0  0  0
 21 42  1  0  0  0
 22 23  2  0  0  0
 22 43  1  0  0  0
 23 24  1  0  0  0
 24 25  2  0  0  0
 24 44  1  0  0  0
 25 45  1  0  0  0
 26 46  1  0  0  0
M  END
> <s_m_entry_id>
28055

> <s_m_entry_name>
dock_pv.216

> <s_m_Source_Path>
/home/csk/Desktop/cluster/DUD-E-result/rock1

> <s_m_Source_File>
dock_pv.maegz

> <i_m_Source_File_Index>
216

> <chembl_id>
CHEMBL3218019

> <chembl_pref_name>
None

> <i_lp_mmshare_version>
53161

> <r_lp_tautomer_probability>
0.999000488399163

> <s_lp_Force_Field>
OPLS_2005

> <r_lp_Energy>
10.524028

> <b_lp_Chiralities_Consistent>
1

> <s_lp_Variant>
CHEMBL3231_lig433-1

> <s_i_glide_gridfile>
glide-grid_2etr

> <i_i_glide_lignum>
617

> <i_i_glide_rotatable_bonds>
9

> <r_i_docking_score>
-7.99732203440908

> <r_i_glide_ligand_efficiency>
-0.307589309015734

> <r_i_glide_ligand_efficiency_sa>
-0.911232117653624

> <r_i_glide_ligand_efficiency_ln>
-1.87814483842704

> <r_i_glide_gscore>
-7.99732203440908

> <r_i_glide_lipo>
-3.14431813670566

> <r_i_glide_hbond>
-0.371831214201519

> <r_i_glide_metal>
0

> <r_i_glide_rewards>
-2.244252638045

> <r_i_glide_evdw>
-44.3988037109375

> <r_i_glide_ecoul>
-7.35117721557617

> <r_i_glide_erotb>
1.13555056001725

> <r_i_glide_esite>
-0.0498538375908533

> <r_i_glide_emodel>
-76.7708665751232

> <r_i_glide_energy>
-51.7499809265137

> <r_i_glide_einternal>
2.46296191215515

> <i_i_glide_confnum>
61

> <i_i_glide_posenum>
358

> <r_i_glide_eff_state_penalty>
0

> <s_user_duplicate_titles>
CHEMBL3231_lig433

> <i_f3d_flags>
0

> <s_m_subgroup_title>
dock_pv

> <s_m_subgroupid>
dock_pv

> <b_m_subgroup_collapsed>
1

$$$$
CHEMBL3231_lig727
                    3D
 Schrodinger Suite 2021-1.
 47 49  0  0  1  0            999 V2000
   53.6582   98.5423   35.4895 C   0  0  0  0  0  0
   52.9452   99.6190   34.8994 O   0  0  0  0  0  0
   53.6396  100.8663   34.9587 C   0  0  0  0  0  0
   52.8277  101.9692   34.2387 C   0  0  1  0  0  0
   52.6096  101.5998   32.8364 N   0  0  0  0  0  0
   52.0091  102.3413   31.8893 C   0  0  0  0  0  0
   51.6430  103.5029   32.0743 O   0  0  0  0  0  0
   51.7452  101.6504   30.5707 C   0  0  0  0  0  0
   51.4578  102.4078   29.4326 C   0  0  0  0  0  0
   51.1054  101.7842   28.2411 C   0  0  0  0  0  0
   51.0389  100.3885   28.1430 C   0  0  0  0  0  0
   51.3434   99.6068   29.2749 C   0  0  0  0  0  0
   51.2426   98.2292   29.1815 O   0  0  0  0  0  0
   51.3390   97.4175   30.3511 C   0  0  0  0  0  0
   51.7021  100.2508   30.4701 C   0  0  0  0  0  0
   50.5792   99.8087   26.8345 C   0  0  0  0  0  0
   50.0430  100.4849   25.7412 C   0  0  0  0  0  0
   49.7342   99.5366   24.8108 N   0  0  0  0  0  0
   50.0429   98.3027   25.2107 N   0  0  0  0  0  0
   50.5567   98.4660   26.4031 C   0  0  0  0  0  0
   51.5395  102.3023   35.0098 C   0  0  0  0  0  0
   50.4224  101.4613   34.9198 C   0  0  0  0  0  0
   49.2560  101.7708   35.6118 C   0  0  0  0  0  0
   49.2042  102.9183   36.4011 C   0  0  0  0  0  0
   50.3064  103.7657   36.4923 C   0  0  0  0  0  0
   51.4728  103.4586   35.7960 C   0  0  0  0  0  0
   53.0722   97.6283   35.4042 H   0  0  0  0  0  0
   54.6140   98.3732   34.9875 H   0  0  0  0  0  0
   53.8463   98.7224   36.5505 H   0  0  0  0  0  0
   54.6107  100.7583   34.4699 H   0  0  0  0  0  0
   53.8226  101.1455   35.9970 H   0  0  0  0  0  0
   53.4551  102.8633   34.2277 H   0  0  0  0  0  0
   53.0574  100.7439   32.5429 H   0  0  0  0  0  0
   51.4799  103.4901   29.4662 H   0  0  0  0  0  0
   50.8638  102.4072   27.3917 H   0  0  0  0  0  0
   51.1709   96.3768   30.0740 H   0  0  0  0  0  0
   52.3262   97.4756   30.8072 H   0  0  0  0  0  0
   50.5821   97.6833   31.0898 H   0  0  0  0  0  0
   51.9079   99.6562   31.3471 H   0  0  0  0  0  0
   49.8291  101.5268   25.5552 H   0  0  0  0  0  0
   49.3099   99.7247   23.9062 H   0  0  0  0  0  0
   50.9024   97.6075   26.9593 H   0  0  0  0  0  0
   50.4627  100.5665   34.3136 H   0  0  0  0  0  0
   48.3990  101.1171   35.5444 H   0  0  0  0  0  0
   48.2983  103.1508   36.9439 H   0  0  0  0  0  0
   50.2581  104.6587   37.0984 H   0  0  0  0  0  0
   52.3240  104.1217   35.8667 H   0  0  0  0  0  0
  1  2  1  0  0  0
  1 27  1  0  0  0
  1 28  1  0  0  0
  1 29  1  0  0  0
  2  3  1  0  0  0
  3  4  1  0  0  0
  3 30  1  0  0  0
  3 31  1  0  0  0
  4  5  1  0  0  0
  4 21  1  0  0  0
  4 32  1  0  0  0
  5  6  1  0  0  0
  5 33  1  0  0  0
  6  7  2  0  0  0
  6  8  1  0  0  0
  8  9  2  0  0  0
  8 15  1  0  0  0
  9 10  1  0  0  0
  9 34  1  0  0  0
 10 11  2  0  0  0
 10 35  1  0  0  0
 11 12  1  0  0  0
 11 16  1  0  0  0
 12 13  1  0  0  0
 12 15  2  0  0  0
 13 14  1  0  0  0
 14 36  1  0  0  0
 14 37  1  0  0  0
 14 38  1  0  0  0
 15 39  1  0  0  0
 16 17  2  0  0  0
 16 20  1  0  0  0
 17 18  1  0  0  0
 17 40  1  0  0  0
 18 19  1  0  0  0
 18 41  1  0  0  0
 19 20  2  0  0  0
 20 42  1  0  0  0
 21 22  2  0  0  0
 21 26  1  0  0  0
 22 23  1  0  0  0
 22 43  1  0  0  0
 23 24  2  0  0  0
 23 44  1  0  0  0
 24 25  1  0  0  0
 24 45  1  0  0  0
 25 26  2  0  0  0
 25 46  1  0  0  0
 26 47  1  0  0  0
M  END
> <s_m_entry_id>
28056

> <s_m_entry_name>
dock_pv.217

> <s_m_Source_Path>
/home/csk/Desktop/cluster/DUD-E-result/rock1

> <s_m_Source_File>
dock_pv.maegz

> <i_m_Source_File_Index>
217

> <chembl_id>
CHEMBL4112614

> <chembl_pref_name>
None

> <i_lp_mmshare_version>
53161

> <r_lp_tautomer_probability>
0.5

> <s_lp_Force_Field>
OPLS_2005

> <r_lp_Energy>
20.533107

> <b_lp_Chiralities_Consistent>
1

> <s_lp_Variant>
CHEMBL3231_lig727-1

> <s_i_glide_gridfile>
glide-grid_2etr

> <i_i_glide_lignum>
1033

> <i_i_glide_rotatable_bonds>
8

> <r_i_docking_score>
-7.99275203927419

> <r_i_glide_ligand_efficiency>
-0.307413539972084

> <r_i_glide_ligand_efficiency_sa>
-0.91071140255343

> <r_i_glide_ligand_efficiency_ln>
-1.87707159006498

> <r_i_glide_gscore>
-7.99275203927419

> <r_i_glide_lipo>
-2.81943083746786

> <r_i_glide_hbond>
-0.616617923767687

> <r_i_glide_metal>
0

> <r_i_glide_rewards>
-1.96952222311984

> <r_i_glide_evdw>
-42.5446548461914

> <r_i_glide_ecoul>
-6.41156959533691

> <r_i_glide_erotb>
0.540596123200386

> <r_i_glide_esite>
-0.0388089965090832

> <r_i_glide_emodel>
-71.2574619038117

> <r_i_glide_energy>
-48.9562244415283

> <r_i_glide_einternal>
2.72279286384583

> <i_i_glide_confnum>
26

> <i_i_glide_posenum>
197

> <r_i_glide_eff_state_penalty>
0

> <s_user_duplicate_titles>
CHEMBL3231_lig727

> <i_f3d_flags>
0

> <s_m_subgroup_title>
dock_pv

> <s_m_subgroupid>
dock_pv

> <b_m_subgroup_collapsed>
1

$$$$
CHEMBL3231_lig1673
                    3D
 Schrodinger Suite 2021-1.
 62 67  0  0  1  0            999 V2000
   50.4426   97.5827   25.7996 S   0  0  0  0  0  0
   50.8430  101.5076   33.3238 O   0  0  0  0  0  0
   51.0282   99.6830   27.1729 N   0  0  0  0  0  0
   51.3273   97.9025   28.4716 N   0  0  0  0  0  0
   52.3418  101.8077   29.8735 N   0  0  0  0  0  0
   51.2430  103.9030   30.0124 N   0  0  0  0  0  0
   52.9345  103.5017   31.4980 N   0  0  0  0  0  0
   51.9494   99.6532   34.0710 N   0  0  0  0  0  0
   51.4896  100.1070   28.4100 C   0  0  0  0  0  0
   51.8044   98.9440   29.1056 C   0  0  0  0  0  0
   50.9760   98.3201   27.2866 C   0  0  0  0  0  0
   51.4927  101.4955   28.8542 C   0  0  0  0  0  0
   52.4244   98.7909   30.4564 C   0  0  0  0  0  0
   50.6118  100.1827   25.9455 C   0  0  0  0  0  0
   50.2229   99.1761   25.0898 C   0  0  0  0  0  0
   50.5329  102.3746   28.3476 C   0  0  0  0  0  0
   51.8100   99.2573   31.6231 C   0  0  0  0  0  0
   53.6922   98.2091   30.5433 C   0  0  0  0  0  0
   52.1781  103.0331   30.4184 C   0  0  0  0  0  0
   52.4477   99.1203   32.8686 C   0  0  0  0  0  0
   50.4490  103.6031   28.9652 C   0  0  0  0  0  0
   54.2901   97.9903   31.7819 C   0  0  0  0  0  0
   53.6553   98.4212   32.9444 C   0  0  0  0  0  0
   53.7157  102.8597   32.4677 C   0  0  0  0  0  0
   53.7369  103.3692   33.7825 C   0  0  0  0  0  0
   51.1782  100.7494   34.2349 C   0  0  0  0  0  0
   54.4804  101.7333   32.1576 C   0  0  0  0  0  0
   54.4950  102.7224   34.7636 C   0  0  0  0  0  0
   50.7312  101.0201   35.6816 C   0  0  0  0  0  0
   55.2429  101.1069   33.1401 C   0  0  0  0  0  0
   55.2397  101.5903   34.4455 C   0  0  0  0  0  0
   49.9049  102.2947   35.8693 C   0  0  0  0  0  0
   52.9336  104.6034   34.1770 C   0  0  0  0  0  0
   48.5790  102.3461   35.4274 C   0  0  0  0  0  0
   50.4785  103.4149   36.4765 C   0  0  0  0  0  0
   47.8276  103.5041   35.6068 C   0  0  0  0  0  0
   49.7284  104.5754   36.6555 C   0  0  0  0  0  0
   48.4059  104.6123   36.2208 C   0  0  0  0  0  0
   52.7828  104.4778   31.7019 H   0  0  0  0  0  0
   52.3023   99.2182   34.9087 H   0  0  0  0  0  0
   50.6245  101.2426   25.7408 H   0  0  0  0  0  0
   49.8539   99.2847   24.0766 H   0  0  0  0  0  0
   49.8376  102.1115   27.5691 H   0  0  0  0  0  0
   50.8529   99.7459   31.5472 H   0  0  0  0  0  0
   54.2136   97.9062   29.6466 H   0  0  0  0  0  0
   49.7221  104.3409   28.6570 H   0  0  0  0  0  0
   55.2608   97.5156   31.8367 H   0  0  0  0  0  0
   54.1526   98.2780   33.8926 H   0  0  0  0  0  0
   54.5114  101.3429   31.1515 H   0  0  0  0  0  0
   54.5132  103.0956   35.7765 H   0  0  0  0  0  0
   51.6160  101.0511   36.3195 H   0  0  0  0  0  0
   50.1301  100.1737   36.0105 H   0  0  0  0  0  0
   55.8468  100.2485   32.8834 H   0  0  0  0  0  0
   55.8374  101.1023   35.2018 H   0  0  0  0  0  0
   52.9964  104.8179   35.2464 H   0  0  0  0  0  0
   53.2928  105.4764   33.6311 H   0  0  0  0  0  0
   51.8822  104.4644   33.9249 H   0  0  0  0  0  0
   48.1301  101.4891   34.9489 H   0  0  0  0  0  0
   51.5057  103.3873   36.8086 H   0  0  0  0  0  0
   46.8007  103.5395   35.2716 H   0  0  0  0  0  0
   50.1726  105.4424   37.1246 H   0  0  0  0  0  0
   47.8216  105.5093   36.3586 H   0  0  0  0  0  0
  1 11  1  0  0  0
  1 15  1  0  0  0
  2 26  2  0  0  0
  3  9  1  0  0  0
  3 11  1  0  0  0
  3 14  1  0  0  0
  4 10  1  0  0  0
  4 11  2  0  0  0
  5 12  2  0  0  0
  5 19  1  0  0  0
  6 19  2  0  0  0
  6 21  1  0  0  0
  7 19  1  0  0  0
  7 24  1  0  0  0
  7 39  1  0  0  0
  8 20  1  0  0  0
  8 26  1  0  0  0
  8 40  1  0  0  0
  9 10  2  0  0  0
  9 12  1  0  0  0
 10 13  1  0  0  0
 12 16  1  0  0  0
 13 17  1  0  0  0
 13 18  2  0  0  0
 14 15  2  0  0  0
 14 41  1  0  0  0
 15 42  1  0  0  0
 16 21  2  0  0  0
 16 43  1  0  0  0
 17 20  2  0  0  0
 17 44  1  0  0  0
 18 22  1  0  0  0
 18 45  1  0  0  0
 20 23  1  0  0  0
 21 46  1  0  0  0
 22 23  2  0  0  0
 22 47  1  0  0  0
 23 48  1  0  0  0
 24 25  1  0  0  0
 24 27  2  0  0  0
 25 28  2  0  0  0
 25 33  1  0  0  0
 26 29  1  0  0  0
 27 30  1  0  0  0
 27 49  1  0  0  0
 28 31  1  0  0  0
 28 50  1  0  0  0
 29 32  1  0  0  0
 29 51  1  0  0  0
 29 52  1  0  0  0
 30 31  2  0  0  0
 30 53  1  0  0  0
 31 54  1  0  0  0
 32 34  2  0  0  0
 32 35  1  0  0  0
 33 55  1  0  0  0
 33 56  1  0  0  0
 33 57  1  0  0  0
 34 36  1  0  0  0
 34 58  1  0  0  0
 35 37  2  0  0  0
 35 59  1  0  0  0
 36 38  2  0  0  0
 36 60  1  0  0  0
 37 38  1  0  0  0
 37 61  1  0  0  0
 38 62  1  0  0  0
M  END
> <s_m_entry_id>
28057

> <s_m_entry_name>
dock_pv.218

> <s_m_Source_Path>
/home/csk/Desktop/cluster/DUD-E-result/rock1

> <s_m_Source_File>
dock_pv.maegz

> <i_m_Source_File_Index>
218

> <chembl_id>
CHEMBL1997909

> <chembl_pref_name>
None

> <i_lp_mmshare_version>
53161

> <r_lp_tautomer_probability>
0.999999987636

> <s_lp_Force_Field>
OPLS_2005

> <r_lp_Energy>
27.956512

> <b_lp_Chiralities_Consistent>
1

> <s_lp_Variant>
CHEMBL3231_lig1673-1

> <s_i_glide_gridfile>
glide-grid_2etr

> <i_i_glide_lignum>
2386

> <i_i_glide_rotatable_bonds>
8

> <r_i_docking_score>
-7.99083207107488

> <r_i_glide_ligand_efficiency>
-0.21028505450197

> <r_i_glide_ligand_efficiency_sa>
-0.706973180795779

> <r_i_glide_ligand_efficiency_ln>
-1.72305846098746

> <r_i_glide_gscore>
-7.99083207107488

> <r_i_glide_lipo>
-3.93309237085031

> <r_i_glide_hbond>
-0.1546593516805

> <r_i_glide_metal>
0

> <r_i_glide_rewards>
-1.18778381503217

> <r_i_glide_evdw>
-56.3878898620605

> <r_i_glide_ecoul>
-2.34173798561096

> <r_i_glide_erotb>
0.538368560425383

> <r_i_glide_esite>
-0.083009902992606

> <r_i_glide_emodel>
-80.3255085858597

> <r_i_glide_energy>
-58.7296278476715

> <r_i_glide_einternal>
7.41540622711182

> <i_i_glide_confnum>
9

> <i_i_glide_posenum>
68

> <r_i_glide_eff_state_penalty>
0

> <s_user_duplicate_titles>
CHEMBL3231_lig1673

> <i_f3d_flags>
0

> <s_m_subgroup_title>
dock_pv

> <s_m_subgroupid>
dock_pv

> <b_m_subgroup_collapsed>
1

$$$$
CHEMBL3231_lig44
                    3D
 Schrodinger Suite 2021-1.
 44 47  0  0  1  0            999 V2000
   52.3841   99.2667   32.6910 C   0  0  0  0  0  0
   52.8433   97.9654   32.5044 C   0  0  0  0  0  0
   54.2069   97.7023   32.5602 C   0  0  0  0  0  0
   55.1125   98.7288   32.8049 C   0  0  0  0  0  0
   54.6546  100.0317   32.9883 C   0  0  0  0  0  0
   53.2822  100.3146   32.9299 C   0  0  0  0  0  0
   54.6503   96.4406   32.3634 F   0  0  0  0  0  0
   52.7310  101.7510   33.0407 C   0  0  2  0  0  0
   52.7213  102.4342   31.6740 C   0  0  0  0  0  0
   53.8074  103.1525   31.3139 C   0  0  0  0  0  0
   54.7931  103.5030   32.1880 N   0  0  0  0  0  0
   54.7560  103.3622   33.5328 C   0  0  0  0  0  0
   53.4600  102.6850   34.0672 C   0  0  0  0  0  0
   55.6440  103.7989   34.2605 O   0  0  0  0  0  0
   54.0430  103.7133   29.9185 C   0  0  0  0  0  0
   51.6467  102.1715   30.7501 C   0  0  0  0  0  0
   50.6381  102.8791   30.7016 O   0  0  0  0  0  0
   51.9424  101.1535   29.9212 N   0  0  0  0  0  0
   51.3168  100.8252   28.7154 C   0  0  0  0  0  0
   50.8513  101.8094   27.8343 C   0  0  0  0  0  0
   50.3679  101.4954   26.5646 C   0  0  0  0  0  0
   51.2849   99.4768   28.3614 C   0  0  0  0  0  0
   50.7682   99.1253   27.1078 C   0  0  0  0  0  0
   50.3256  100.1414   26.2250 C   0  0  0  0  0  0
   49.9066   99.4805   25.0892 N   0  0  0  0  0  0
   50.0431   98.1480   25.2110 N   0  0  0  0  0  0
   50.5476   97.9144   26.3923 C   0  0  0  0  0  0
   51.3250   99.4647   32.6252 H   0  0  0  0  0  0
   52.1520   97.1588   32.3090 H   0  0  0  0  0  0
   56.1723   98.5190   32.8251 H   0  0  0  0  0  0
   55.3885  100.8044   33.1470 H   0  0  0  0  0  0
   51.7050  101.6319   33.3948 H   0  0  0  0  0  0
   55.5856  104.0317   31.8456 H   0  0  0  0  0  0
   52.8283  103.5550   34.2473 H   0  0  0  0  0  0
   53.6426  102.2001   35.0267 H   0  0  0  0  0  0
   53.1448  103.7732   29.3036 H   0  0  0  0  0  0
   54.4428  104.7191   29.9532 H   0  0  0  0  0  0
   54.7571  103.0766   29.3978 H   0  0  0  0  0  0
   52.7076  100.5570   30.1996 H   0  0  0  0  0  0
   50.9081  102.8508   28.1134 H   0  0  0  0  0  0
   50.0297  102.2670   25.8899 H   0  0  0  0  0  0
   51.6561   98.7144   29.0305 H   0  0  0  0  0  0
   49.5229   99.8849   24.2416 H   0  0  0  0  0  0
   50.7543   96.9072   26.7225 H   0  0  0  0  0  0
  1  2  2  0  0  0
  1  6  1  0  0  0
  1 28  1  0  0  0
  2  3  1  0  0  0
  2 29  1  0  0  0
  3  7  1  0  0  0
  3  4  2  0  0  0
  4  5  1  0  0  0
  4 30  1  0  0  0
  5  6  2  0  0  0
  5 31  1  0  0  0
  6  8  1  0  0  0
  8  9  1  0  0  0
  8 13  1  0  0  0
  8 32  1  0  0  0
  9 16  1  0  0  0
  9 10  2  0  0  0
 10 15  1  0  0  0
 10 11  1  0  0  0
 11 12  1  0  0  0
 11 33  1  0  0  0
 12 13  1  0  0  0
 12 14  2  0  0  0
 13 34  1  0  0  0
 13 35  1  0  0  0
 15 36  1  0  0  0
 15 37  1  0  0  0
 15 38  1  0  0  0
 16 17  2  0  0  0
 16 18  1  0  0  0
 18 19  1  0  0  0
 18 39  1  0  0  0
 19 20  2  0  0  0
 19 22  1  0  0  0
 20 21  1  0  0  0
 20 40  1  0  0  0
 21 24  2  0  0  0
 21 41  1  0  0  0
 22 23  2  0  0  0
 22 42  1  0  0  0
 23 24  1  0  0  0
 23 27  1  0  0  0
 24 25  1  0  0  0
 25 26  1  0  0  0
 25 43  1  0  0  0
 26 27  2  0  0  0
 27 44  1  0  0  0
M  END
> <s_m_entry_id>
28058

> <s_m_entry_name>
dock_pv.219

> <s_m_Source_Path>
/home/csk/Desktop/cluster/DUD-E-result/rock1

> <s_m_Source_File>
dock_pv.maegz

> <i_m_Source_File_Index>
219

> <chembl_id>
CHEMBL218654

> <chembl_pref_name>
None

> <i_lp_mmshare_version>
53161

> <r_lp_tautomer_probability>
0.980392156860701

> <s_lp_Force_Field>
OPLS_2005

> <r_lp_Energy>
32.631206

> <b_lp_Chiralities_Consistent>
1

> <s_lp_Variant>
CHEMBL3231_lig44-1

> <s_i_glide_gridfile>
glide-grid_2etr

> <i_i_glide_lignum>
47

> <i_i_glide_rotatable_bonds>
4

> <r_i_docking_score>
-7.98906979440235

> <r_i_glide_ligand_efficiency>
-0.295891473866754

> <r_i_glide_ligand_efficiency_sa>
-0.887674420625051

> <r_i_glide_ligand_efficiency_ln>
-1.8597237380276

> <r_i_glide_gscore>
-7.98906979440235

> <r_i_glide_lipo>
-1.95735589309604

> <r_i_glide_hbond>
-0.744204874618552

> <r_i_glide_metal>
0

> <r_i_glide_rewards>
-1.97565510702455

> <r_i_glide_evdw>
-41.0502738952637

> <r_i_glide_ecoul>
-10.580361366272

> <r_i_glide_erotb>
0.405425445771949

> <r_i_glide_esite>
-0.0777114657311724

> <r_i_glide_emodel>
-70.6846862274678

> <r_i_glide_energy>
-51.6306352615356

> <r_i_glide_einternal>
9.28438091278076

> <i_i_glide_confnum>
46

> <i_i_glide_posenum>
367

> <r_i_glide_eff_state_penalty>
0

> <s_user_duplicate_titles>
CHEMBL3231_lig44,CHEMBL3231_lig44

> <i_f3d_flags>
0

> <s_m_subgroup_title>
dock_pv

> <s_m_subgroupid>
dock_pv

> <b_m_subgroup_collapsed>
1

$$$$
CHEMBL3231_lig692
                    3D
 Schrodinger Suite 2021-1.
 46 48  0  0  1  0            999 V2000
   50.3386  104.2796   27.8081 C   0  0  0  0  0  0
   50.4424  102.8859   27.5248 O   0  0  0  0  0  0
   50.9507  102.0171   28.4718 C   0  0  0  0  0  0
   51.3297  102.4589   29.7501 C   0  0  0  0  0  0
   51.8298  101.5842   30.7198 C   0  0  0  0  0  0
   52.0058  100.2363   30.3664 C   0  0  0  0  0  0
   51.6405   99.7848   29.0998 C   0  0  0  0  0  0
   51.0771  100.6487   28.1454 C   0  0  0  0  0  0
   50.5993  100.0608   26.8353 C   0  0  0  0  0  0
   50.0470  100.7027   25.7296 C   0  0  0  0  0  0
   49.7397   99.7372   24.8112 N   0  0  0  0  0  0
   50.0436   98.5120   25.2379 N   0  0  0  0  0  0
   50.5666   98.7073   26.4304 C   0  0  0  0  0  0
   52.1063  102.1006   32.1166 C   0  0  0  0  0  0
   51.6079  103.1660   32.4962 O   0  0  0  0  0  0
   52.9084  101.3529   32.8942 N   0  0  0  0  0  0
   53.3421  101.6953   34.2541 C   0  0  0  0  0  0
   52.4269  101.1821   35.4007 C   0  0  2  0  0  0
   52.2912   99.6415   35.4009 C   0  0  0  0  0  0
   51.0961  101.9439   35.5096 C   0  0  0  0  0  0
   51.1165  103.2781   35.9402 C   0  0  0  0  0  0
   49.9316  104.0005   36.0649 C   0  0  0  0  0  0
   48.7165  103.3909   35.7602 C   0  0  0  0  0  0
   48.6810  102.0656   35.3314 C   0  0  0  0  0  0
   49.8645  101.3416   35.2104 C   0  0  0  0  0  0
   50.0433  104.8128   26.9050 H   0  0  0  0  0  0
   49.5816  104.4721   28.5684 H   0  0  0  0  0  0
   51.2895  104.7031   28.1297 H   0  0  0  0  0  0
   51.2223  103.4992   30.0169 H   0  0  0  0  0  0
   52.3918   99.5173   31.0745 H   0  0  0  0  0  0
   51.7707   98.7361   28.8816 H   0  0  0  0  0  0
   49.8293  101.7411   25.5286 H   0  0  0  0  0  0
   49.3129   99.9042   23.9039 H   0  0  0  0  0  0
   50.9099   97.8658   27.0131 H   0  0  0  0  0  0
   53.3362  100.5375   32.4816 H   0  0  0  0  0  0
   53.5081  102.7710   34.3437 H   0  0  0  0  0  0
   54.3290  101.2476   34.3752 H   0  0  0  0  0  0
   52.9493  101.4164   36.3298 H   0  0  0  0  0  0
   51.6959   99.2966   36.2483 H   0  0  0  0  0  0
   51.8235   99.2742   34.4877 H   0  0  0  0  0  0
   53.2673   99.1610   35.4779 H   0  0  0  0  0  0
   52.0558  103.7592   36.1743 H   0  0  0  0  0  0
   49.9556  105.0280   36.3978 H   0  0  0  0  0  0
   47.7940  103.9456   35.8575 H   0  0  0  0  0  0
   47.7349  101.6018   35.0959 H   0  0  0  0  0  0
   49.8089  100.3178   34.8753 H   0  0  0  0  0  0
  1  2  1  0  0  0
  1 26  1  0  0  0
  1 27  1  0  0  0
  1 28  1  0  0  0
  2  3  1  0  0  0
  3  4  2  0  0  0
  3  8  1  0  0  0
  4  5  1  0  0  0
  4 29  1  0  0  0
  5  6  2  0  0  0
  5 14  1  0  0  0
  6  7  1  0  0  0
  6 30  1  0  0  0
  7  8  2  0  0  0
  7 31  1  0  0  0
  8  9  1  0  0  0
  9 10  2  0  0  0
  9 13  1  0  0  0
 10 11  1  0  0  0
 10 32  1  0  0  0
 11 12  1  0  0  0
 11 33  1  0  0  0
 12 13  2  0  0  0
 13 34  1  0  0  0
 14 15  2  0  0  0
 14 16  1  0  0  0
 16 17  1  0  0  0
 16 35  1  0  0  0
 17 18  1  0  0  0
 17 36  1  0  0  0
 17 37  1  0  0  0
 18 19  1  0  0  0
 18 20  1  0  0  0
 18 38  1  0  0  0
 19 39  1  0  0  0
 19 40  1  0  0  0
 19 41  1  0  0  0
 20 21  2  0  0  0
 20 25  1  0  0  0
 21 22  1  0  0  0
 21 42  1  0  0  0
 22 23  2  0  0  0
 22 43  1  0  0  0
 23 24  1  0  0  0
 23 44  1  0  0  0
 24 25  2  0  0  0
 24 45  1  0  0  0
 25 46  1  0  0  0
M  END
> <s_m_entry_id>
28059

> <s_m_entry_name>
dock_pv.220

> <s_m_Source_Path>
/home/csk/Desktop/cluster/DUD-E-result/rock1

> <s_m_Source_File>
dock_pv.maegz

> <i_m_Source_File_Index>
220

> <chembl_id>
CHEMBL3912670

> <chembl_pref_name>
None

> <i_lp_mmshare_version>
53161

> <r_lp_tautomer_probability>
0.5

> <s_lp_Force_Field>
OPLS_2005

> <r_lp_Energy>
21.569711

> <b_lp_Chiralities_Consistent>
1

> <s_lp_Variant>
CHEMBL3231_lig692-1

> <s_i_glide_gridfile>
glide-grid_2etr

> <i_i_glide_lignum>
986

> <i_i_glide_rotatable_bonds>
7

> <r_i_docking_score>
-7.97994533611749

> <r_i_glide_ligand_efficiency>
-0.3191978134447

> <r_i_glide_ligand_efficiency_sa>
-0.933340067509627

> <r_i_glide_ligand_efficiency_ln>
-1.89148618432418

> <r_i_glide_gscore>
-7.97994533611749

> <r_i_glide_lipo>
-3.20449562490532

> <r_i_glide_hbond>
-0.437315559341667

> <r_i_glide_metal>
0

> <r_i_glide_rewards>
-2.02701232561876

> <r_i_glide_evdw>
-43.1218032836914

> <r_i_glide_ecoul>
-4.73594999313354

> <r_i_glide_erotb>
0.587196517146592

> <r_i_glide_esite>
-0.0318356802437314

> <r_i_glide_emodel>
-69.898239968948

> <r_i_glide_energy>
-47.857753276825

> <r_i_glide_einternal>
2.69288039207458

> <i_i_glide_confnum>
48

> <i_i_glide_posenum>
382

> <r_i_glide_eff_state_penalty>
0

> <s_user_duplicate_titles>
CHEMBL3231_lig692

> <i_f3d_flags>
0

> <s_m_subgroup_title>
dock_pv

> <s_m_subgroupid>
dock_pv

> <b_m_subgroup_collapsed>
1

$$$$
CHEMBL3231_lig1820
                    3D
 Schrodinger Suite 2021-1.
 34 37  0  0  1  0            999 V2000
   51.0413  101.1456   28.3800 C   0  0  0  0  0  0
   50.4825  101.9437   27.3704 C   0  0  0  0  0  0
   50.0441  101.4247   26.1559 C   0  0  0  0  0  0
   51.1623   99.7598   28.1778 C   0  0  0  0  0  0
   50.6930   99.2063   26.9758 C   0  0  0  0  0  0
   50.1546  100.0516   25.9806 C   0  0  0  0  0  0
   49.8005   99.2294   24.9333 N   0  0  0  0  0  0
   50.0433   97.9397   25.2164 N   0  0  0  0  0  0
   50.5713   97.9031   26.4135 C   0  0  0  0  0  0
   51.4439  101.7349   29.6112 N   0  0  0  0  0  0
   52.0635  101.1565   30.6969 C   0  0  0  0  0  0
   52.1358  102.1426   31.6708 C   0  0  0  0  0  0
   51.6417  103.2631   31.1807 N   0  0  0  0  0  0
   51.1915  103.0245   29.8983 N   0  0  0  0  0  0
   52.6548  102.0684   33.0930 C   0  0  0  0  0  0
   51.5577  102.3180   34.1239 C   0  0  0  0  0  0
   51.3314  103.6101   34.6095 C   0  0  0  0  0  0
   50.3105  103.8384   35.5323 C   0  0  0  0  0  0
   49.5201  102.7748   35.9655 C   0  0  0  0  0  0
   49.7446  101.4850   35.4892 C   0  0  0  0  0  0
   50.7651  101.2557   34.5683 C   0  0  0  0  0  0
   50.3745  103.0099   27.5148 H   0  0  0  0  0  0
   49.5974  102.0579   25.4100 H   0  0  0  0  0  0
   51.5746   99.1138   28.9391 H   0  0  0  0  0  0
   49.3786   99.4992   24.0541 H   0  0  0  0  0  0
   50.8425   96.9616   26.8651 H   0  0  0  0  0  0
   52.3637  100.1204   30.7083 H   0  0  0  0  0  0
   53.4585  102.7932   33.2311 H   0  0  0  0  0  0
   53.1018  101.0916   33.2793 H   0  0  0  0  0  0
   51.9427  104.4353   34.2705 H   0  0  0  0  0  0
   50.1337  104.8346   35.9081 H   0  0  0  0  0  0
   48.7279  102.9478   36.6805 H   0  0  0  0  0  0
   49.1283  100.6672   35.8320 H   0  0  0  0  0  0
   50.9334  100.2565   34.1952 H   0  0  0  0  0  0
  1 10  1  0  0  0
  1  2  2  0  0  0
  1  4  1  0  0  0
  2  3  1  0  0  0
  2 22  1  0  0  0
  3  6  2  0  0  0
  3 23  1  0  0  0
  4  5  2  0  0  0
  4 24  1  0  0  0
  5  6  1  0  0  0
  5  9  1  0  0  0
  6  7  1  0  0  0
  7  8  1  0  0  0
  7 25  1  0  0  0
  8  9  2  0  0  0
  9 26  1  0  0  0
 10 11  1  0  0  0
 10 14  1  0  0  0
 11 12  2  0  0  0
 11 27  1  0  0  0
 12 13  1  0  0  0
 12 15  1  0  0  0
 13 14  2  0  0  0
 15 16  1  0  0  0
 15 28  1  0  0  0
 15 29  1  0  0  0
 16 17  2  0  0  0
 16 21  1  0  0  0
 17 18  1  0  0  0
 17 30  1  0  0  0
 18 19  2  0  0  0
 18 31  1  0  0  0
 19 20  1  0  0  0
 19 32  1  0  0  0
 20 21  2  0  0  0
 20 33  1  0  0  0
 21 34  1  0  0  0
M  END
> <s_m_entry_id>
28060

> <s_m_entry_name>
dock_pv.221

> <s_m_Source_Path>
/home/csk/Desktop/cluster/DUD-E-result/rock1

> <s_m_Source_File>
dock_pv.maegz

> <i_m_Source_File_Index>
221

> <chembl_id>
CHEMBL1682341

> <chembl_pref_name>
None

> <i_lp_mmshare_version>
53161

> <r_lp_tautomer_probability>
1

> <s_lp_Force_Field>
OPLS_2005

> <r_lp_Energy>
12.540796

> <b_lp_Chiralities_Consistent>
1

> <s_lp_Variant>
CHEMBL3231_lig1820-1

> <s_i_glide_gridfile>
glide-grid_2etr

> <i_i_glide_lignum>
2616

> <i_i_glide_rotatable_bonds>
3

> <r_i_docking_score>
-7.97885267053756

> <r_i_glide_ligand_efficiency>
-0.379945365263693

> <r_i_glide_ligand_efficiency_sa>
-1.04824045286616

> <r_i_glide_ligand_efficiency_ln>
-1.97275520000049

> <r_i_glide_gscore>
-7.97885267053756

> <r_i_glide_lipo>
-2.74906796048769

> <r_i_glide_hbond>
-0.552292577534444

> <r_i_glide_metal>
0

> <r_i_glide_rewards>
-2.63018449303306

> <r_i_glide_evdw>
-34.6614074707031

> <r_i_glide_ecoul>
-4.63675308227539

> <r_i_glide_erotb>
0.497942212361944

> <r_i_glide_esite>
-0.116666515967837

> <r_i_glide_emodel>
-58.77127606891

> <r_i_glide_energy>
-39.2981605529785

> <r_i_glide_einternal>
0.714373052120209

> <i_i_glide_confnum>
6

> <i_i_glide_posenum>
385

> <r_i_glide_eff_state_penalty>
0

> <s_user_duplicate_titles>
CHEMBL3231_lig1820

> <i_f3d_flags>
0

> <s_m_subgroup_title>
dock_pv

> <s_m_subgroupid>
dock_pv

> <b_m_subgroup_collapsed>
1

$$$$
CHEMBL3231_lig910
                    3D
 Schrodinger Suite 2021-1.
 34 36  0  0  1  0            999 V2000
   53.1652  100.7072   34.5620 C   0  0  0  0  0  0
   53.3629  101.0618   33.0639 C   0  0  1  0  0  0
   54.8430  101.0045   32.6412 C   0  0  0  0  0  0
   52.6745  100.0022   32.2945 N   0  0  0  0  0  0
   52.8021  102.4048   32.7537 N   0  0  0  0  0  0
   52.1024  102.7709   31.6550 C   0  0  0  0  0  0
   52.2682  100.3443   31.0261 C   0  0  0  0  0  0
   52.0158  101.6771   30.7299 C   0  0  0  0  0  0
   51.4085  101.8467   29.1132 S   0  0  0  0  0  0
   51.4933  100.1226   28.8362 C   0  0  0  0  0  0
   52.0021   99.4785   29.9670 C   0  0  0  0  0  0
   51.0055   99.5249   27.5533 C   0  0  0  0  0  0
   50.5986  100.2965   26.4507 C   0  0  0  0  0  0
   50.1267   99.6528   25.3072 C   0  0  0  0  0  0
   50.0429   98.3037   25.2103 N   0  0  0  0  0  0
   50.4430   97.5618   26.2685 C   0  0  0  0  0  0
   50.9199   98.1296   27.4463 C   0  0  0  0  0  0
   51.6445  103.9028   31.5483 O   0  0  0  0  0  0
   51.7405  100.8434   35.1501 C   0  0  0  0  0  0
   51.7283  100.4206   36.4102 F   0  0  0  0  0  0
   50.8372  100.1206   34.4877 F   0  0  0  0  0  0
   51.3139  102.1072   35.1603 F   0  0  0  0  0  0
   53.8211  101.3458   35.1556 H   0  0  0  0  0  0
   53.5245   99.6933   34.7503 H   0  0  0  0  0  0
   54.9738  101.2043   31.5777 H   0  0  0  0  0  0
   55.4297  101.7491   33.1777 H   0  0  0  0  0  0
   55.2912  100.0315   32.8472 H   0  0  0  0  0  0
   52.9566   99.0610   32.5233 H   0  0  0  0  0  0
   53.0098  103.1549   33.3942 H   0  0  0  0  0  0
   52.1385   98.4094   30.0436 H   0  0  0  0  0  0
   50.6366  101.3757   26.4700 H   0  0  0  0  0  0
   49.8002  100.2192   24.4467 H   0  0  0  0  0  0
   50.3793   96.4880   26.1627 H   0  0  0  0  0  0
   51.2143   97.4809   28.2601 H   0  0  0  0  0  0
  1  2  1  0  0  0
  1 19  1  0  0  0
  1 23  1  0  0  0
  1 24  1  0  0  0
  2  3  1  0  0  0
  2  4  1  0  0  0
  2  5  1  0  0  0
  3 25  1  0  0  0
  3 26  1  0  0  0
  3 27  1  0  0  0
  4  7  1  0  0  0
  4 28  1  0  0  0
  5  6  1  0  0  0
  5 29  1  0  0  0
  6  8  1  0  0  0
  6 18  2  0  0  0
  7  8  2  0  0  0
  7 11  1  0  0  0
  8  9  1  0  0  0
  9 10  1  0  0  0
 10 11  2  0  0  0
 10 12  1  0  0  0
 11 30  1  0  0  0
 12 13  2  0  0  0
 12 17  1  0  0  0
 13 14  1  0  0  0
 13 31  1  0  0  0
 14 15  2  0  0  0
 14 32  1  0  0  0
 15 16  1  0  0  0
 16 17  2  0  0  0
 16 33  1  0  0  0
 17 34  1  0  0  0
 19 20  1  0  0  0
 19 21  1  0  0  0
 19 22  1  0  0  0
M  END
> <s_m_entry_id>
28061

> <s_m_entry_name>
dock_pv.222

> <s_m_Source_Path>
/home/csk/Desktop/cluster/DUD-E-result/rock1

> <s_m_Source_File>
dock_pv.maegz

> <i_m_Source_File_Index>
222

> <chembl_id>
CHEMBL4202743

> <chembl_pref_name>
None

> <i_lp_mmshare_version>
53161

> <r_lp_tautomer_probability>
0.99999637101317

> <s_lp_Force_Field>
OPLS_2005

> <r_lp_Energy>
22.714291

> <b_lp_Chiralities_Consistent>
1

> <s_lp_Variant>
CHEMBL3231_lig910-2

> <s_i_glide_gridfile>
glide-grid_2etr

> <i_i_glide_lignum>
1305

> <i_i_glide_rotatable_bonds>
3

> <r_i_docking_score>
-7.97770151561286

> <r_i_glide_ligand_efficiency>
-0.362622796164221

> <r_i_glide_ligand_efficiency_sa>
-1.01608333599746

> <r_i_glide_ligand_efficiency_ln>
-1.95004124414891

> <r_i_glide_gscore>
-7.97770151561286

> <r_i_glide_lipo>
-2.15925389552111

> <r_i_glide_hbond>
-0.392770124531314

> <r_i_glide_metal>
0

> <r_i_glide_rewards>
-3.0557744581346

> <r_i_glide_evdw>
-34.3609771728516

> <r_i_glide_ecoul>
-6.19061088562012

> <r_i_glide_erotb>
0.35031340277003

> <r_i_glide_esite>
-0.0735759487102689

> <r_i_glide_emodel>
-61.0265896220855

> <r_i_glide_energy>
-40.5515880584717

> <r_i_glide_einternal>
0.436059355735779

> <i_i_glide_confnum>
4

> <i_i_glide_posenum>
176

> <r_i_glide_eff_state_penalty>
0

> <s_user_duplicate_titles>
CHEMBL3231_lig910

> <i_f3d_flags>
0

> <s_m_subgroup_title>
dock_pv

> <s_m_subgroupid>
dock_pv

> <b_m_subgroup_collapsed>
1

$$$$
CHEMBL3231_lig1441
                    3D
 Schrodinger Suite 2021-1.
 45 47  0  0  1  0            999 V2000
   47.7248  104.3010   36.0107 Cl  0  0  0  0  0  0
   51.6431  103.9031   32.3426 O   0  0  0  0  0  0
   56.3023  103.5031   35.0241 O   0  0  0  0  0  0
   53.6591  102.9069   32.5234 N   0  0  0  0  0  0
   50.0447   98.3018   25.2099 N   0  0  0  0  0  0
   52.1872  102.3087   30.6745 C   0  0  0  0  0  0
   51.4457  100.7572   28.4496 C   0  0  0  0  0  0
   52.4789  103.1117   31.9173 C   0  0  0  0  0  0
   50.9913   99.9083   27.3149 C   0  0  0  0  0  0
   52.8109  101.0778   30.4311 C   0  0  0  0  0  0
   51.2239  102.7724   29.7708 C   0  0  0  0  0  0
   52.4423  100.3139   29.3279 C   0  0  0  0  0  0
   50.8541  102.0033   28.6757 C   0  0  0  0  0  0
   54.1192  103.5457   33.7678 C   0  0  1  0  0  0
   52.0350  103.1865   35.2896 C   0  0  0  0  0  0
   53.4966  102.8372   35.0157 C   0  0  0  0  0  0
   50.6011  100.4763   26.0916 C   0  0  0  0  0  0
   50.9092   98.5140   27.4496 C   0  0  0  0  0  0
   51.6978  104.4886   35.6696 C   0  0  0  0  0  0
   51.0345  102.2180   35.1581 C   0  0  0  0  0  0
   55.6734  103.5624   33.7523 C   0  0  0  0  0  0
   49.3735  103.8631   35.7500 C   0  0  0  0  0  0
   50.1290   99.6475   25.0754 C   0  0  0  0  0  0
   50.4429   97.7528   26.3803 C   0  0  0  0  0  0
   50.3675  104.8279   35.8968 C   0  0  0  0  0  0
   49.7017  102.5570   35.3880 C   0  0  0  0  0  0
   57.0237  102.8618   34.9824 H   0  0  0  0  0  0
   54.3396  102.3472   32.0317 H   0  0  0  0  0  0
   53.5615  100.6828   31.1018 H   0  0  0  0  0  0
   50.7343  103.7225   29.9192 H   0  0  0  0  0  0
   52.9282   99.3617   29.1748 H   0  0  0  0  0  0
   50.0828  102.3743   28.0169 H   0  0  0  0  0  0
   53.8048  104.5927   33.7806 H   0  0  0  0  0  0
   54.0258  103.1264   35.9234 H   0  0  0  0  0  0
   53.6265  101.7565   34.9416 H   0  0  0  0  0  0
   50.6539  101.5428   25.9287 H   0  0  0  0  0  0
   51.1886   98.0231   28.3702 H   0  0  0  0  0  0
   52.4647  105.2423   35.7752 H   0  0  0  0  0  0
   51.2860  101.2099   34.8639 H   0  0  0  0  0  0
   56.0384  102.7029   33.1962 H   0  0  0  0  0  0
   56.0414  104.4356   33.2115 H   0  0  0  0  0  0
   49.8119  100.0591   24.1270 H   0  0  0  0  0  0
   50.3768   96.6774   26.4521 H   0  0  0  0  0  0
   50.1102  105.8383   36.1775 H   0  0  0  0  0  0
   48.9265  101.8128   35.2777 H   0  0  0  0  0  0
  1 22  1  0  0  0
  2  8  2  0  0  0
  3 21  1  0  0  0
  3 27  1  0  0  0
  4  8  1  0  0  0
  4 14  1  0  0  0
  4 28  1  0  0  0
  5 23  2  0  0  0
  5 24  1  0  0  0
  6  8  1  0  0  0
  6 10  2  0  0  0
  6 11  1  0  0  0
  7  9  1  0  0  0
  7 12  2  0  0  0
  7 13  1  0  0  0
  9 17  2  0  0  0
  9 18  1  0  0  0
 10 12  1  0  0  0
 10 29  1  0  0  0
 11 13  2  0  0  0
 11 30  1  0  0  0
 12 31  1  0  0  0
 13 32  1  0  0  0
 14 16  1  0  0  0
 14 21  1  0  0  0
 14 33  1  0  0  0
 15 16  1  0  0  0
 15 19  2  0  0  0
 15 20  1  0  0  0
 16 34  1  0  0  0
 16 35  1  0  0  0
 17 23  1  0  0  0
 17 36  1  0  0  0
 18 24  2  0  0  0
 18 37  1  0  0  0
 19 25  1  0  0  0
 19 38  1  0  0  0
 20 26  2  0  0  0
 20 39  1  0  0  0
 21 40  1  0  0  0
 21 41  1  0  0  0
 22 25  2  0  0  0
 22 26  1  0  0  0
 23 42  1  0  0  0
 24 43  1  0  0  0
 25 44  1  0  0  0
 26 45  1  0  0  0
M  END
> <s_m_entry_id>
28062

> <s_m_entry_name>
dock_pv.223

> <s_m_Source_Path>
/home/csk/Desktop/cluster/DUD-E-result/rock1

> <s_m_Source_File>
dock_pv.maegz

> <i_m_Source_File_Index>
223

> <chembl_id>
CHEMBL1996931

> <chembl_pref_name>
None

> <i_lp_mmshare_version>
53161

> <r_lp_tautomer_probability>
1

> <s_lp_Force_Field>
OPLS_2005

> <r_lp_Energy>
17.090065

> <b_lp_Chiralities_Consistent>
1

> <s_lp_Variant>
CHEMBL3231_lig1441-2

> <s_i_glide_gridfile>
glide-grid_2etr

> <i_i_glide_lignum>
2025

> <i_i_glide_rotatable_bonds>
8

> <r_i_docking_score>
-7.97491747179943

> <r_i_glide_ligand_efficiency>
-0.306727595069209

> <r_i_glide_ligand_efficiency_sa>
-0.908679293477725

> <r_i_glide_ligand_efficiency_ln>
-1.87288320041353

> <r_i_glide_gscore>
-7.97491747179943

> <r_i_glide_lipo>
-3.00109107294539

> <r_i_glide_hbond>
-0.328499875944944

> <r_i_glide_metal>
0

> <r_i_glide_rewards>
-2.266236755294

> <r_i_glide_evdw>
-43.8659629821777

> <r_i_glide_ecoul>
-6.51745367050171

> <r_i_glide_erotb>
0.858364241424846

> <r_i_glide_esite>
-0.0665378093557955

> <r_i_glide_emodel>
-72.466906381183

> <r_i_glide_energy>
-50.3834166526794

> <r_i_glide_einternal>
7.53274011611938

> <i_i_glide_confnum>
13

> <i_i_glide_posenum>
354

> <r_i_glide_eff_state_penalty>
0

> <s_user_duplicate_titles>
CHEMBL3231_lig1441

> <i_f3d_flags>
0

> <s_m_subgroup_title>
dock_pv

> <s_m_subgroupid>
dock_pv

> <b_m_subgroup_collapsed>
1

$$$$
CHEMBL3231_lig675
                    3D
 Schrodinger Suite 2021-1.
 50 52  0  0  1  0            999 V2000
   51.5022   97.7300   30.4474 C   0  0  0  0  0  0
   51.2699   98.4462   29.2395 O   0  0  0  0  0  0
   51.4398   99.8199   29.2049 C   0  0  0  0  0  0
   51.9472  100.5573   30.2950 C   0  0  0  0  0  0
   52.0282  101.9584   30.2499 C   0  0  0  0  0  0
   51.6041  102.6177   29.0974 C   0  0  0  0  0  0
   51.1303  101.9029   28.0102 C   0  0  0  0  0  0
   51.0517  100.5081   28.0371 C   0  0  0  0  0  0
   50.5368   99.8488   26.7911 C   0  0  0  0  0  0
   49.9132  100.4573   25.7081 C   0  0  0  0  0  0
   49.6446   99.4706   24.8099 N   0  0  0  0  0  0
   50.0438   98.2698   25.2213 N   0  0  0  0  0  0
   50.5774   98.4964   26.3991 C   0  0  0  0  0  0
   52.5193  102.7797   31.4146 C   0  0  0  0  0  0
   52.0507  103.9033   31.6078 O   0  0  0  0  0  0
   53.4716  102.2212   32.1858 N   0  0  0  0  0  0
   54.1948  102.8834   33.2835 C   0  0  0  0  0  0
   53.3525  103.6693   34.2918 C   0  0  0  0  0  0
   53.7748  104.9353   34.7095 C   0  0  0  0  0  0
   52.9607  105.7126   35.5338 C   0  0  0  0  0  0
   51.7085  105.2417   35.9223 C   0  0  0  0  0  0
   51.2638  103.9742   35.5111 C   0  0  0  0  0  0
   52.1122  103.1836   34.7244 C   0  0  0  0  0  0
   49.9749  103.4914   35.8425 N   0  0  0  0  0  0
   49.8690  102.0996   36.3106 C   0  0  0  0  0  0
   48.8505  104.2485   35.6657 C   0  0  0  0  0  0
   48.8529  105.3962   35.2150 O   0  0  0  0  0  0
   47.4889  103.6444   36.0106 C   0  0  0  0  0  0
   51.2430   96.6810   30.2983 H   0  0  0  0  0  0
   52.5515   97.7722   30.7442 H   0  0  0  0  0  0
   50.8785   98.1083   31.2594 H   0  0  0  0  0  0
   52.2518  100.0483   31.1959 H   0  0  0  0  0  0
   51.6555  103.6948   29.0268 H   0  0  0  0  0  0
   50.8363  102.4584   27.1340 H   0  0  0  0  0  0
   49.6451  101.4815   25.4943 H   0  0  0  0  0  0
   49.2044   99.6153   23.9044 H   0  0  0  0  0  0
   51.0040   97.6824   26.9675 H   0  0  0  0  0  0
   53.8750  101.3580   31.8536 H   0  0  0  0  0  0
   54.9578  103.5292   32.8361 H   0  0  0  0  0  0
   54.7414  102.1119   33.8319 H   0  0  0  0  0  0
   54.7148  105.3402   34.3650 H   0  0  0  0  0  0
   53.2835  106.6971   35.8343 H   0  0  0  0  0  0
   51.0805  105.8732   36.5356 H   0  0  0  0  0  0
   51.7833  102.2146   34.3784 H   0  0  0  0  0  0
   50.8413  101.6903   36.5852 H   0  0  0  0  0  0
   49.2345  102.0289   37.1964 H   0  0  0  0  0  0
   49.4441  101.4618   35.5329 H   0  0  0  0  0  0
   47.3380  102.6872   35.5138 H   0  0  0  0  0  0
   46.6764  104.3028   35.7043 H   0  0  0  0  0  0
   47.4221  103.5033   37.0870 H   0  0  0  0  0  0
  1  2  1  0  0  0
  1 29  1  0  0  0
  1 30  1  0  0  0
  1 31  1  0  0  0
  2  3  1  0  0  0
  3  4  2  0  0  0
  3  8  1  0  0  0
  4  5  1  0  0  0
  4 32  1  0  0  0
  5  6  2  0  0  0
  5 14  1  0  0  0
  6  7  1  0  0  0
  6 33  1  0  0  0
  7  8  2  0  0  0
  7 34  1  0  0  0
  8  9  1  0  0  0
  9 10  2  0  0  0
  9 13  1  0  0  0
 10 11  1  0  0  0
 10 35  1  0  0  0
 11 12  1  0  0  0
 11 36  1  0  0  0
 12 13  2  0  0  0
 13 37  1  0  0  0
 14 15  2  0  0  0
 14 16  1  0  0  0
 16 17  1  0  0  0
 16 38  1  0  0  0
 17 18  1  0  0  0
 17 39  1  0  0  0
 17 40  1  0  0  0
 18 19  2  0  0  0
 18 23  1  0  0  0
 19 20  1  0  0  0
 19 41  1  0  0  0
 20 21  2  0  0  0
 20 42  1  0  0  0
 21 22  1  0  0  0
 21 43  1  0  0  0
 22 23  2  0  0  0
 22 24  1  0  0  0
 23 44  1  0  0  0
 24 25  1  0  0  0
 24 26  1  0  0  0
 25 45  1  0  0  0
 25 46  1  0  0  0
 25 47  1  0  0  0
 26 27  2  0  0  0
 26 28  1  0  0  0
 28 48  1  0  0  0
 28 49  1  0  0  0
 28 50  1  0  0  0
M  END
> <s_m_entry_id>
28063

> <s_m_entry_name>
dock_pv.224

> <s_m_Source_Path>
/home/csk/Desktop/cluster/DUD-E-result/rock1

> <s_m_Source_File>
dock_pv.maegz

> <i_m_Source_File_Index>
224

> <chembl_id>
CHEMBL3968042

> <chembl_pref_name>
None

> <i_lp_mmshare_version>
53161

> <r_lp_tautomer_probability>
0.5

> <s_lp_Force_Field>
OPLS_2005

> <r_lp_Energy>
36.821759

> <b_lp_Chiralities_Consistent>
1

> <s_lp_Variant>
CHEMBL3231_lig675-1

> <s_i_glide_gridfile>
glide-grid_2etr

> <i_i_glide_lignum>
966

> <i_i_glide_rotatable_bonds>
8

> <r_i_docking_score>
-7.97265838497879

> <r_i_glide_ligand_efficiency>
-0.284737799463528

> <r_i_glide_ligand_efficiency_sa>
-0.864631660766718

> <r_i_glide_ligand_efficiency_ln>
-1.84032364267502

> <r_i_glide_gscore>
-7.97265838497879

> <r_i_glide_lipo>
-2.46095528517157

> <r_i_glide_hbond>
-0.609925587727198

> <r_i_glide_metal>
0

> <r_i_glide_rewards>
-1.86685767219641

> <r_i_glide_evdw>
-46.5554046630859

> <r_i_glide_ecoul>
-8.10855579376221

> <r_i_glide_erotb>
0.568359291187481

> <r_i_glide_esite>
-0.0592255288524639

> <r_i_glide_emodel>
-76.7373361253426

> <r_i_glide_energy>
-54.6639604568481

> <r_i_glide_einternal>
8.94124126434326

> <i_i_glide_confnum>
38

> <i_i_glide_posenum>
298

> <r_i_glide_eff_state_penalty>
0

> <s_user_duplicate_titles>
CHEMBL3231_lig675

> <i_f3d_flags>
0

> <s_m_subgroup_title>
dock_pv

> <s_m_subgroupid>
dock_pv

> <b_m_subgroup_collapsed>
1

$$$$
CHEMBL3231_lig258
                    3D
 Schrodinger Suite 2021-1.
 34 36  0  0  1  0            999 V2000
   49.9947   99.2731   25.0928 N   0  0  0  0  0  0
   50.0065  100.6231   25.2663 C   0  0  0  0  0  0
   50.4434  101.2535   26.3708 C   0  0  0  0  0  0
   50.4192   98.3849   26.0257 C   0  0  0  0  0  0
   50.8740   99.0259   27.3376 C   0  0  0  0  0  0
   50.9347  100.4252   27.4827 C   0  0  0  0  0  0
   51.4822  100.9847   28.6397 C   0  0  0  0  0  0
   51.9909  100.1569   29.6586 C   0  0  0  0  0  0
   51.8625   98.7741   29.5277 C   0  0  0  0  0  0
   51.2988   98.2067   28.3838 C   0  0  0  0  0  0
   52.6407  100.6028   30.7975 O   0  0  0  0  0  0
   52.7728  102.0018   31.0426 C   0  0  2  0  0  0
   50.4425   97.1851   25.7661 O   0  0  0  0  0  0
   53.9165  102.2678   32.0320 C   0  0  0  0  0  0
   53.4815  103.5121   32.8207 C   0  0  2  0  0  0
   51.9922  103.2275   33.0305 C   0  0  0  0  0  0
   51.5123  102.5328   31.7460 C   0  0  0  0  0  0
   53.6427  104.7024   32.0068 N   0  0  0  0  0  0
   49.6633   98.8789   24.2279 H   0  0  0  0  0  0
   49.6034  101.1036   24.3893 H   0  0  0  0  0  0
   50.4125  102.3321   26.4432 H   0  0  0  0  0  0
   51.5298  102.0576   28.7130 H   0  0  0  0  0  0
   52.2374   98.1295   30.3091 H   0  0  0  0  0  0
   51.2431   97.1302   28.3021 H   0  0  0  0  0  0
   53.0136  102.5358   30.1212 H   0  0  0  0  0  0
   54.8417  102.4656   31.4863 H   0  0  0  0  0  0
   54.1329  101.4220   32.6849 H   0  0  0  0  0  0
   53.9943  103.5266   33.7849 H   0  0  0  0  0  0
   51.8503  102.6040   33.9134 H   0  0  0  0  0  0
   51.4258  104.1406   33.2209 H   0  0  0  0  0  0
   50.9771  103.2166   31.0886 H   0  0  0  0  0  0
   50.8432  101.7181   32.0111 H   0  0  0  0  0  0
   53.2838  105.5725   32.4128 H   0  0  0  0  0  0
   54.6143  104.8874   31.7557 H   0  0  0  0  0  0
  1  4  1  0  0  0
  1  2  1  0  0  0
  1 19  1  0  0  0
  2  3  2  0  0  0
  2 20  1  0  0  0
  3  6  1  0  0  0
  3 21  1  0  0  0
  4 13  2  0  0  0
  4  5  1  0  0  0
  5 10  1  0  0  0
  5  6  2  0  0  0
  6  7  1  0  0  0
  7  8  2  0  0  0
  7 22  1  0  0  0
  8  9  1  0  0  0
  8 11  1  0  0  0
  9 10  2  0  0  0
  9 23  1  0  0  0
 10 24  1  0  0  0
 11 12  1  0  0  0
 12 14  1  0  0  0
 12 17  1  0  0  0
 12 25  1  0  0  0
 14 15  1  0  0  0
 14 26  1  0  0  0
 14 27  1  0  0  0
 15 16  1  0  0  0
 15 18  1  0  0  0
 15 28  1  0  0  0
 16 17  1  0  0  0
 16 29  1  0  0  0
 16 30  1  0  0  0
 17 31  1  0  0  0
 17 32  1  0  0  0
 18 33  1  0  0  0
 18 34  1  0  0  0
M  END
> <s_m_entry_id>
28064

> <s_m_entry_name>
dock_pv.225

> <s_m_Source_Path>
/home/csk/Desktop/cluster/DUD-E-result/rock1

> <s_m_Source_File>
dock_pv.maegz

> <i_m_Source_File_Index>
225

> <chembl_id>
CHEMBL1667976

> <chembl_pref_name>
None

> <i_lp_mmshare_version>
53161

> <r_lp_tautomer_probability>
1

> <s_lp_Force_Field>
OPLS_2005

> <r_lp_Energy>
35.018856

> <b_lp_Chiralities_Consistent>
1

> <s_lp_Variant>
CHEMBL3231_lig258-1

> <s_i_glide_gridfile>
glide-grid_2etr

> <i_i_glide_lignum>
402

> <i_i_glide_rotatable_bonds>
2

> <r_i_docking_score>
-7.96864237490452

> <r_i_glide_ligand_efficiency>
-0.442702354161362

> <r_i_glide_ligand_efficiency_sa>
-1.1602083837466

> <r_i_glide_ligand_efficiency_ln>
-2.04829843285049

> <r_i_glide_gscore>
-7.96864237490452

> <r_i_glide_lipo>
-2.38984835824216

> <r_i_glide_hbond>
-0.550028356509484

> <r_i_glide_metal>
0

> <r_i_glide_rewards>
-3.02990282517117

> <r_i_glide_evdw>
-30.2705192565918

> <r_i_glide_ecoul>
-7.1195650100708

> <r_i_glide_erotb>
0.582597879358495

> <r_i_glide_esite>
0

> <r_i_glide_emodel>
-52.9198605440396

> <r_i_glide_energy>
-37.3900842666626

> <r_i_glide_einternal>
5.01637935638428

> <i_i_glide_confnum>
18

> <i_i_glide_posenum>
218

> <r_i_glide_eff_state_penalty>
0

> <s_user_duplicate_titles>
CHEMBL3231_lig258

> <i_f3d_flags>
0

> <s_m_subgroup_title>
dock_pv

> <s_m_subgroupid>
dock_pv

> <b_m_subgroup_collapsed>
1

$$$$
CHEMBL3231_lig304
                    3D
 Schrodinger Suite 2021-1.
 39 42  0  0  1  0            999 V2000
   53.2839   97.9279   32.6030 C   0  0  0  0  0  0
   54.0504   98.9658   33.0260 N   0  0  0  0  0  0
   54.0173  100.0871   32.2760 C   0  0  0  0  0  0
   53.2739  100.2746   31.1631 N   0  0  0  0  0  0
   52.4963   99.2334   30.7507 C   0  0  0  0  0  0
   52.4631   98.0331   31.4789 C   0  0  0  0  0  0
   51.7570   99.4247   29.4612 C   0  0  0  0  0  0
   51.3809   98.3035   28.7032 C   0  0  0  0  0  0
   50.8877  100.9268   27.7283 C   0  0  0  0  0  0
   51.4847  100.7127   28.9689 C   0  0  0  0  0  0
   50.5911   99.8113   26.9350 C   0  0  0  0  0  0
   50.8466   98.5173   27.4343 C   0  0  0  0  0  0
   50.4765   97.6488   26.4267 N   0  0  0  0  0  0
   50.0299   98.3033   25.3422 N   0  0  0  0  0  0
   50.0430   99.5751   25.6421 C   0  0  0  0  0  0
   49.5768  100.5431   24.8110 N   0  0  0  0  0  0
   54.8427  101.1258   32.6683 N   0  0  0  0  0  0
   53.3071   96.7034   33.2838 N   0  0  0  0  0  0
   54.1187   96.2066   34.3171 C   0  0  0  0  0  0
   53.6434   95.1100   35.0401 C   0  0  0  0  0  0
   54.4066   94.5621   36.0679 C   0  0  0  0  0  0
   55.6550   95.1026   36.3630 C   0  0  0  0  0  0
   56.1507   96.1807   35.6345 C   0  0  0  0  0  0
   55.3849   96.7302   34.6101 C   0  0  0  0  0  0
   51.8570   97.1935   31.1752 H   0  0  0  0  0  0
   51.5590   97.3013   29.0524 H   0  0  0  0  0  0
   50.7000  101.9278   27.3689 H   0  0  0  0  0  0
   51.7600  101.5778   29.5555 H   0  0  0  0  0  0
   50.5434   96.6410   26.4287 H   0  0  0  0  0  0
   49.2457  101.4245   25.1739 H   0  0  0  0  0  0
   49.2434  100.3032   23.8799 H   0  0  0  0  0  0
   55.0593  101.8032   31.9522 H   0  0  0  0  0  0
   55.5391  100.8886   33.3580 H   0  0  0  0  0  0
   52.5940   96.0530   32.9697 H   0  0  0  0  0  0
   52.6820   94.6757   34.8063 H   0  0  0  0  0  0
   54.0430   93.7093   36.6221 H   0  0  0  0  0  0
   56.2563   94.6645   37.1458 H   0  0  0  0  0  0
   57.1313   96.5791   35.8508 H   0  0  0  0  0  0
   55.8052   97.5427   34.0381 H   0  0  0  0  0  0
  1  6  1  0  0  0
  1  2  2  0  0  0
  1 18  1  0  0  0
  2  3  1  0  0  0
  3  4  2  0  0  0
  3 17  1  0  0  0
  4  5  1  0  0  0
  5  6  2  0  0  0
  5  7  1  0  0  0
  6 25  1  0  0  0
  7  8  2  0  0  0
  7 10  1  0  0  0
  8 12  1  0  0  0
  8 26  1  0  0  0
  9 11  1  0  0  0
  9 10  2  0  0  0
  9 27  1  0  0  0
 10 28  1  0  0  0
 11 15  1  0  0  0
 11 12  2  0  0  0
 12 13  1  0  0  0
 13 14  1  0  0  0
 13 29  1  0  0  0
 14 15  2  0  0  0
 15 16  1  0  0  0
 16 30  1  0  0  0
 16 31  1  0  0  0
 17 32  1  0  0  0
 17 33  1  0  0  0
 18 19  1  0  0  0
 18 34  1  0  0  0
 19 20  2  0  0  0
 19 24  1  0  0  0
 20 21  1  0  0  0
 20 35  1  0  0  0
 21 22  2  0  0  0
 21 36  1  0  0  0
 22 23  1  0  0  0
 22 37  1  0  0  0
 23 24  2  0  0  0
 23 38  1  0  0  0
 24 39  1  0  0  0
M  END
> <s_m_entry_id>
28065

> <s_m_entry_name>
dock_pv.226

> <s_m_Source_Path>
/home/csk/Desktop/cluster/DUD-E-result/rock1

> <s_m_Source_File>
dock_pv.maegz

> <i_m_Source_File_Index>
226

> <chembl_id>
CHEMBL1765876

> <chembl_pref_name>
None

> <i_lp_mmshare_version>
53161

> <r_lp_tautomer_probability>
0.999999624730965

> <s_lp_Force_Field>
OPLS_2005

> <r_lp_Energy>
8.956741

> <b_lp_Chiralities_Consistent>
1

> <s_lp_Variant>
CHEMBL3231_lig304-1

> <s_i_glide_gridfile>
glide-grid_2etr

> <i_i_glide_lignum>
452

> <i_i_glide_rotatable_bonds>
3

> <r_i_docking_score>
-7.96311830587445

> <r_i_glide_ligand_efficiency>
-0.331796596078102

> <r_i_glide_ligand_efficiency_sa>
-0.957066995232337

> <r_i_glide_ligand_efficiency_ln>
-1.90593961428479

> <r_i_glide_gscore>
-7.96311830587445

> <r_i_glide_lipo>
-2.14742505824979

> <r_i_glide_hbond>
-0.730068578531766

> <r_i_glide_metal>
0

> <r_i_glide_rewards>
-2.37368856060606

> <r_i_glide_evdw>
-38.0837821960449

> <r_i_glide_ecoul>
-7.57840728759766

> <r_i_glide_erotb>
0.388464661887145

> <r_i_glide_esite>
-0.0594505674320828

> <r_i_glide_emodel>
-66.0865800850213

> <r_i_glide_energy>
-45.6621894836426

> <r_i_glide_einternal>
0.733324646949768

> <i_i_glide_confnum>
2

> <i_i_glide_posenum>
398

> <r_i_glide_eff_state_penalty>
0

> <s_user_duplicate_titles>
CHEMBL3231_lig304

> <i_f3d_flags>
0

> <s_m_subgroup_title>
dock_pv

> <s_m_subgroupid>
dock_pv

> <b_m_subgroup_collapsed>
1

$$$$
CHEMBL3231_lig706
                    3D
 Schrodinger Suite 2021-1.
 44 46  0  0  1  0            999 V2000
   51.0423   97.9034   29.8998 C   0  0  0  0  0  0
   51.9355   98.6482   29.0742 O   0  0  0  0  0  0
   51.7258  100.0050   29.0704 C   0  0  0  0  0  0
   52.2643  100.7574   30.1215 C   0  0  0  0  0  0
   52.0872  102.1466   30.1815 C   0  0  0  0  0  0
   51.3368  102.7683   29.1807 C   0  0  0  0  0  0
   50.8289  102.0291   28.1155 C   0  0  0  0  0  0
   51.0333  100.6454   28.0232 C   0  0  0  0  0  0
   50.5252   99.9392   26.7934 C   0  0  0  0  0  0
   50.5674   98.5725   26.4437 C   0  0  0  0  0  0
   50.0430   98.3025   25.2692 N   0  0  0  0  0  0
   49.6480   99.4894   24.8109 N   0  0  0  0  0  0
   49.9125  100.5071   25.6804 C   0  0  0  0  0  0
   52.6825  102.9748   31.2916 C   0  0  0  0  0  0
   52.0425  103.9031   31.7879 O   0  0  0  0  0  0
   53.9344  102.6484   31.6576 N   0  0  0  0  0  0
   54.7565  103.3515   32.6522 C   0  0  0  0  0  0
   54.3365  103.2381   34.1422 C   0  0  2  0  0  0
   55.4737  103.4501   34.9650 O   0  0  0  0  0  0
   53.5934  101.9507   34.4979 C   0  0  0  0  0  0
   54.2673  100.7257   34.5885 C   0  0  0  0  0  0
   53.5632   99.5582   34.8835 C   0  0  0  0  0  0
   52.1839   99.6070   35.0845 C   0  0  0  0  0  0
   51.5036  100.8202   34.9857 C   0  0  0  0  0  0
   49.7940  100.8856   35.2111 Cl  0  0  0  0  0  0
   52.2076  101.9869   34.6955 C   0  0  0  0  0  0
   51.4260   96.8910   30.0272 H   0  0  0  0  0  0
   50.9282   98.3368   30.8959 H   0  0  0  0  0  0
   50.0551   97.8156   29.4413 H   0  0  0  0  0  0
   52.8203  100.2431   30.8933 H   0  0  0  0  0  0
   51.1785  103.8376   29.1975 H   0  0  0  0  0  0
   50.2894  102.5600   27.3462 H   0  0  0  0  0  0
   50.9891   97.7765   27.0382 H   0  0  0  0  0  0
   49.2147   99.6032   23.8986 H   0  0  0  0  0  0
   49.6461  101.5226   25.4291 H   0  0  0  0  0  0
   54.3952  101.9100   31.1442 H   0  0  0  0  0  0
   54.8422  104.4093   32.4107 H   0  0  0  0  0  0
   55.7593  102.9440   32.5211 H   0  0  0  0  0  0
   53.6611  104.0700   34.3519 H   0  0  0  0  0  0
   56.1273  102.7714   34.7734 H   0  0  0  0  0  0
   55.3340  100.6713   34.4231 H   0  0  0  0  0  0
   54.0879   98.6162   34.9517 H   0  0  0  0  0  0
   51.6443   98.7022   35.3106 H   0  0  0  0  0  0
   51.6712  102.9211   34.6102 H   0  0  0  0  0  0
  1  2  1  0  0  0
  1 27  1  0  0  0
  1 28  1  0  0  0
  1 29  1  0  0  0
  2  3  1  0  0  0
  3  4  2  0  0  0
  3  8  1  0  0  0
  4  5  1  0  0  0
  4 30  1  0  0  0
  5  6  2  0  0  0
  5 14  1  0  0  0
  6  7  1  0  0  0
  6 31  1  0  0  0
  7  8  2  0  0  0
  7 32  1  0  0  0
  8  9  1  0  0  0
  9 10  1  0  0  0
  9 13  2  0  0  0
 10 11  2  0  0  0
 10 33  1  0  0  0
 11 12  1  0  0  0
 12 13  1  0  0  0
 12 34  1  0  0  0
 13 35  1  0  0  0
 14 15  2  0  0  0
 14 16  1  0  0  0
 16 17  1  0  0  0
 16 36  1  0  0  0
 17 18  1  0  0  0
 17 37  1  0  0  0
 17 38  1  0  0  0
 18 19  1  0  0  0
 18 20  1  0  0  0
 18 39  1  0  0  0
 19 40  1  0  0  0
 20 21  2  0  0  0
 20 26  1  0  0  0
 21 22  1  0  0  0
 21 41  1  0  0  0
 22 23  2  0  0  0
 22 42  1  0  0  0
 23 24  1  0  0  0
 23 43  1  0  0  0
 24 25  1  0  0  0
 24 26  2  0  0  0
 26 44  1  0  0  0
M  END
> <s_m_entry_id>
28066

> <s_m_entry_name>
dock_pv.227

> <s_m_Source_Path>
/home/csk/Desktop/cluster/DUD-E-result/rock1

> <s_m_Source_File>
dock_pv.maegz

> <i_m_Source_File_Index>
227

> <chembl_id>
CHEMBL3891207

> <chembl_pref_name>
None

> <i_lp_mmshare_version>
53161

> <r_lp_tautomer_probability>
0.5

> <s_lp_Force_Field>
OPLS_2005

> <r_lp_Energy>
23.953144

> <b_lp_Chiralities_Consistent>
1

> <s_lp_Variant>
CHEMBL3231_lig706-1

> <s_i_glide_gridfile>
glide-grid_2etr

> <i_i_glide_lignum>
1003

> <i_i_glide_rotatable_bonds>
8

> <r_i_docking_score>
-7.95935445127299

> <r_i_glide_ligand_efficiency>
-0.306129017356653

> <r_i_glide_ligand_efficiency_sa>
-0.906906009359569

> <r_i_glide_ligand_efficiency_ln>
-1.86922827610933

> <r_i_glide_gscore>
-7.95935445127299

> <r_i_glide_lipo>
-2.65663091964747

> <r_i_glide_hbond>
-0.56037825075442

> <r_i_glide_metal>
0

> <r_i_glide_rewards>
-1.74162427670528

> <r_i_glide_evdw>
-43.9784774780273

> <r_i_glide_ecoul>
-8.08331108093262

> <r_i_glide_erotb>
0.4887996001085

> <r_i_glide_esite>
-0.078100068233059

> <r_i_glide_emodel>
-70.4201248156816

> <r_i_glide_energy>
-52.06178855896

> <r_i_glide_einternal>
13.7619905471802

> <i_i_glide_confnum>
13

> <i_i_glide_posenum>
110

> <r_i_glide_eff_state_penalty>
0

> <s_user_duplicate_titles>
CHEMBL3231_lig706

> <i_f3d_flags>
0

> <s_m_subgroup_title>
dock_pv

> <s_m_subgroupid>
dock_pv

> <b_m_subgroup_collapsed>
1

$$$$
CHEMBL3231_lig665
                    3D
 Schrodinger Suite 2021-1.
 47 49  0  0  1  0            999 V2000
   50.8413  103.6761   28.6408 C   0  0  0  0  0  0
   50.8398  102.3576   28.1026 O   0  0  0  0  0  0
   51.2595  101.2858   28.8721 C   0  0  0  0  0  0
   51.6707  101.4258   30.2099 C   0  0  0  0  0  0
   52.0442  100.3160   30.9881 C   0  0  0  0  0  0
   52.0341   99.0534   30.3888 C   0  0  0  0  0  0
   51.6435   98.9015   29.0638 C   0  0  0  0  0  0
   51.2414  100.0006   28.2941 C   0  0  0  0  0  0
   50.7631   99.7351   26.8942 C   0  0  0  0  0  0
   50.4650   98.4915   26.3006 C   0  0  0  0  0  0
   50.0425   98.5809   25.0634 N   0  0  0  0  0  0
   50.0427   99.8876   24.8108 N   0  0  0  0  0  0
   50.4806  100.6334   25.8681 C   0  0  0  0  0  0
   52.3951  100.4460   32.4555 C   0  0  0  0  0  0
   52.4307   99.4590   33.1929 O   0  0  0  0  0  0
   52.6267  101.6925   32.9033 N   0  0  0  0  0  0
   52.7486  102.1252   34.3004 C   0  0  1  0  0  0
   53.8169  103.2476   34.4080 C   0  0  0  0  0  0
   53.7025  104.3830   33.3693 C   0  0  0  0  0  0
   54.4497  105.5030   33.7760 O   0  0  0  0  0  0
   51.3685  102.4563   34.9152 C   0  0  0  0  0  0
   51.0232  103.7480   35.3500 C   0  0  0  0  0  0
   49.7653  104.0005   35.8893 C   0  0  0  0  0  0
   48.8446  102.9646   36.0134 C   0  0  0  0  0  0
   49.1757  101.6759   35.6104 C   0  0  0  0  0  0
   50.4342  101.4233   35.0721 C   0  0  0  0  0  0
   50.4897  104.3730   27.8794 H   0  0  0  0  0  0
   50.1709  103.7601   29.4966 H   0  0  0  0  0  0
   51.8466  103.9873   28.9322 H   0  0  0  0  0  0
   51.6633  102.4040   30.6607 H   0  0  0  0  0  0
   52.3172   98.1724   30.9490 H   0  0  0  0  0  0
   51.6455   97.9061   28.6513 H   0  0  0  0  0  0
   50.5453   97.5250   26.7763 H   0  0  0  0  0  0
   49.7350  100.2576   23.9174 H   0  0  0  0  0  0
   50.5355  101.7098   25.7995 H   0  0  0  0  0  0
   52.7146  102.4209   32.2131 H   0  0  0  0  0  0
   53.1447  101.3013   34.9009 H   0  0  0  0  0  0
   53.8149  103.6535   35.4227 H   0  0  0  0  0  0
   54.8068  102.7998   34.2976 H   0  0  0  0  0  0
   54.0095  104.0539   32.3757 H   0  0  0  0  0  0
   52.6661  104.7025   33.2525 H   0  0  0  0  0  0
   54.1639  106.2532   33.2334 H   0  0  0  0  0  0
   51.7130  104.5725   35.2762 H   0  0  0  0  0  0
   49.5077  104.9974   36.2163 H   0  0  0  0  0  0
   47.8696  103.1578   36.4342 H   0  0  0  0  0  0
   48.4616  100.8748   35.7195 H   0  0  0  0  0  0
   50.6759  100.4147   34.7740 H   0  0  0  0  0  0
  1  2  1  0  0  0
  1 27  1  0  0  0
  1 28  1  0  0  0
  1 29  1  0  0  0
  2  3  1  0  0  0
  3  4  2  0  0  0
  3  8  1  0  0  0
  4  5  1  0  0  0
  4 30  1  0  0  0
  5  6  2  0  0  0
  5 14  1  0  0  0
  6  7  1  0  0  0
  6 31  1  0  0  0
  7  8  2  0  0  0
  7 32  1  0  0  0
  8  9  1  0  0  0
  9 10  1  0  0  0
  9 13  2  0  0  0
 10 11  2  0  0  0
 10 33  1  0  0  0
 11 12  1  0  0  0
 12 13  1  0  0  0
 12 34  1  0  0  0
 13 35  1  0  0  0
 14 15  2  0  0  0
 14 16  1  0  0  0
 16 17  1  0  0  0
 16 36  1  0  0  0
 17 18  1  0  0  0
 17 21  1  0  0  0
 17 37  1  0  0  0
 18 19  1  0  0  0
 18 38  1  0  0  0
 18 39  1  0  0  0
 19 20  1  0  0  0
 19 40  1  0  0  0
 19 41  1  0  0  0
 20 42  1  0  0  0
 21 22  2  0  0  0
 21 26  1  0  0  0
 22 23  1  0  0  0
 22 43  1  0  0  0
 23 24  2  0  0  0
 23 44  1  0  0  0
 24 25  1  0  0  0
 24 45  1  0  0  0
 25 26  2  0  0  0
 25 46  1  0  0  0
 26 47  1  0  0  0
M  END
> <s_m_entry_id>
28067

> <s_m_entry_name>
dock_pv.228

> <s_m_Source_Path>
/home/csk/Desktop/cluster/DUD-E-result/rock1

> <s_m_Source_File>
dock_pv.maegz

> <i_m_Source_File_Index>
228

> <chembl_id>
CHEMBL3957255

> <chembl_pref_name>
None

> <i_lp_mmshare_version>
53161

> <r_lp_tautomer_probability>
0.5

> <s_lp_Force_Field>
OPLS_2005

> <r_lp_Energy>
22.754625

> <b_lp_Chiralities_Consistent>
1

> <s_lp_Variant>
CHEMBL3231_lig665-2

> <s_i_glide_gridfile>
glide-grid_2etr

> <i_i_glide_lignum>
956

> <i_i_glide_rotatable_bonds>
9

> <r_i_docking_score>
-7.95926928896519

> <r_i_glide_ligand_efficiency>
-0.306125741883277

> <r_i_glide_ligand_efficiency_sa>
-0.906896305782578

> <r_i_glide_ligand_efficiency_ln>
-1.86920827602078

> <r_i_glide_gscore>
-7.95926928896519

> <r_i_glide_lipo>
-3.05587482925041

> <r_i_glide_hbond>
-0.497657485136563

> <r_i_glide_metal>
0

> <r_i_glide_rewards>
-2.07761778673265

> <r_i_glide_evdw>
-43.7883377075195

> <r_i_glide_ecoul>
-5.17579889297485

> <r_i_glide_erotb>
0.648715347840463

> <r_i_glide_esite>
-0.0110478163638271

> <r_i_glide_emodel>
-70.7294854289322

> <r_i_glide_energy>
-48.9641366004944

> <r_i_glide_einternal>
4.60375213623047

> <i_i_glide_confnum>
3

> <i_i_glide_posenum>
143

> <r_i_glide_eff_state_penalty>
0

> <s_user_duplicate_titles>
CHEMBL3231_lig665

> <i_f3d_flags>
0

> <s_m_subgroup_title>
dock_pv

> <s_m_subgroupid>
dock_pv

> <b_m_subgroup_collapsed>
1

$$$$
CHEMBL3231_lig658
                    3D
 Schrodinger Suite 2021-1.
 54 57  0  0  1  0            999 V2000
   51.4746   97.7046   30.3906 C   0  0  0  0  0  0
   51.2466   98.4228   29.1800 O   0  0  0  0  0  0
   51.3232   99.8032   29.1653 C   0  0  0  0  0  0
   51.7902  100.5417   30.2628 C   0  0  0  0  0  0
   51.7880  101.9449   30.2549 C   0  0  0  0  0  0
   51.2979  102.6138   29.1332 C   0  0  0  0  0  0
   50.8545  101.8977   28.0301 C   0  0  0  0  0  0
   50.8870  100.4966   28.0185 C   0  0  0  0  0  0
   50.4416   99.8082   26.7643 C   0  0  0  0  0  0
   49.8567  100.3911   25.6472 C   0  0  0  0  0  0
   49.6438   99.3814   24.7596 N   0  0  0  0  0  0
   50.0430   98.1953   25.2110 N   0  0  0  0  0  0
   50.5232   98.4508   26.4002 C   0  0  0  0  0  0
   52.2445  102.7298   31.4531 C   0  0  0  0  0  0
   51.6773  103.7841   31.7536 O   0  0  0  0  0  0
   53.2626  102.1886   32.1508 N   0  0  0  0  0  0
   53.7797  102.6838   33.4254 C   0  0  0  0  0  0
   52.7095  102.8017   34.5051 C   0  0  0  0  0  0
   52.1786  101.6603   35.1098 C   0  0  0  0  0  0
   51.1586  101.7829   36.0488 C   0  0  0  0  0  0
   50.6700  103.0443   36.3968 C   0  0  0  0  0  0
   51.1988  104.2043   35.8080 C   0  0  0  0  0  0
   52.2385  104.0626   34.8733 C   0  0  0  0  0  0
   50.6418  105.5634   36.1727 C   0  0  0  0  0  0
   49.8750  105.7010   37.1315 O   0  0  0  0  0  0
   50.9906  106.5805   35.3596 N   0  0  0  0  0  0
   50.6937  107.9890   35.5671 C   0  0  0  0  0  0
   51.3516  108.6349   36.8011 C   0  0  0  0  0  0
   50.3111  108.8072   34.3582 C   0  0  0  0  0  0
   49.2502  108.3661   35.3402 C   0  0  0  0  0  0
   51.2435   96.6525   30.2304 H   0  0  0  0  0  0
   52.5178   97.7724   30.7034 H   0  0  0  0  0  0
   50.8310   98.0574   31.1974 H   0  0  0  0  0  0
   52.1355  100.0263   31.1471 H   0  0  0  0  0  0
   51.2798  103.6944   29.1022 H   0  0  0  0  0  0
   50.5110  102.4556   27.1726 H   0  0  0  0  0  0
   49.5798  101.4070   25.4049 H   0  0  0  0  0  0
   49.2347   99.5027   23.8390 H   0  0  0  0  0  0
   50.9370   97.6503   26.9945 H   0  0  0  0  0  0
   53.7799  101.4382   31.7157 H   0  0  0  0  0  0
   54.5500  101.9896   33.7695 H   0  0  0  0  0  0
   54.2943  103.6330   33.2667 H   0  0  0  0  0  0
   52.5378  100.6788   34.8351 H   0  0  0  0  0  0
   50.7417  100.8992   36.5106 H   0  0  0  0  0  0
   49.8710  103.1098   37.1244 H   0  0  0  0  0  0
   52.6735  104.9246   34.3846 H   0  0  0  0  0  0
   51.7456  106.4087   34.7078 H   0  0  0  0  0  0
   51.0958  109.6916   36.8890 H   0  0  0  0  0  0
   51.0478  108.1434   37.7255 H   0  0  0  0  0  0
   52.4387  108.5698   36.7368 H   0  0  0  0  0  0
   50.6186  109.8524   34.3226 H   0  0  0  0  0  0
   50.3812  108.3296   33.3813 H   0  0  0  0  0  0
   48.5375  107.5907   35.0605 H   0  0  0  0  0  0
   48.8191  109.1019   36.0101 H   0  0  0  0  0  0
  1  2  1  0  0  0
  1 31  1  0  0  0
  1 32  1  0  0  0
  1 33  1  0  0  0
  2  3  1  0  0  0
  3  4  2  0  0  0
  3  8  1  0  0  0
  4  5  1  0  0  0
  4 34  1  0  0  0
  5  6  2  0  0  0
  5 14  1  0  0  0
  6  7  1  0  0  0
  6 35  1  0  0  0
  7  8  2  0  0  0
  7 36  1  0  0  0
  8  9  1  0  0  0
  9 10  2  0  0  0
  9 13  1  0  0  0
 10 11  1  0  0  0
 10 37  1  0  0  0
 11 12  1  0  0  0
 11 38  1  0  0  0
 12 13  2  0  0  0
 13 39  1  0  0  0
 14 15  2  0  0  0
 14 16  1  0  0  0
 16 17  1  0  0  0
 16 40  1  0  0  0
 17 18  1  0  0  0
 17 41  1  0  0  0
 17 42  1  0  0  0
 18 19  2  0  0  0
 18 23  1  0  0  0
 19 20  1  0  0  0
 19 43  1  0  0  0
 20 21  2  0  0  0
 20 44  1  0  0  0
 21 22  1  0  0  0
 21 45  1  0  0  0
 22 23  2  0  0  0
 22 24  1  0  0  0
 23 46  1  0  0  0
 24 25  2  0  0  0
 24 26  1  0  0  0
 26 27  1  0  0  0
 26 47  1  0  0  0
 27 28  1  0  0  0
 27 29  1  0  0  0
 27 30  1  0  0  0
 28 48  1  0  0  0
 28 49  1  0  0  0
 28 50  1  0  0  0
 29 30  1  0  0  0
 29 51  1  0  0  0
 29 52  1  0  0  0
 30 53  1  0  0  0
 30 54  1  0  0  0
M  END
> <s_m_entry_id>
28068

> <s_m_entry_name>
dock_pv.229

> <s_m_Source_Path>
/home/csk/Desktop/cluster/DUD-E-result/rock1

> <s_m_Source_File>
dock_pv.maegz

> <i_m_Source_File_Index>
229

> <chembl_id>
CHEMBL3920062

> <chembl_pref_name>
None

> <i_lp_mmshare_version>
53161

> <r_lp_tautomer_probability>
0.5

> <s_lp_Force_Field>
OPLS_2005

> <r_lp_Energy>
39.73461

> <b_lp_Chiralities_Consistent>
1

> <s_lp_Variant>
CHEMBL3231_lig658-1

> <s_i_glide_gridfile>
glide-grid_2etr

> <i_i_glide_lignum>
948

> <i_i_glide_rotatable_bonds>
9

> <r_i_docking_score>
-7.95858706658641

> <r_i_glide_ligand_efficiency>
-0.26528623555288

> <r_i_glide_ligand_efficiency_sa>
-0.824306013557499

> <r_i_glide_ligand_efficiency_ln>
-1.80827769727991

> <r_i_glide_gscore>
-7.95858706658641

> <r_i_glide_lipo>
-2.27814525616305

> <r_i_glide_hbond>
-0.720134443916795

> <r_i_glide_metal>
0

> <r_i_glide_rewards>
-1.62086017869827

> <r_i_glide_evdw>
-45.7368621826172

> <r_i_glide_ecoul>
-10.8070869445801

> <r_i_glide_erotb>
0.6724323314696

> <r_i_glide_esite>
-0.103973368460016

> <r_i_glide_emodel>
-83.3065300719378

> <r_i_glide_energy>
-56.5439491271973

> <r_i_glide_einternal>
2.97057175636292

> <i_i_glide_confnum>
96

> <i_i_glide_posenum>
227

> <r_i_glide_eff_state_penalty>
0

> <s_user_duplicate_titles>
CHEMBL3231_lig658

> <i_f3d_flags>
0

> <s_m_subgroup_title>
dock_pv

> <s_m_subgroupid>
dock_pv

> <b_m_subgroup_collapsed>
1

$$$$
CHEMBL3231_lig1299
                    3D
 Schrodinger Suite 2021-1.
 50 53  0  0  1  0            999 V2000
   54.6904   97.2679   31.5549 C   0  0  0  0  0  0
   54.2626   98.2803   32.6388 C   0  0  0  0  0  0
   53.3311   97.6112   33.6770 C   0  0  0  0  0  0
   53.8101   99.5683   32.0490 N   0  0  0  0  0  0
   54.9562  100.3845   31.6123 C   0  0  0  0  0  0
   52.5081   99.8945   31.7859 C   0  0  0  0  0  0
   51.5486   99.1601   32.0100 O   0  0  0  0  0  0
   52.2344  101.1773   31.1857 C   0  0  0  0  0  0
   51.7866  101.5104   29.8921 C   0  0  0  0  0  0
   51.7062  102.8335   29.8059 N   0  0  0  0  0  0
   52.0559  103.4027   31.0097 N   0  0  0  0  0  0
   52.3868  102.3964   31.8187 N   0  0  0  0  0  0
   52.7156  102.6991   33.2103 C   0  0  0  0  0  0
   51.4854  103.0097   34.0585 C   0  0  0  0  0  0
   51.2153  104.3266   34.4416 C   0  0  0  0  0  0
   50.0885  104.6083   35.2110 C   0  0  0  0  0  0
   49.2349  103.5748   35.5934 C   0  0  0  0  0  0
   49.4971  102.2598   35.2137 C   0  0  0  0  0  0
   50.6233  101.9770   34.4432 C   0  0  0  0  0  0
   51.3902  100.6419   28.7181 C   0  0  0  0  0  0
   51.6427   99.2629   28.6956 C   0  0  0  0  0  0
   51.2434   98.4458   27.6405 C   0  0  0  0  0  0
   50.5989   99.0310   26.5489 C   0  0  0  0  0  0
   50.1548   98.4077   25.4175 N   0  0  0  0  0  0
   49.6431   99.4242   24.7098 N   0  0  0  0  0  0
   49.6827  100.6510   25.3109 C   0  0  0  0  0  0
   50.3406  100.4343   26.5428 C   0  0  0  0  0  0
   50.7292  101.2290   27.6275 C   0  0  0  0  0  0
   54.9120   96.2949   31.9923 H   0  0  0  0  0  0
   53.9095   97.1159   30.8114 H   0  0  0  0  0  0
   55.6106   97.5756   31.0541 H   0  0  0  0  0  0
   55.1643   98.5144   33.2085 H   0  0  0  0  0  0
   53.8341   96.7711   34.1575 H   0  0  0  0  0  0
   53.0277   98.3058   34.4607 H   0  0  0  0  0  0
   52.4434   97.1841   33.2111 H   0  0  0  0  0  0
   54.6920  101.3259   31.1303 H   0  0  0  0  0  0
   55.5899  100.6289   32.4667 H   0  0  0  0  0  0
   55.5707   99.8311   30.8999 H   0  0  0  0  0  0
   53.2561  101.8578   33.6435 H   0  0  0  0  0  0
   53.4191  103.5351   33.2213 H   0  0  0  0  0  0
   51.8772  105.1299   34.1459 H   0  0  0  0  0  0
   49.8813  105.6252   35.5133 H   0  0  0  0  0  0
   48.3598  103.7932   36.1887 H   0  0  0  0  0  0
   48.8297  101.4639   35.5124 H   0  0  0  0  0  0
   50.8232  100.9565   34.1464 H   0  0  0  0  0  0
   52.1608   98.7784   29.5059 H   0  0  0  0  0  0
   51.4415   97.3855   27.6628 H   0  0  0  0  0  0
   49.2316   99.2817   23.7938 H   0  0  0  0  0  0
   49.2465  101.5048   24.8161 H   0  0  0  0  0  0
   50.5142  102.2880   27.6115 H   0  0  0  0  0  0
  1  2  1  0  0  0
  1 29  1  0  0  0
  1 30  1  0  0  0
  1 31  1  0  0  0
  2  3  1  0  0  0
  2  4  1  0  0  0
  2 32  1  0  0  0
  3 33  1  0  0  0
  3 34  1  0  0  0
  3 35  1  0  0  0
  4  5  1  0  0  0
  4  6  1  0  0  0
  5 36  1  0  0  0
  5 37  1  0  0  0
  5 38  1  0  0  0
  6  7  2  0  0  0
  6  8  1  0  0  0
  8  9  2  0  0  0
  8 12  1  0  0  0
  9 10  1  0  0  0
  9 20  1  0  0  0
 10 11  2  0  0  0
 11 12  1  0  0  0
 12 13  1  0  0  0
 13 14  1  0  0  0
 13 39  1  0  0  0
 13 40  1  0  0  0
 14 15  2  0  0  0
 14 19  1  0  0  0
 15 16  1  0  0  0
 15 41  1  0  0  0
 16 17  2  0  0  0
 16 42  1  0  0  0
 17 18  1  0  0  0
 17 43  1  0  0  0
 18 19  2  0  0  0
 18 44  1  0  0  0
 19 45  1  0  0  0
 20 21  1  0  0  0
 20 28  2  0  0  0
 21 22  2  0  0  0
 21 46  1  0  0  0
 22 23  1  0  0  0
 22 47  1  0  0  0
 23 24  2  0  0  0
 23 27  1  0  0  0
 24 25  1  0  0  0
 25 48  1  0  0  0
 25 26  1  0  0  0
 26 27  2  0  0  0
 26 49  1  0  0  0
 27 28  1  0  0  0
 28 50  1  0  0  0
M  END
> <s_m_entry_id>
28069

> <s_m_entry_name>
dock_pv.230

> <s_m_Source_Path>
/home/csk/Desktop/cluster/DUD-E-result/rock1

> <s_m_Source_File>
dock_pv.maegz

> <i_m_Source_File_Index>
230

> <chembl_id>
CHEMBL1969561

> <chembl_pref_name>
None

> <i_lp_mmshare_version>
53161

> <r_lp_tautomer_probability>
0.0196078431372549

> <s_lp_Force_Field>
OPLS_2005

> <r_lp_Energy>
43.26702

> <b_lp_Chiralities_Consistent>
1

> <s_lp_Variant>
CHEMBL3231_lig1299-2

> <s_i_glide_gridfile>
glide-grid_2etr

> <i_i_glide_lignum>
1808

> <i_i_glide_rotatable_bonds>
6

> <r_i_docking_score>
-7.9575423023542

> <r_i_glide_ligand_efficiency>
-0.284197939369793

> <r_i_glide_ligand_efficiency_sa>
-0.862992327561545

> <r_i_glide_ligand_efficiency_ln>
-1.83683440697779

> <r_i_glide_gscore>
-7.9575423023542

> <r_i_glide_lipo>
-2.55510751599802

> <r_i_glide_hbond>
-0.383756804503948

> <r_i_glide_metal>
0

> <r_i_glide_rewards>
-2.1330197227933

> <r_i_glide_evdw>
-45.1090354919434

> <r_i_glide_ecoul>
-6.51219511032104

> <r_i_glide_erotb>
0.482694901583604

> <r_i_glide_esite>
-0.136072119497201

> <r_i_glide_emodel>
-76.0123745924574

> <r_i_glide_energy>
-51.6212306022644

> <r_i_glide_einternal>
3.22411394119263

> <i_i_glide_confnum>
33

> <i_i_glide_posenum>
230

> <r_i_glide_eff_state_penalty>
0

> <s_user_duplicate_titles>
CHEMBL3231_lig1299

> <i_f3d_flags>
0

> <s_m_subgroup_title>
dock_pv

> <s_m_subgroupid>
dock_pv

> <b_m_subgroup_collapsed>
1

$$$$
CHEMBL3231_lig854
                    3D
 Schrodinger Suite 2021-1.
 54 56  0  0  1  0            999 V2000
   53.9125  103.5819   34.0460 C   0  0  0  0  0  0
   52.9587  102.3642   33.9957 C   0  0  2  0  0  0
   52.7379  101.9058   32.6180 N   0  0  0  0  0  0
   52.0681  102.5597   31.6535 C   0  0  0  0  0  0
   51.6430  103.7059   31.8125 O   0  0  0  0  0  0
   51.7974  101.8229   30.3530 C   0  0  0  0  0  0
   51.2999  102.5670   29.2757 C   0  0  0  0  0  0
   50.9290  101.9600   28.0850 C   0  0  0  0  0  0
   50.4430  102.7462   27.1038 F   0  0  0  0  0  0
   51.0616  100.5792   27.9152 C   0  0  0  0  0  0
   51.6205   99.8368   28.9586 C   0  0  0  0  0  0
   51.9711  100.4283   30.1840 C   0  0  0  0  0  0
   52.5041   99.6796   31.2142 O   0  0  0  0  0  0
   52.0542   98.3449   31.4513 C   0  0  0  0  0  0
   53.1377   97.6104   32.2669 C   0  0  0  0  0  0
   54.1929   97.0376   31.4245 N   0  0  0  0  0  0
   54.9009   98.0212   30.6083 C   0  0  0  0  0  0
   55.1605   96.3065   32.2397 C   0  0  0  0  0  0
   50.5933   99.8873   26.6710 C   0  0  0  0  0  0
   50.0431  100.4471   25.5251 C   0  0  0  0  0  0
   49.7231   99.4089   24.7033 N   0  0  0  0  0  0
   50.0429   98.2224   25.2132 N   0  0  0  0  0  0
   50.5671   98.5077   26.3822 C   0  0  0  0  0  0
   51.6489  102.5048   34.8008 C   0  0  0  0  0  0
   51.3002  103.6944   35.4581 C   0  0  0  0  0  0
   50.1018  103.7862   36.1628 C   0  0  0  0  0  0
   49.2435  102.6914   36.2137 C   0  0  0  0  0  0
   49.5750  101.5038   35.5678 C   0  0  0  0  0  0
   50.7732  101.4118   34.8640 C   0  0  0  0  0  0
   54.2099  103.8118   35.0690 H   0  0  0  0  0  0
   54.8263  103.3851   33.4838 H   0  0  0  0  0  0
   53.4601  104.4771   33.6167 H   0  0  0  0  0  0
   53.5036  101.5542   34.4845 H   0  0  0  0  0  0
   52.9854  100.9466   32.4064 H   0  0  0  0  0  0
   51.1733  103.6377   29.3527 H   0  0  0  0  0  0
   51.7804   98.7845   28.8012 H   0  0  0  0  0  0
   51.1257   98.4150   32.0105 H   0  0  0  0  0  0
   51.8245   97.7572   30.5647 H   0  0  0  0  0  0
   53.5756   98.2907   33.0000 H   0  0  0  0  0  0
   52.6663   96.8064   32.8336 H   0  0  0  0  0  0
   55.6431   97.5166   29.9949 H   0  0  0  0  0  0
   54.2349   98.5315   29.9143 H   0  0  0  0  0  0
   55.4079   98.7722   31.2173 H   0  0  0  0  0  0
   55.9101   95.8228   31.6109 H   0  0  0  0  0  0
   55.6844   96.9664   32.9339 H   0  0  0  0  0  0
   54.6698   95.5225   32.8180 H   0  0  0  0  0  0
   49.8249  101.4626   25.2303 H   0  0  0  0  0  0
   49.2815   99.5072   23.7934 H   0  0  0  0  0  0
   50.9123   97.7158   27.0306 H   0  0  0  0  0  0
   51.9439  104.5604   35.4261 H   0  0  0  0  0  0
   49.8389  104.7058   36.6647 H   0  0  0  0  0  0
   48.3138  102.7603   36.7600 H   0  0  0  0  0  0
   48.9050  100.6578   35.6113 H   0  0  0  0  0  0
   51.0206  100.4882   34.3607 H   0  0  0  0  0  0
  1  2  1  0  0  0
  1 30  1  0  0  0
  1 31  1  0  0  0
  1 32  1  0  0  0
  2  3  1  0  0  0
  2 24  1  0  0  0
  2 33  1  0  0  0
  3  4  1  0  0  0
  3 34  1  0  0  0
  4  5  2  0  0  0
  4  6  1  0  0  0
  6  7  2  0  0  0
  6 12  1  0  0  0
  7  8  1  0  0  0
  7 35  1  0  0  0
  8  9  1  0  0  0
  8 10  2  0  0  0
 10 11  1  0  0  0
 10 19  1  0  0  0
 11 12  2  0  0  0
 11 36  1  0  0  0
 12 13  1  0  0  0
 13 14  1  0  0  0
 14 15  1  0  0  0
 14 37  1  0  0  0
 14 38  1  0  0  0
 15 16  1  0  0  0
 15 39  1  0  0  0
 15 40  1  0  0  0
 16 17  1  0  0  0
 16 18  1  0  0  0
 17 41  1  0  0  0
 17 42  1  0  0  0
 17 43  1  0  0  0
 18 44  1  0  0  0
 18 45  1  0  0  0
 18 46  1  0  0  0
 19 20  2  0  0  0
 19 23  1  0  0  0
 20 21  1  0  0  0
 20 47  1  0  0  0
 21 22  1  0  0  0
 21 48  1  0  0  0
 22 23  2  0  0  0
 23 49  1  0  0  0
 24 25  2  0  0  0
 24 29  1  0  0  0
 25 26  1  0  0  0
 25 50  1  0  0  0
 26 27  2  0  0  0
 26 51  1  0  0  0
 27 28  1  0  0  0
 27 52  1  0  0  0
 28 29  2  0  0  0
 28 53  1  0  0  0
 29 54  1  0  0  0
M  END
> <s_m_entry_id>
28070

> <s_m_entry_name>
dock_pv.231

> <s_m_Source_Path>
/home/csk/Desktop/cluster/DUD-E-result/rock1

> <s_m_Source_File>
dock_pv.maegz

> <i_m_Source_File_Index>
231

> <chembl_id>
CHEMBL3963276

> <chembl_pref_name>
None

> <i_lp_mmshare_version>
53161

> <r_lp_tautomer_probability>
0.5

> <s_lp_Force_Field>
OPLS_2005

> <r_lp_Energy>
29.122741

> <b_lp_Chiralities_Consistent>
1

> <s_lp_Variant>
CHEMBL3231_lig854-1

> <s_i_glide_gridfile>
glide-grid_2etr

> <i_i_glide_lignum>
1206

> <i_i_glide_rotatable_bonds>
9

> <r_i_docking_score>
-7.95681500077049

> <r_i_glide_ligand_efficiency>
-0.274372931061051

> <r_i_glide_ligand_efficiency_sa>
-0.842960571665445

> <r_i_glide_ligand_efficiency_ln>
-1.82190886775699

> <r_i_glide_gscore>
-7.95681500077049

> <r_i_glide_lipo>
-2.95763225321329

> <r_i_glide_hbond>
-0.710654946970592

> <r_i_glide_metal>
0

> <r_i_glide_rewards>
-1.66002230013195

> <r_i_glide_evdw>
-44.0069618225098

> <r_i_glide_ecoul>
-6.59362411499023

> <r_i_glide_erotb>
0.609933737559804

> <r_i_glide_esite>
-0.0490475296404395

> <r_i_glide_emodel>
-72.7310951372603

> <r_i_glide_energy>
-50.6005859375

> <r_i_glide_einternal>
5.61916637420654

> <i_i_glide_confnum>
28

> <i_i_glide_posenum>
38

> <r_i_glide_eff_state_penalty>
0

> <s_user_duplicate_titles>
CHEMBL3231_lig854

> <i_f3d_flags>
0

> <s_m_subgroup_title>
dock_pv

> <s_m_subgroupid>
dock_pv

> <b_m_subgroup_collapsed>
1

$$$$
CHEMBL3231_lig944 
                    3D
 Schrodinger Suite 2021-1.
 42 44  0  0  1  0            999 V2000
   50.4274   97.7789   26.4007 C   0  0  0  0  0  0
   50.0428   98.2952   25.2110 N   0  0  0  0  0  0
   50.1124   99.6365   25.0438 C   0  0  0  0  0  0
   50.5726  100.4942   26.0403 C   0  0  0  0  0  0
   50.9626   99.9586   27.2791 C   0  0  0  0  0  0
   50.8768   98.5694   27.4535 C   0  0  0  0  0  0
   51.4518  100.8401   28.3746 C   0  0  0  0  0  0
   52.4428  100.4012   29.2603 C   0  0  0  0  0  0
   52.8900  101.2175   30.2932 C   0  0  0  0  0  0
   52.3592  102.5049   30.4514 C   0  0  0  0  0  0
   51.3798  102.9520   29.5571 C   0  0  0  0  0  0
   50.9260  102.1252   28.5373 C   0  0  0  0  0  0
   52.7851  103.3982   31.5901 C   0  0  0  0  0  0
   53.9754  103.1397   32.1630 N   0  0  0  0  0  0
   52.0431  104.3029   31.9687 O   0  0  0  0  0  0
   54.5635  103.9112   33.2663 C   0  0  0  0  0  0
   53.6956  104.1186   34.5145 C   0  0  0  0  0  0
   53.7685  105.3299   35.2092 C   0  0  0  0  0  0
   52.9367  105.5698   36.3016 C   0  0  0  0  0  0
   52.0053  104.6079   36.6910 C   0  0  0  0  0  0
   51.8905  103.4032   35.9952 C   0  0  0  0  0  0
   52.7630  103.1546   34.9245 C   0  0  0  0  0  0
   50.8999  102.5348   36.4119 O   0  0  0  0  0  0
   50.3657  101.5856   35.4866 C   0  0  0  0  0  0
   49.2426  101.1040   36.0104 F   0  0  0  0  0  0
   50.0430  102.1549   34.3199 F   0  0  0  0  0  0
   51.2040  100.5649   35.2942 F   0  0  0  0  0  0
   50.3663   96.7040   26.5018 H   0  0  0  0  0  0
   49.7995  100.0228   24.0845 H   0  0  0  0  0  0
   50.6270  101.5551   25.8462 H   0  0  0  0  0  0
   51.1536   98.1019   28.3879 H   0  0  0  0  0  0
   52.8803   99.4194   29.1590 H   0  0  0  0  0  0
   53.6443  100.8301   30.9638 H   0  0  0  0  0  0
   50.9609  103.9439   29.6405 H   0  0  0  0  0  0
   50.1559  102.4938   27.8765 H   0  0  0  0  0  0
   54.5985  102.5110   31.6766 H   0  0  0  0  0  0
   54.8453  104.8844   32.8574 H   0  0  0  0  0  0
   55.4940  103.4255   33.5668 H   0  0  0  0  0  0
   54.4517  106.1027   34.8855 H   0  0  0  0  0  0
   52.9978  106.5115   36.8264 H   0  0  0  0  0  0
   51.3460  104.8109   37.5226 H   0  0  0  0  0  0
   52.7070  102.2262   34.3767 H   0  0  0  0  0  0
  1  2  2  0  0  0
  1  6  1  0  0  0
  1 28  1  0  0  0
  2  3  1  0  0  0
  3  4  2  0  0  0
  3 29  1  0  0  0
  4  5  1  0  0  0
  4 30  1  0  0  0
  5  6  2  0  0  0
  5  7  1  0  0  0
  6 31  1  0  0  0
  7  8  2  0  0  0
  7 12  1  0  0  0
  8  9  1  0  0  0
  8 32  1  0  0  0
  9 10  2  0  0  0
  9 33  1  0  0  0
 10 11  1  0  0  0
 10 13  1  0  0  0
 11 12  2  0  0  0
 11 34  1  0  0  0
 12 35  1  0  0  0
 13 14  1  0  0  0
 13 15  2  0  0  0
 14 16  1  0  0  0
 14 36  1  0  0  0
 16 17  1  0  0  0
 16 37  1  0  0  0
 16 38  1  0  0  0
 17 18  2  0  0  0
 17 22  1  0  0  0
 18 19  1  0  0  0
 18 39  1  0  0  0
 19 20  2  0  0  0
 19 40  1  0  0  0
 20 21  1  0  0  0
 20 41  1  0  0  0
 21 22  2  0  0  0
 21 23  1  0  0  0
 22 42  1  0  0  0
 23 24  1  0  0  0
 24 25  1  0  0  0
 24 26  1  0  0  0
 24 27  1  0  0  0
M  END
> <s_m_entry_id>
28071

> <s_m_entry_name>
dock_pv.232

> <s_m_Source_Path>
/home/csk/Desktop/cluster/DUD-E-result/rock1

> <s_m_Source_File>
dock_pv.maegz

> <i_m_Source_File_Index>
232

> <chembl_id>
CHEMBL4475535

> <chembl_pref_name>
None

> <i_lp_mmshare_version>
53161

> <r_lp_tautomer_probability>
1

> <s_lp_Force_Field>
OPLS_2005

> <r_lp_Energy>
14.424528

> <b_lp_Chiralities_Consistent>
1

> <s_lp_Variant>
CHEMBL3231_lig944 -1

> <s_i_glide_gridfile>
glide-grid_2etr

> <i_i_glide_lignum>
1358

> <i_i_glide_rotatable_bonds>
7

> <r_i_docking_score>
-7.95501698971515

> <r_i_glide_ligand_efficiency>
-0.294630258878339

> <r_i_glide_ligand_efficiency_sa>
-0.883890775663964

> <r_i_glide_ligand_efficiency_ln>
-1.85179680650078

> <r_i_glide_gscore>
-7.95501698971515

> <r_i_glide_lipo>
-2.43323772714385

> <r_i_glide_hbond>
-0.307725729797629

> <r_i_glide_metal>
0

> <r_i_glide_rewards>
-3.02057989856669

> <r_i_glide_evdw>
-41.7867660522461

> <r_i_glide_ecoul>
-5.74302625656128

> <r_i_glide_erotb>
0.835837502764641

> <r_i_glide_esite>
-0.0785188958751343

> <r_i_glide_emodel>
-70.6497869936779

> <r_i_glide_energy>
-47.5297923088074

> <r_i_glide_einternal>
0.9913409948349

> <i_i_glide_confnum>
81

> <i_i_glide_posenum>
373

> <r_i_glide_eff_state_penalty>
0

> <s_user_duplicate_titles>
CHEMBL3231_lig944 

> <i_f3d_flags>
0

> <s_m_subgroup_title>
dock_pv

> <s_m_subgroupid>
dock_pv

> <b_m_subgroup_collapsed>
1

$$$$
CHEMBL3231_lig564
                    3D
 Schrodinger Suite 2021-1.
 35 37  0  0  1  0            999 V2000
   51.6433  103.9001   32.3053 O   0  0  0  0  0  0
   52.1831  102.7959   32.3824 C   0  0  0  0  0  0
   52.6282  102.2886   33.5425 N   0  0  0  0  0  0
   52.4228  102.9012   34.8662 C   0  0  0  0  0  0
   50.9826  103.0743   35.3658 C   0  0  0  0  0  0
   49.8776  102.4678   34.7533 C   0  0  0  0  0  0
   48.6026  102.7023   35.2696 C   0  0  0  0  0  0
   48.4567  103.5255   36.3867 C   0  0  0  0  0  0
   49.6028  104.0847   36.9523 C   0  0  0  0  0  0
   50.8508  103.8690   36.4627 N   0  0  0  0  0  0
   52.3222  101.9224   31.3642 N   0  0  0  0  0  0
   51.7565  102.0205   30.0927 C   0  0  0  0  0  0
   51.6123  100.9603   29.3335 N   0  0  0  0  0  0
   51.0018  101.2235   28.1849 C   0  0  0  0  0  0
   50.6611  102.5676   28.0142 C   0  0  0  0  0  0
   51.2094  103.5029   29.3577 S   0  0  0  0  0  0
   50.7053  100.1376   27.1999 C   0  0  0  0  0  0
   50.2930  100.4736   25.9023 C   0  0  0  0  0  0
   49.9775   99.4565   25.0064 C   0  0  0  0  0  0
   50.0433   98.1430   25.3252 N   0  0  0  0  0  0
   50.4595   97.8228   26.5758 C   0  0  0  0  0  0
   50.8055   98.7782   27.5321 C   0  0  0  0  0  0
   53.2383  101.4847   33.5148 H   0  0  0  0  0  0
   52.9227  103.8721   34.8750 H   0  0  0  0  0  0
   52.9513  102.2916   35.5980 H   0  0  0  0  0  0
   50.0034  101.8356   33.8873 H   0  0  0  0  0  0
   47.7342  102.2468   34.8156 H   0  0  0  0  0  0
   47.4794  103.7162   36.8082 H   0  0  0  0  0  0
   49.5422  104.7226   37.8216 H   0  0  0  0  0  0
   52.7622  101.0409   31.5743 H   0  0  0  0  0  0
   50.1545  103.0485   27.1889 H   0  0  0  0  0  0
   50.2067  101.5023   25.5845 H   0  0  0  0  0  0
   49.6436   99.6969   24.0112 H   0  0  0  0  0  0
   50.5152   96.7686   26.8084 H   0  0  0  0  0  0
   51.1208   98.4652   28.5164 H   0  0  0  0  0  0
  1  2  2  0  0  0
  2  3  1  0  0  0
  2 11  1  0  0  0
  3  4  1  0  0  0
  3 23  1  0  0  0
  4  5  1  0  0  0
  4 24  1  0  0  0
  4 25  1  0  0  0
  5  6  2  0  0  0
  5 10  1  0  0  0
  6  7  1  0  0  0
  6 26  1  0  0  0
  7  8  2  0  0  0
  7 27  1  0  0  0
  8  9  1  0  0  0
  8 28  1  0  0  0
  9 10  2  0  0  0
  9 29  1  0  0  0
 11 12  1  0  0  0
 11 30  1  0  0  0
 12 13  2  0  0  0
 12 16  1  0  0  0
 13 14  1  0  0  0
 14 15  2  0  0  0
 14 17  1  0  0  0
 15 16  1  0  0  0
 15 31  1  0  0  0
 17 18  2  0  0  0
 17 22  1  0  0  0
 18 19  1  0  0  0
 18 32  1  0  0  0
 19 20  2  0  0  0
 19 33  1  0  0  0
 20 21  1  0  0  0
 21 22  2  0  0  0
 21 34  1  0  0  0
 22 35  1  0  0  0
M  END
> <s_m_entry_id>
28073

> <s_m_entry_name>
dock_pv.234

> <s_m_Source_Path>
/home/csk/Desktop/cluster/DUD-E-result/rock1

> <s_m_Source_File>
dock_pv.maegz

> <i_m_Source_File_Index>
234

> <chembl_id>
CHEMBL3944452

> <chembl_pref_name>
None

> <i_lp_mmshare_version>
53161

> <r_lp_tautomer_probability>
0.999000488399163

> <s_lp_Force_Field>
OPLS_2005

> <r_lp_Energy>
0.606402

> <b_lp_Chiralities_Consistent>
1

> <s_lp_Variant>
CHEMBL3231_lig564-1

> <s_i_glide_gridfile>
glide-grid_2etr

> <i_i_glide_lignum>
842

> <i_i_glide_rotatable_bonds>
6

> <r_i_docking_score>
-7.94989707958383

> <r_i_glide_ligand_efficiency>
-0.361358958162901

> <r_i_glide_ligand_efficiency_sa>
-1.01254201221383

> <r_i_glide_ligand_efficiency_ln>
-1.94324482579197

> <r_i_glide_gscore>
-7.94989707958383

> <r_i_glide_lipo>
-3.19972385052418

> <r_i_glide_hbond>
-0.322772615983761

> <r_i_glide_metal>
0

> <r_i_glide_rewards>
-2.64265280575255

> <r_i_glide_evdw>
-39.6689605712891

> <r_i_glide_ecoul>
-4.62552452087402

> <r_i_glide_erotb>
0.956411501823036

> <r_i_glide_esite>
-0.0638826024508215

> <r_i_glide_emodel>
-66.1650776337751

> <r_i_glide_energy>
-44.2944850921631

> <r_i_glide_einternal>
1.90839171409607

> <i_i_glide_confnum>
1

> <i_i_glide_posenum>
67

> <r_i_glide_eff_state_penalty>
0

> <s_user_duplicate_titles>
CHEMBL3231_lig564

> <i_f3d_flags>
0

> <s_m_subgroup_title>
dock_pv

> <s_m_subgroupid>
dock_pv

> <b_m_subgroup_collapsed>
1

$$$$
CHEMBL3231_lig760
                    3D
 Schrodinger Suite 2021-1.
 44 46  0  0  1  0            999 V2000
   51.2433   97.6302   30.0505 C   0  0  0  0  0  0
   51.8104   98.4464   29.0261 O   0  0  0  0  0  0
   51.6206   99.8074   29.1306 C   0  0  0  0  0  0
   52.0517  100.4966   30.2770 C   0  0  0  0  0  0
   52.6351   99.7872   31.2739 F   0  0  0  0  0  0
   51.8627  101.8890   30.3964 C   0  0  0  0  0  0
   51.2788  102.5751   29.3272 C   0  0  0  0  0  0
   50.8758  101.9007   28.1819 C   0  0  0  0  0  0
   51.0363  100.5160   28.0622 C   0  0  0  0  0  0
   50.5524   99.8702   26.7938 C   0  0  0  0  0  0
   49.9531  100.4934   25.7059 C   0  0  0  0  0  0
   49.6600   99.5111   24.8094 N   0  0  0  0  0  0
   50.0432   98.3037   25.2112 N   0  0  0  0  0  0
   50.5727   98.5167   26.3936 C   0  0  0  0  0  0
   52.2098  102.6613   31.6506 C   0  0  0  0  0  0
   51.6433  103.7289   31.8944 O   0  0  0  0  0  0
   53.1064  102.1106   32.4864 N   0  0  0  0  0  0
   53.4342  102.5786   33.8387 C   0  0  2  0  0  0
   54.6281  101.7774   34.4146 C   0  0  0  0  0  0
   55.1903  102.3998   35.5565 O   0  0  0  0  0  0
   52.2145  102.6074   34.7804 C   0  0  0  0  0  0
   51.8679  103.7871   35.4560 C   0  0  0  0  0  0
   52.6229  104.9023   35.3276 F   0  0  0  0  0  0
   50.7319  103.8316   36.2658 C   0  0  0  0  0  0
   49.9270  102.7027   36.4102 C   0  0  0  0  0  0
   50.2693  101.5217   35.7533 C   0  0  0  0  0  0
   51.4077  101.4691   34.9487 C   0  0  0  0  0  0
   51.7096  100.3066   34.3232 F   0  0  0  0  0  0
   50.8432   96.7168   29.6107 H   0  0  0  0  0  0
   52.0107   97.3366   30.7684 H   0  0  0  0  0  0
   50.4365   98.1164   30.5989 H   0  0  0  0  0  0
   51.1286  103.6445   29.3713 H   0  0  0  0  0  0
   50.4295  102.4806   27.3893 H   0  0  0  0  0  0
   49.6994  101.5221   25.4959 H   0  0  0  0  0  0
   49.2253   99.6644   23.9034 H   0  0  0  0  0  0
   50.9687   97.6879   26.9594 H   0  0  0  0  0  0
   53.6082  101.2970   32.1555 H   0  0  0  0  0  0
   53.8019  103.5994   33.7038 H   0  0  0  0  0  0
   54.3188  100.7672   34.6867 H   0  0  0  0  0  0
   55.4111  101.6631   33.6634 H   0  0  0  0  0  0
   55.9871  101.9206   35.8037 H   0  0  0  0  0  0
   50.4778  104.7493   36.7752 H   0  0  0  0  0  0
   49.0448  102.7372   37.0340 H   0  0  0  0  0  0
   49.6529  100.6410   35.8680 H   0  0  0  0  0  0
  1  2  1  0  0  0
  1 29  1  0  0  0
  1 30  1  0  0  0
  1 31  1  0  0  0
  2  3  1  0  0  0
  3  4  2  0  0  0
  3  9  1  0  0  0
  4  5  1  0  0  0
  4  6  1  0  0  0
  6  7  2  0  0  0
  6 15  1  0  0  0
  7  8  1  0  0  0
  7 32  1  0  0  0
  8  9  2  0  0  0
  8 33  1  0  0  0
  9 10  1  0  0  0
 10 11  2  0  0  0
 10 14  1  0  0  0
 11 12  1  0  0  0
 11 34  1  0  0  0
 12 13  1  0  0  0
 12 35  1  0  0  0
 13 14  2  0  0  0
 14 36  1  0  0  0
 15 16  2  0  0  0
 15 17  1  0  0  0
 17 18  1  0  0  0
 17 37  1  0  0  0
 18 19  1  0  0  0
 18 21  1  0  0  0
 18 38  1  0  0  0
 19 20  1  0  0  0
 19 39  1  0  0  0
 19 40  1  0  0  0
 20 41  1  0  0  0
 21 22  2  0  0  0
 21 27  1  0  0  0
 22 23  1  0  0  0
 22 24  1  0  0  0
 24 25  2  0  0  0
 24 42  1  0  0  0
 25 26  1  0  0  0
 25 43  1  0  0  0
 26 27  2  0  0  0
 26 44  1  0  0  0
 27 28  1  0  0  0
M  END
> <s_m_entry_id>
28074

> <s_m_entry_name>
dock_pv.235

> <s_m_Source_Path>
/home/csk/Desktop/cluster/DUD-E-result/rock1

> <s_m_Source_File>
dock_pv.maegz

> <i_m_Source_File_Index>
235

> <chembl_id>
CHEMBL4114195

> <chembl_pref_name>
None

> <i_lp_mmshare_version>
53161

> <r_lp_tautomer_probability>
0.5

> <s_lp_Force_Field>
OPLS_2005

> <r_lp_Energy>
25.143802

> <b_lp_Chiralities_Consistent>
1

> <s_lp_Variant>
CHEMBL3231_lig760-1

> <s_i_glide_gridfile>
glide-grid_2etr

> <i_i_glide_lignum>
1078

> <i_i_glide_rotatable_bonds>
8

> <r_i_docking_score>
-7.94457403857992

> <r_i_glide_ligand_efficiency>
-0.28373478709214

> <r_i_glide_ligand_efficiency_sa>
-0.861585924464488

> <r_i_glide_ligand_efficiency_ln>
-1.83384095093392

> <r_i_glide_gscore>
-7.94457403857992

> <r_i_glide_lipo>
-2.70487959541588

> <r_i_glide_hbond>
-0.675375313633226

> <r_i_glide_metal>
0

> <r_i_glide_rewards>
-1.85652831250581

> <r_i_glide_evdw>
-41.6504516601562

> <r_i_glide_ecoul>
-6.62540340423584

> <r_i_glide_erotb>
0.445954030068588

> <r_i_glide_esite>
-0.0774117534504051

> <r_i_glide_emodel>
-70.8759370282909

> <r_i_glide_energy>
-48.2758550643921

> <r_i_glide_einternal>
3.20238327980042

> <i_i_glide_confnum>
26

> <i_i_glide_posenum>
372

> <r_i_glide_eff_state_penalty>
0

> <s_user_duplicate_titles>
CHEMBL3231_lig760

> <i_f3d_flags>
0

> <s_m_subgroup_title>
dock_pv

> <s_m_subgroupid>
dock_pv

> <b_m_subgroup_collapsed>
1

$$$$
CHEMBL3231_lig782
                    3D
 Schrodinger Suite 2021-1.
 48 50  0  0  1  0            999 V2000
   51.3474   97.4492   30.3532 C   0  0  0  0  0  0
   51.2429   98.2435   29.1737 O   0  0  0  0  0  0
   51.3630   99.6204   29.2505 C   0  0  0  0  0  0
   51.7561  100.2718   30.4308 C   0  0  0  0  0  0
   51.7936  101.6709   30.5228 C   0  0  0  0  0  0
   51.4760  102.4215   29.3883 C   0  0  0  0  0  0
   51.1026  101.7911   28.2071 C   0  0  0  0  0  0
   51.0317  100.3958   28.1199 C   0  0  0  0  0  0
   50.5511   99.8119   26.8198 C   0  0  0  0  0  0
   50.5805   98.4775   26.3749 C   0  0  0  0  0  0
   50.0430   98.3026   25.1934 N   0  0  0  0  0  0
   49.6583   99.5217   24.8110 N   0  0  0  0  0  0
   49.9479  100.4724   25.7504 C   0  0  0  0  0  0
   52.0709  102.3666   31.8341 C   0  0  0  0  0  0
   51.6427  103.5035   32.0367 O   0  0  0  0  0  0
   52.7490  101.6641   32.7594 N   0  0  0  0  0  0
   52.9791  102.0621   34.1563 C   0  0  2  0  0  0
   54.0033  101.1329   34.8840 C   0  0  2  0  0  0
   55.2358  101.0956   34.1714 O   0  0  0  0  0  0
   53.5281   99.6811   35.1669 C   0  0  0  0  0  0
   53.2107   98.9558   33.9896 O   0  0  0  0  0  0
   51.6912  102.2650   34.9759 C   0  0  0  0  0  0
   51.5889  103.3564   35.8446 C   0  0  0  0  0  0
   50.4140  103.5769   36.5595 C   0  0  0  0  0  0
   49.3398  102.7035   36.4107 C   0  0  0  0  0  0
   49.4300  101.6110   35.5526 C   0  0  0  0  0  0
   50.6014  101.3961   34.8314 C   0  0  0  0  0  0
   51.1538   96.4062   30.1006 H   0  0  0  0  0  0
   52.3461   97.4993   30.7892 H   0  0  0  0  0  0
   50.6112   97.7456   31.1018 H   0  0  0  0  0  0
   51.9837   99.6868   31.3086 H   0  0  0  0  0  0
   51.4995  103.5023   29.4174 H   0  0  0  0  0  0
   50.8441  102.4090   27.3602 H   0  0  0  0  0  0
   50.9867   97.6317   26.9092 H   0  0  0  0  0  0
   49.2201   99.6995   23.9126 H   0  0  0  0  0  0
   49.6878  101.5074   25.5834 H   0  0  0  0  0  0
   53.2780  100.8631   32.4502 H   0  0  0  0  0  0
   53.4676  103.0381   34.0874 H   0  0  0  0  0  0
   54.2289  101.5942   35.8477 H   0  0  0  0  0  0
   55.9087  100.6540   34.7002 H   0  0  0  0  0  0
   54.3007   99.1293   35.7064 H   0  0  0  0  0  0
   52.6453   99.6904   35.8082 H   0  0  0  0  0  0
   54.0277   98.7971   33.5030 H   0  0  0  0  0  0
   52.4142  104.0448   35.9570 H   0  0  0  0  0  0
   50.3364  104.4257   37.2240 H   0  0  0  0  0  0
   48.4272  102.8705   36.9663 H   0  0  0  0  0  0
   48.5927  100.9376   35.4411 H   0  0  0  0  0  0
   50.6644  100.5527   34.1590 H   0  0  0  0  0  0
  1  2  1  0  0  0
  1 28  1  0  0  0
  1 29  1  0  0  0
  1 30  1  0  0  0
  2  3  1  0  0  0
  3  4  2  0  0  0
  3  8  1  0  0  0
  4  5  1  0  0  0
  4 31  1  0  0  0
  5  6  2  0  0  0
  5 14  1  0  0  0
  6  7  1  0  0  0
  6 32  1  0  0  0
  7  8  2  0  0  0
  7 33  1  0  0  0
  8  9  1  0  0  0
  9 10  1  0  0  0
  9 13  2  0  0  0
 10 11  2  0  0  0
 10 34  1  0  0  0
 11 12  1  0  0  0
 12 13  1  0  0  0
 12 35  1  0  0  0
 13 36  1  0  0  0
 14 15  2  0  0  0
 14 16  1  0  0  0
 16 17  1  0  0  0
 16 37  1  0  0  0
 17 18  1  0  0  0
 17 22  1  0  0  0
 17 38  1  0  0  0
 18 19  1  0  0  0
 18 20  1  0  0  0
 18 39  1  0  0  0
 19 40  1  0  0  0
 20 21  1  0  0  0
 20 41  1  0  0  0
 20 42  1  0  0  0
 21 43  1  0  0  0
 22 23  2  0  0  0
 22 27  1  0  0  0
 23 24  1  0  0  0
 23 44  1  0  0  0
 24 25  2  0  0  0
 24 45  1  0  0  0
 25 26  1  0  0  0
 25 46  1  0  0  0
 26 27  2  0  0  0
 26 47  1  0  0  0
 27 48  1  0  0  0
M  END
> <s_m_entry_id>
28075

> <s_m_entry_name>
dock_pv.236

> <s_m_Source_Path>
/home/csk/Desktop/cluster/DUD-E-result/rock1

> <s_m_Source_File>
dock_pv.maegz

> <i_m_Source_File_Index>
236

> <chembl_id>
CHEMBL4107687

> <chembl_pref_name>
None

> <i_lp_mmshare_version>
53161

> <r_lp_tautomer_probability>
0.5

> <s_lp_Force_Field>
OPLS_2005

> <r_lp_Energy>
28.295354

> <b_lp_Chiralities_Consistent>
1

> <s_lp_Variant>
CHEMBL3231_lig782-1

> <s_i_glide_gridfile>
glide-grid_2etr

> <i_i_glide_lignum>
1106

> <i_i_glide_rotatable_bonds>
10

> <r_i_docking_score>
-7.94417207129888

> <r_i_glide_ligand_efficiency>
-0.294228595233292

> <r_i_glide_ligand_efficiency_sa>
-0.882685784730146

> <r_i_glide_ligand_efficiency_ln>
-1.84927228828593

> <r_i_glide_gscore>
-7.94417207129888

> <r_i_glide_lipo>
-2.77531332500991

> <r_i_glide_hbond>
-0.632037514984809

> <r_i_glide_metal>
0

> <r_i_glide_rewards>
-1.88517091132489

> <r_i_glide_evdw>
-43.0285034179688

> <r_i_glide_ecoul>
-7.06314992904663

> <r_i_glide_erotb>
0.599226220005183

> <r_i_glide_esite>
-0.0399788797290257

> <r_i_glide_emodel>
-71.7744552298393

> <r_i_glide_energy>
-50.0916533470154

> <r_i_glide_einternal>
7.32409763336182

> <i_i_glide_confnum>
31

> <i_i_glide_posenum>
240

> <r_i_glide_eff_state_penalty>
0

> <s_user_duplicate_titles>
CHEMBL3231_lig782

> <i_f3d_flags>
0

> <s_m_subgroup_title>
dock_pv

> <s_m_subgroupid>
dock_pv

> <b_m_subgroup_collapsed>
1

$$$$
CHEMBL3231_lig287
                    3D
 Schrodinger Suite 2021-1.
 59 62  0  0  1  0            999 V2000
   53.8114  100.7168   32.5015 C   0  0  0  0  0  0
   53.7799   99.5291   33.1677 N   0  0  0  0  0  0
   53.1995   98.4793   32.5457 C   0  0  0  0  0  0
   52.5813   98.5196   31.3441 N   0  0  0  0  0  0
   52.5519   99.7161   30.6882 C   0  0  0  0  0  0
   53.1514  100.8482   31.2684 C   0  0  0  0  0  0
   51.8879   99.7335   29.3327 C   0  0  0  0  0  0
   51.3861   98.5424   28.7685 C   0  0  0  0  0  0
   51.2427  100.9731   27.3101 C   0  0  0  0  0  0
   51.7816  100.9266   28.5943 C   0  0  0  0  0  0
   50.8184   99.7796   26.7205 C   0  0  0  0  0  0
   50.8941   98.5828   27.4620 C   0  0  0  0  0  0
   50.4129   97.6011   26.6191 N   0  0  0  0  0  0
   50.0430   98.0976   25.4249 N   0  0  0  0  0  0
   50.2781   99.3814   25.4614 C   0  0  0  0  0  0
   50.0430  100.2171   24.4114 N   0  0  0  0  0  0
   53.2429   97.2549   33.1976 N   0  0  0  0  0  0
   54.2680  101.8346   33.2042 N   0  0  0  0  0  0
   54.6919  103.1022   32.5725 C   0  0  0  0  0  0
   54.0585  104.3297   33.2647 C   0  0  0  0  0  0
   54.3512  104.3279   34.7764 C   0  0  0  0  0  0
   53.9016  102.9842   35.3947 C   0  0  2  0  0  0
   54.6542  101.8581   34.6344 C   0  0  0  0  0  0
   52.4479  102.7788   35.3603 N   0  0  0  0  0  0
   51.5526  103.5073   36.1254 C   0  0  0  0  0  0
   50.2962  103.1948   35.7267 O   0  0  0  0  0  0
   51.8383  104.3278   36.9983 O   0  0  0  0  0  0
   49.1089  103.9194   36.0871 C   0  0  0  0  0  0
   47.9846  103.1530   35.3654 C   0  0  0  0  0  0
   49.1677  105.3772   35.5733 C   0  0  0  0  0  0
   48.8429  103.9028   37.6077 C   0  0  0  0  0  0
   53.1123  101.8059   30.7841 H   0  0  0  0  0  0
   51.4102   97.6094   29.3111 H   0  0  0  0  0  0
   51.1764  101.9028   26.7681 H   0  0  0  0  0  0
   52.1334  101.8633   28.9947 H   0  0  0  0  0  0
   50.3319   96.6127   26.8114 H   0  0  0  0  0  0
   50.5615  101.0760   24.3056 H   0  0  0  0  0  0
   49.5386   99.9086   23.5807 H   0  0  0  0  0  0
   52.7871   96.4542   32.7759 H   0  0  0  0  0  0
   53.8164   97.1633   34.0224 H   0  0  0  0  0  0
   54.4697  103.1417   31.5083 H   0  0  0  0  0  0
   55.7798  103.1633   32.6345 H   0  0  0  0  0  0
   52.9859  104.3555   33.0697 H   0  0  0  0  0  0
   54.4425  105.2452   32.8127 H   0  0  0  0  0  0
   53.8543  105.1698   35.2605 H   0  0  0  0  0  0
   55.4192  104.4732   34.9442 H   0  0  0  0  0  0
   54.2078  102.9496   36.4431 H   0  0  0  0  0  0
   55.7364  101.9798   34.7095 H   0  0  0  0  0  0
   54.4043  100.9073   35.1051 H   0  0  0  0  0  0
   52.0770  102.1630   34.6530 H   0  0  0  0  0  0
   47.0098  103.6171   35.5231 H   0  0  0  0  0  0
   47.9166  102.1233   35.7199 H   0  0  0  0  0  0
   48.1569  103.1020   34.2911 H   0  0  0  0  0  0
   49.9035  105.9693   36.1180 H   0  0  0  0  0  0
   49.4486  105.4140   34.5216 H   0  0  0  0  0  0
   48.2039  105.8768   35.6767 H   0  0  0  0  0  0
   49.5766  104.4818   38.1668 H   0  0  0  0  0  0
   47.8592  104.3088   37.8271 H   0  0  0  0  0  0
   48.8562  102.8839   37.9910 H   0  0  0  0  0  0
  1 18  1  0  0  0
  1  6  1  0  0  0
  1  2  2  0  0  0
  2  3  1  0  0  0
  3 17  1  0  0  0
  3  4  2  0  0  0
  4  5  1  0  0  0
  5  7  1  0  0  0
  5  6  2  0  0  0
  6 32  1  0  0  0
  7  8  2  0  0  0
  7 10  1  0  0  0
  8 12  1  0  0  0
  8 33  1  0  0  0
  9 11  1  0  0  0
  9 10  2  0  0  0
  9 34  1  0  0  0
 10 35  1  0  0  0
 11 15  1  0  0  0
 11 12  2  0  0  0
 12 13  1  0  0  0
 13 14  1  0  0  0
 13 36  1  0  0  0
 14 15  2  0  0  0
 15 16  1  0  0  0
 16 37  1  0  0  0
 16 38  1  0  0  0
 17 39  1  0  0  0
 17 40  1  0  0  0
 18 19  1  0  0  0
 18 23  1  0  0  0
 19 20  1  0  0  0
 19 41  1  0  0  0
 19 42  1  0  0  0
 20 21  1  0  0  0
 20 43  1  0  0  0
 20 44  1  0  0  0
 21 22  1  0  0  0
 21 45  1  0  0  0
 21 46  1  0  0  0
 22 23  1  0  0  0
 22 24  1  0  0  0
 22 47  1  0  0  0
 23 48  1  0  0  0
 23 49  1  0  0  0
 24 25  1  0  0  0
 24 50  1  0  0  0
 25 26  1  0  0  0
 25 27  2  0  0  0
 26 28  1  0  0  0
 28 29  1  0  0  0
 28 30  1  0  0  0
 28 31  1  0  0  0
 29 51  1  0  0  0
 29 52  1  0  0  0
 29 53  1  0  0  0
 30 54  1  0  0  0
 30 55  1  0  0  0
 30 56  1  0  0  0
 31 57  1  0  0  0
 31 58  1  0  0  0
 31 59  1  0  0  0
M  END
> <s_m_entry_id>
28076

> <s_m_entry_name>
dock_pv.237

> <s_m_Source_Path>
/home/csk/Desktop/cluster/DUD-E-result/rock1

> <s_m_Source_File>
dock_pv.maegz

> <i_m_Source_File_Index>
237

> <chembl_id>
CHEMBL1765746

> <chembl_pref_name>
None

> <i_lp_mmshare_version>
53161

> <r_lp_tautomer_probability>
0.999999648617923

> <s_lp_Force_Field>
OPLS_2005

> <r_lp_Energy>
13.891557

> <b_lp_Chiralities_Consistent>
1

> <s_lp_Variant>
CHEMBL3231_lig287-1

> <s_i_glide_gridfile>
glide-grid_2etr

> <i_i_glide_lignum>
434

> <i_i_glide_rotatable_bonds>
6

> <r_i_docking_score>
-7.94350470803343

> <r_i_glide_ligand_efficiency>
-0.256242087355917

> <r_i_glide_ligand_efficiency_sa>
-0.804953934626862

> <r_i_glide_ligand_efficiency_ln>
-1.7915037508449

> <r_i_glide_gscore>
-7.94350470803343

> <r_i_glide_lipo>
-2.57424605773342

> <r_i_glide_hbond>
-0.691629814780774

> <r_i_glide_metal>
0

> <r_i_glide_rewards>
-1.62200313860051

> <r_i_glide_evdw>
-50.3541145324707

> <r_i_glide_ecoul>
-5.97831535339355

> <r_i_glide_erotb>
0.385134137443826

> <r_i_glide_esite>
-0.0263068047299774

> <r_i_glide_emodel>
-81.4859798030716

> <r_i_glide_energy>
-56.3324298858643

> <r_i_glide_einternal>
3.23893404006958

> <i_i_glide_confnum>
25

> <i_i_glide_posenum>
241

> <r_i_glide_eff_state_penalty>
0

> <s_user_duplicate_titles>
CHEMBL3231_lig287,CHEMBL3231_lig289

> <i_f3d_flags>
0

> <s_m_subgroup_title>
dock_pv

> <s_m_subgroupid>
dock_pv

> <b_m_subgroup_collapsed>
1

$$$$
CHEMBL3231_lig589
                    3D
 Schrodinger Suite 2021-1.
 55 58  0  0  1  0            999 V2000
   51.4340   97.6928   30.4197 C   0  0  0  0  0  0
   51.2441   98.4281   29.2152 O   0  0  0  0  0  0
   51.3600   99.8088   29.2184 C   0  0  0  0  0  0
   51.7535  100.5397   30.3552 C   0  0  0  0  0  0
   51.7892  101.9419   30.3493 C   0  0  0  0  0  0
   51.4725  102.6131   29.1647 C   0  0  0  0  0  0
   51.0946  101.9031   28.0343 C   0  0  0  0  0  0
   51.0206  100.5068   28.0435 C   0  0  0  0  0  0
   50.5375   99.8495   26.7873 C   0  0  0  0  0  0
   50.5775   98.4951   26.3956 C   0  0  0  0  0  0
   50.0433   98.2699   25.2185 N   0  0  0  0  0  0
   49.6430   99.4697   24.8082 N   0  0  0  0  0  0
   49.9211  100.4594   25.6999 C   0  0  0  0  0  0
   52.0595  102.7477   31.5969 C   0  0  0  0  0  0
   51.6446  103.9026   31.6805 O   0  0  0  0  0  0
   52.7232  102.1387   32.5964 N   0  0  0  0  0  0
   52.8646  102.6673   33.9624 C   0  0  1  0  0  0
   53.6970  103.9899   33.9938 C   0  0  0  0  0  0
   54.0167  104.4445   35.3498 N   0  0  0  0  0  0
   55.0680  103.6880   36.0144 C   0  0  0  0  0  0
   55.4800  104.5512   37.2099 C   0  0  0  0  0  0
   55.0419  105.9690   36.8186 C   0  0  0  0  0  0
   54.5071  105.8124   35.3951 C   0  0  0  0  0  0
   51.5023  102.7104   34.6929 C   0  0  0  0  0  0
   50.8875  103.9177   35.0594 C   0  0  0  0  0  0
   49.6485  103.9187   35.6943 C   0  0  0  0  0  0
   49.0124  102.7097   35.9648 C   0  0  0  0  0  0
   49.6093  101.5027   35.6107 C   0  0  0  0  0  0
   50.8533  101.5023   34.9820 C   0  0  0  0  0  0
   51.2416   96.6382   30.2277 H   0  0  0  0  0  0
   52.4574   97.7799   30.7885 H   0  0  0  0  0  0
   50.7426   98.0134   31.2014 H   0  0  0  0  0  0
   51.9849  100.0127   31.2696 H   0  0  0  0  0  0
   51.4996  103.6935   29.1148 H   0  0  0  0  0  0
   50.8437  102.4688   27.1498 H   0  0  0  0  0  0
   50.9935   97.6798   26.9684 H   0  0  0  0  0  0
   49.2008   99.6102   23.9049 H   0  0  0  0  0  0
   49.6477  101.4831   25.4883 H   0  0  0  0  0  0
   53.0843  101.2126   32.4326 H   0  0  0  0  0  0
   53.4568  101.9268   34.5016 H   0  0  0  0  0  0
   54.6158  103.8653   33.4199 H   0  0  0  0  0  0
   53.1472  104.7802   33.4800 H   0  0  0  0  0  0
   54.6765  102.7164   36.3180 H   0  0  0  0  0  0
   55.9039  103.4635   35.3460 H   0  0  0  0  0  0
   54.9759  104.2199   38.1179 H   0  0  0  0  0  0
   56.5540  104.4871   37.3893 H   0  0  0  0  0  0
   55.8537  106.6942   36.8699 H   0  0  0  0  0  0
   54.2541  106.3386   37.4790 H   0  0  0  0  0  0
   55.2472  106.0163   34.6200 H   0  0  0  0  0  0
   53.6772  106.4889   35.1765 H   0  0  0  0  0  0
   51.3606  104.8676   34.8497 H   0  0  0  0  0  0
   49.1844  104.8523   35.9730 H   0  0  0  0  0  0
   48.0474  102.7059   36.4544 H   0  0  0  0  0  0
   49.1106  100.5678   35.8286 H   0  0  0  0  0  0
   51.3095  100.5606   34.7120 H   0  0  0  0  0  0
  1  2  1  0  0  0
  1 30  1  0  0  0
  1 31  1  0  0  0
  1 32  1  0  0  0
  2  3  1  0  0  0
  3  4  2  0  0  0
  3  8  1  0  0  0
  4  5  1  0  0  0
  4 33  1  0  0  0
  5  6  2  0  0  0
  5 14  1  0  0  0
  6  7  1  0  0  0
  6 34  1  0  0  0
  7  8  2  0  0  0
  7 35  1  0  0  0
  8  9  1  0  0  0
  9 10  1  0  0  0
  9 13  2  0  0  0
 10 11  2  0  0  0
 10 36  1  0  0  0
 11 12  1  0  0  0
 12 13  1  0  0  0
 12 37  1  0  0  0
 13 38  1  0  0  0
 14 15  2  0  0  0
 14 16  1  0  0  0
 16 17  1  0  0  0
 16 39  1  0  0  0
 17 18  1  0  0  0
 17 24  1  0  0  0
 17 40  1  0  0  0
 18 19  1  0  0  0
 18 41  1  0  0  0
 18 42  1  0  0  0
 19 20  1  0  0  0
 19 23  1  0  0  0
 20 21  1  0  0  0
 20 43  1  0  0  0
 20 44  1  0  0  0
 21 22  1  0  0  0
 21 45  1  0  0  0
 21 46  1  0  0  0
 22 23  1  0  0  0
 22 47  1  0  0  0
 22 48  1  0  0  0
 23 49  1  0  0  0
 23 50  1  0  0  0
 24 25  2  0  0  0
 24 29  1  0  0  0
 25 26  1  0  0  0
 25 51  1  0  0  0
 26 27  2  0  0  0
 26 52  1  0  0  0
 27 28  1  0  0  0
 27 53  1  0  0  0
 28 29  2  0  0  0
 28 54  1  0  0  0
 29 55  1  0  0  0
M  END
> <s_m_entry_id>
28078

> <s_m_entry_name>
dock_pv.239

> <s_m_Source_Path>
/home/csk/Desktop/cluster/DUD-E-result/rock1

> <s_m_Source_File>
dock_pv.maegz

> <i_m_Source_File_Index>
239

> <chembl_id>
CHEMBL3943121

> <chembl_pref_name>
None

> <i_lp_mmshare_version>
53161

> <r_lp_tautomer_probability>
0.5

> <s_lp_Force_Field>
OPLS_2005

> <r_lp_Energy>
43.314869

> <b_lp_Chiralities_Consistent>
1

> <s_lp_Variant>
CHEMBL3231_lig589-2

> <s_i_glide_gridfile>
glide-grid_2etr

> <i_i_glide_lignum>
874

> <i_i_glide_rotatable_bonds>
8

> <r_i_docking_score>
-7.94101669315739

> <r_i_glide_ligand_efficiency>
-0.273828161833013

> <r_i_glide_ligand_efficiency_sa>
-0.841286868001907

> <r_i_glide_ligand_efficiency_ln>
-1.81829145592411

> <r_i_glide_gscore>
-7.94101669315739

> <r_i_glide_lipo>
-2.85167715192364

> <r_i_glide_hbond>
-0.687130206955584

> <r_i_glide_metal>
0

> <r_i_glide_rewards>
-1.70260621004415

> <r_i_glide_evdw>
-43.1719093322754

> <r_i_glide_ecoul>
-7.40774011611938

> <r_i_glide_erotb>
0.626824239267567

> <r_i_glide_esite>
-0.0566708794698993

> <r_i_glide_emodel>
-73.0224490779993

> <r_i_glide_energy>
-50.5796494483948

> <r_i_glide_einternal>
4.54236602783203

> <i_i_glide_confnum>
68

> <i_i_glide_posenum>
297

> <r_i_glide_eff_state_penalty>
0

> <s_user_duplicate_titles>
CHEMBL3231_lig589

> <i_f3d_flags>
0

> <s_m_subgroup_title>
dock_pv

> <s_m_subgroupid>
dock_pv

> <b_m_subgroup_collapsed>
1

$$$$
CHEMBL3231_lig2047
                    3D
 Schrodinger Suite 2021-1.
 36 40  0  0  1  0            999 V2000
   51.4105  101.7647   34.4701 N   0  0  0  0  0  0
   51.6159  101.5228   30.0026 N   0  0  0  0  0  0
   50.6649  100.6993   34.8267 N   0  0  0  0  0  0
   51.3671  102.7957   30.3559 N   0  0  0  0  0  0
   49.6195  101.1395   35.6082 N   0  0  0  0  0  0
   51.7297  102.9454   31.6776 N   0  0  0  0  0  0
   50.0358   99.3861   25.1234 N   0  0  0  0  0  0
   50.1518   98.0675   25.3560 N   0  0  0  0  0  0
   50.8469  102.9338   34.9598 C   0  0  0  0  0  0
   51.2591  101.0267   28.7183 C   0  0  0  0  0  0
   52.1573  101.7790   32.1273 C   0  0  0  0  0  0
   49.7156  102.4968   35.6895 C   0  0  0  0  0  0
   50.8301   99.1972   27.1960 C   0  0  0  0  0  0
   52.5528  101.6005   33.5771 C   0  0  0  0  0  0
   52.1351  100.8558   31.0894 C   0  0  0  0  0  0
   50.4220  100.1324   26.2176 C   0  0  0  0  0  0
   51.2732   99.6474   28.4514 C   0  0  0  0  0  0
   50.8410  101.9183   27.7198 C   0  0  0  0  0  0
   51.1760  104.2911   34.8477 C   0  0  0  0  0  0
   50.4427  101.5029   26.4535 C   0  0  0  0  0  0
   48.8981  103.4261   36.3434 C   0  0  0  0  0  0
   50.6413   97.9369   26.5614 C   0  0  0  0  0  0
   50.3363  105.1961   35.5052 C   0  0  0  0  0  0
   49.2262  104.7775   36.2409 C   0  0  0  0  0  0
   49.6699   99.7245   24.2413 H   0  0  0  0  0  0
   53.3202  102.3187   33.8704 H   0  0  0  0  0  0
   52.9900  100.6140   33.7476 H   0  0  0  0  0  0
   52.4003   99.8106   31.0502 H   0  0  0  0  0  0
   51.5799   98.9267   29.1947 H   0  0  0  0  0  0
   50.8079  102.9784   27.9253 H   0  0  0  0  0  0
   52.0345  104.6312   34.2854 H   0  0  0  0  0  0
   50.1169  102.2138   25.7146 H   0  0  0  0  0  0
   48.0428  103.1032   36.9104 H   0  0  0  0  0  0
   50.8424   96.9653   26.9773 H   0  0  0  0  0  0
   50.5613  106.2523   35.4475 H   0  0  0  0  0  0
   48.6111  105.5147   36.7361 H   0  0  0  0  0  0
  1  3  1  0  0  0
  1  9  1  0  0  0
  1 14  1  0  0  0
  2  4  1  0  0  0
  2 10  1  0  0  0
  2 15  1  0  0  0
  3  5  2  0  0  0
  4  6  2  0  0  0
  5 12  1  0  0  0
  6 11  1  0  0  0
  7  8  1  0  0  0
  7 16  1  0  0  0
  7 25  1  0  0  0
  8 22  2  0  0  0
  9 12  1  0  0  0
  9 19  2  0  0  0
 10 17  1  0  0  0
 10 18  2  0  0  0
 11 14  1  0  0  0
 11 15  2  0  0  0
 12 21  2  0  0  0
 13 16  1  0  0  0
 13 17  2  0  0  0
 13 22  1  0  0  0
 14 26  1  0  0  0
 14 27  1  0  0  0
 15 28  1  0  0  0
 16 20  2  0  0  0
 17 29  1  0  0  0
 18 20  1  0  0  0
 18 30  1  0  0  0
 19 23  1  0  0  0
 19 31  1  0  0  0
 20 32  1  0  0  0
 21 24  1  0  0  0
 21 33  1  0  0  0
 22 34  1  0  0  0
 23 24  2  0  0  0
 23 35  1  0  0  0
 24 36  1  0  0  0
M  END
> <s_m_entry_id>
28079

> <s_m_entry_name>
dock_pv.240

> <s_m_Source_Path>
/home/csk/Desktop/cluster/DUD-E-result/rock1

> <s_m_Source_File>
dock_pv.maegz

> <i_m_Source_File_Index>
240

> <chembl_id>
CHEMBL1966069

> <chembl_pref_name>
None

> <i_lp_mmshare_version>
53161

> <r_lp_tautomer_probability>
1

> <s_lp_Force_Field>
OPLS_2005

> <r_lp_Energy>
13.587688

> <b_lp_Chiralities_Consistent>
1

> <s_lp_Variant>
CHEMBL3231_lig2047-1

> <s_i_glide_gridfile>
glide-grid_2etr

> <i_i_glide_lignum>
2971

> <i_i_glide_rotatable_bonds>
3

> <r_i_docking_score>
-7.9364137753996

> <r_i_glide_ligand_efficiency>
-0.330683907308317

> <r_i_glide_ligand_efficiency_sa>
-0.953857445435519

> <r_i_glide_ligand_efficiency_ln>
-1.8995479947511

> <r_i_glide_gscore>
-7.9364137753996

> <r_i_glide_lipo>
-2.76567230421082

> <r_i_glide_hbond>
-0.28287414375159

> <r_i_glide_metal>
0

> <r_i_glide_rewards>
-2.37160705915565

> <r_i_glide_evdw>
-42.8357315063477

> <r_i_glide_ecoul>
-4.40210866928101

> <r_i_glide_erotb>
0.390689067729559

> <r_i_glide_esite>
-0.104846460301565

> <r_i_glide_emodel>
-70.275983523812

> <r_i_glide_energy>
-47.2378401756287

> <r_i_glide_einternal>
0.30288091301918

> <i_i_glide_confnum>
9

> <i_i_glide_posenum>
317

> <r_i_glide_eff_state_penalty>
0

> <s_user_duplicate_titles>
CHEMBL3231_lig2047

> <i_f3d_flags>
0

> <s_m_subgroup_title>
dock_pv

> <s_m_subgroupid>
dock_pv

> <b_m_subgroup_collapsed>
1

$$$$
CHEMBL3231_lig767
                    3D
 Schrodinger Suite 2021-1.
 43 45  0  0  1  0            999 V2000
   49.9030  104.8547   28.3594 C   0  0  0  0  0  0
   50.7420  104.2029   29.3010 O   0  0  0  0  0  0
   51.0530  102.8608   29.1537 C   0  0  0  0  0  0
   50.6598  102.1110   28.0377 C   0  0  0  0  0  0
   51.0331  100.7726   27.8882 C   0  0  0  0  0  0
   51.8391  100.1798   28.8639 C   0  0  0  0  0  0
   52.2306  100.9032   29.9882 C   0  0  0  0  0  0
   51.8188  102.2330   30.1544 C   0  0  0  0  0  0
   52.1465  102.9674   31.4245 C   0  0  0  0  0  0
   51.2449  103.5021   32.0685 O   0  0  0  0  0  0
   53.4475  103.0060   31.7671 N   0  0  0  0  0  0
   54.0444  103.8576   32.8068 C   0  0  2  0  0  0
   55.5262  103.5031   32.9718 C   0  0  0  0  0  0
   53.3348  103.8524   34.1703 C   0  0  0  0  0  0
   52.9328  102.6474   34.7647 C   0  0  0  0  0  0
   52.2524  102.6643   35.9833 C   0  0  0  0  0  0
   51.9756  103.8798   36.6063 C   0  0  0  0  0  0
   51.3123  103.9031   37.7854 F   0  0  0  0  0  0
   52.3798  105.0798   36.0250 C   0  0  0  0  0  0
   53.0621  105.0649   34.8107 C   0  0  0  0  0  0
   50.5522  100.0084   26.7014 C   0  0  0  0  0  0
   50.5896   98.6227   26.4541 C   0  0  0  0  0  0
   50.0432   98.2826   25.3088 N   0  0  0  0  0  0
   49.6491   99.4389   24.7789 N   0  0  0  0  0  0
   49.9370  100.5122   25.5651 C   0  0  0  0  0  0
   49.8431  105.9128   28.6098 H   0  0  0  0  0  0
   50.2862  104.7857   27.3390 H   0  0  0  0  0  0
   48.8927  104.4462   28.4100 H   0  0  0  0  0  0
   50.0501  102.5646   27.2726 H   0  0  0  0  0  0
   52.1516   99.1499   28.7665 H   0  0  0  0  0  0
   52.8296  100.4105   30.7442 H   0  0  0  0  0  0
   54.1044  102.6192   31.1044 H   0  0  0  0  0  0
   53.9973  104.8771   32.4096 H   0  0  0  0  0  0
   56.0365  104.2216   33.6114 H   0  0  0  0  0  0
   55.6431  102.5131   33.4126 H   0  0  0  0  0  0
   56.0444  103.5022   32.0120 H   0  0  0  0  0  0
   53.1429  101.7040   34.2787 H   0  0  0  0  0  0
   51.9411  101.7361   36.4430 H   0  0  0  0  0  0
   52.1626  106.0188   36.5120 H   0  0  0  0  0  0
   53.3640  106.0018   34.3639 H   0  0  0  0  0  0
   51.0009   97.8721   27.1141 H   0  0  0  0  0  0
   49.2025   99.5024   23.8680 H   0  0  0  0  0  0
   49.6681  101.5090   25.2517 H   0  0  0  0  0  0
  1  2  1  0  0  0
  1 26  1  0  0  0
  1 27  1  0  0  0
  1 28  1  0  0  0
  2  3  1  0  0  0
  3  4  2  0  0  0
  3  8  1  0  0  0
  4  5  1  0  0  0
  4 29  1  0  0  0
  5  6  2  0  0  0
  5 21  1  0  0  0
  6  7  1  0  0  0
  6 30  1  0  0  0
  7  8  2  0  0  0
  7 31  1  0  0  0
  8  9  1  0  0  0
  9 10  2  0  0  0
  9 11  1  0  0  0
 11 12  1  0  0  0
 11 32  1  0  0  0
 12 13  1  0  0  0
 12 14  1  0  0  0
 12 33  1  0  0  0
 13 34  1  0  0  0
 13 35  1  0  0  0
 13 36  1  0  0  0
 14 15  2  0  0  0
 14 20  1  0  0  0
 15 16  1  0  0  0
 15 37  1  0  0  0
 16 17  2  0  0  0
 16 38  1  0  0  0
 17 18  1  0  0  0
 17 19  1  0  0  0
 19 20  2  0  0  0
 19 39  1  0  0  0
 20 40  1  0  0  0
 21 22  1  0  0  0
 21 25  2  0  0  0
 22 23  2  0  0  0
 22 41  1  0  0  0
 23 24  1  0  0  0
 24 25  1  0  0  0
 24 42  1  0  0  0
 25 43  1  0  0  0
M  END
> <s_m_entry_id>
28080

> <s_m_entry_name>
dock_pv.241

> <s_m_Source_Path>
/home/csk/Desktop/cluster/DUD-E-result/rock1

> <s_m_Source_File>
dock_pv.maegz

> <i_m_Source_File_Index>
241

> <chembl_id>
CHEMBL4112558

> <chembl_pref_name>
None

> <i_lp_mmshare_version>
53161

> <r_lp_tautomer_probability>
0.5

> <s_lp_Force_Field>
OPLS_2005

> <r_lp_Energy>
21.842331

> <b_lp_Chiralities_Consistent>
1

> <s_lp_Variant>
CHEMBL3231_lig767-1

> <s_i_glide_gridfile>
glide-grid_2etr

> <i_i_glide_lignum>
1087

> <i_i_glide_rotatable_bonds>
6

> <r_i_docking_score>
-7.9352981807317

> <r_i_glide_ligand_efficiency>
-0.317411927229268

> <r_i_glide_ligand_efficiency_sa>
-0.928118104542878

> <r_i_glide_ligand_efficiency_ln>
-1.88090347053047

> <r_i_glide_gscore>
-7.9352981807317

> <r_i_glide_lipo>
-2.02217759331855

> <r_i_glide_hbond>
-0.669643333341286

> <r_i_glide_metal>
0

> <r_i_glide_rewards>
-1.88530467824819

> <r_i_glide_evdw>
-39.3207702636719

> <r_i_glide_ecoul>
-11.7869453430176

> <r_i_glide_erotb>
0.460081698707408

> <r_i_glide_esite>
-0.0841739598948524

> <r_i_glide_emodel>
-75.1616978796144

> <r_i_glide_energy>
-51.1077156066895

> <r_i_glide_einternal>
3.01938939094543

> <i_i_glide_confnum>
10

> <i_i_glide_posenum>
357

> <r_i_glide_eff_state_penalty>
0

> <s_user_duplicate_titles>
CHEMBL3231_lig767

> <i_f3d_flags>
0

> <s_m_subgroup_title>
dock_pv

> <s_m_subgroupid>
dock_pv

> <b_m_subgroup_collapsed>
1

$$$$
CHEMBL3231_lig1890
                    3D
 Schrodinger Suite 2021-1.
 50 53  0  0  1  0            999 V2000
   54.3162  104.0613   33.7291 Cl  0  0  0  0  0  0
   53.0987  101.3859   33.7635 O   0  0  0  0  0  0
   48.3831  102.1200   35.3339 N   0  0  0  0  0  0
   53.6424  103.9030   31.1791 N   0  0  0  0  0  0
   53.4822   99.4153   36.0129 N   0  0  0  0  0  0
   50.0422   98.3037   25.2106 N   0  0  0  0  0  0
   50.1770  103.2314   36.1020 C   0  0  0  0  0  0
   50.5223  101.8339   36.0107 C   0  0  0  0  0  0
   48.8235  103.3758   35.6696 C   0  0  0  0  0  0
   49.3783  101.2056   35.5497 C   0  0  0  0  0  0
   53.0820  101.9689   32.5123 C   0  0  0  0  0  0
   51.8627  101.2049   36.3679 C   0  0  0  0  0  0
   50.8745  104.3859   36.4960 C   0  0  0  0  0  0
   48.1680  104.6098   35.6358 C   0  0  0  0  0  0
   53.6327  103.2471   32.3659 C   0  0  0  0  0  0
   52.2241   99.9553   35.5283 C   0  0  1  0  0  0
   52.5519  102.0192   30.1306 C   0  0  0  0  0  0
   52.5349  101.3601   31.3693 C   0  0  0  0  0  0
   50.2291  105.6212   36.4473 C   0  0  0  0  0  0
   52.3155  100.2181   34.0082 C   0  0  0  0  0  0
   48.9054  105.7270   36.0267 C   0  0  0  0  0  0
   53.1249  103.2913   30.0901 C   0  0  0  0  0  0
   52.0124  101.4293   28.8915 C   0  0  0  0  0  0
   51.5482  100.1700   28.7516 C   0  0  0  0  0  0
   50.9986   99.5670   27.5251 C   0  0  0  0  0  0
   50.5755  100.3231   26.4220 C   0  0  0  0  0  0
   50.9210   98.1726   27.4510 C   0  0  0  0  0  0
   50.1048   99.6556   25.2909 C   0  0  0  0  0  0
   50.4431   97.5833   26.2839 C   0  0  0  0  0  0
   47.4648  101.8643   35.0019 H   0  0  0  0  0  0
   53.7818   98.6450   35.4312 H   0  0  0  0  0  0
   54.1991  100.1235   35.9177 H   0  0  0  0  0  0
   49.1914  100.1614   35.3490 H   0  0  0  0  0  0
   51.8722  100.9405   37.4252 H   0  0  0  0  0  0
   52.6531  101.9476   36.2516 H   0  0  0  0  0  0
   51.9017  104.3220   36.8190 H   0  0  0  0  0  0
   47.1404  104.6996   35.3165 H   0  0  0  0  0  0
   51.4702   99.1886   35.7000 H   0  0  0  0  0  0
   52.1093  100.3749   31.4473 H   0  0  0  0  0  0
   50.7642  106.5133   36.7386 H   0  0  0  0  0  0
   51.3068  100.3545   33.6151 H   0  0  0  0  0  0
   52.7520   99.3614   33.4896 H   0  0  0  0  0  0
   48.4403  106.7021   36.0103 H   0  0  0  0  0  0
   53.1810  103.8579   29.1718 H   0  0  0  0  0  0
   51.9980  102.0817   28.0294 H   0  0  0  0  0  0
   51.5593   99.5080   29.6063 H   0  0  0  0  0  0
   50.6080  101.4031   26.4331 H   0  0  0  0  0  0
   51.2400   97.5483   28.2733 H   0  0  0  0  0  0
   49.7712  100.2046   24.4210 H   0  0  0  0  0  0
   50.3994   96.5088   26.1909 H   0  0  0  0  0  0
  1 15  1  0  0  0
  2 11  1  0  0  0
  2 20  1  0  0  0
  3  9  1  0  0  0
  3 10  1  0  0  0
  3 30  1  0  0  0
  4 15  2  0  0  0
  4 22  1  0  0  0
  5 16  1  0  0  0
  5 31  1  0  0  0
  5 32  1  0  0  0
  6 28  2  0  0  0
  6 29  1  0  0  0
  7  8  1  0  0  0
  7  9  1  0  0  0
  7 13  2  0  0  0
  8 10  2  0  0  0
  8 12  1  0  0  0
  9 14  2  0  0  0
 10 33  1  0  0  0
 11 15  1  0  0  0
 11 18  2  0  0  0
 12 16  1  0  0  0
 12 34  1  0  0  0
 12 35  1  0  0  0
 13 19  1  0  0  0
 13 36  1  0  0  0
 14 21  1  0  0  0
 14 37  1  0  0  0
 16 20  1  0  0  0
 16 38  1  0  0  0
 17 18  1  0  0  0
 17 22  2  0  0  0
 17 23  1  0  0  0
 18 39  1  0  0  0
 19 21  2  0  0  0
 19 40  1  0  0  0
 20 41  1  0  0  0
 20 42  1  0  0  0
 21 43  1  0  0  0
 22 44  1  0  0  0
 23 24  2  3  0  0
 23 45  1  0  0  0
 24 25  1  0  0  0
 24 46  1  0  0  0
 25 26  2  0  0  0
 25 27  1  0  0  0
 26 28  1  0  0  0
 26 47  1  0  0  0
 27 29  2  0  0  0
 27 48  1  0  0  0
 28 49  1  0  0  0
 29 50  1  0  0  0
M  END
> <s_m_entry_id>
28081

> <s_m_entry_name>
dock_pv.242

> <s_m_Source_Path>
/home/csk/Desktop/cluster/DUD-E-result/rock1

> <s_m_Source_File>
dock_pv.maegz

> <i_m_Source_File_Index>
242

> <chembl_id>
CHEMBL1968245

> <chembl_pref_name>
None

> <i_lp_mmshare_version>
53161

> <r_lp_tautomer_probability>
1

> <s_lp_Force_Field>
OPLS_2005

> <r_lp_Energy>
23.954996

> <b_lp_Chiralities_Consistent>
1

> <s_lp_Variant>
CHEMBL3231_lig1890-3

> <s_i_glide_gridfile>
glide-grid_2etr

> <i_i_glide_lignum>
2739

> <i_i_glide_rotatable_bonds>
7

> <r_i_docking_score>
-7.93258651075747

> <r_i_glide_ligand_efficiency>
-0.273537465888189

> <r_i_glide_ligand_efficiency_sa>
-0.840393757960466

> <r_i_glide_ligand_efficiency_ln>
-1.81636115792551

> <r_i_glide_gscore>
-7.93258651075747

> <r_i_glide_lipo>
-3.86685589573407

> <r_i_glide_hbond>
-0.23596094043708

> <r_i_glide_metal>
0

> <r_i_glide_rewards>
-1.99846540909091

> <r_i_glide_evdw>
-50.430061340332

> <r_i_glide_ecoul>
-0.192573800683022

> <r_i_glide_erotb>
0.719084871623642

> <r_i_glide_esite>
0

> <r_i_glide_emodel>
-71.7028563774759

> <r_i_glide_energy>
-50.6226351410151

> <r_i_glide_einternal>
6.24825143814087

> <i_i_glide_confnum>
7

> <i_i_glide_posenum>
275

> <r_i_glide_eff_state_penalty>
0

> <s_user_duplicate_titles>
CHEMBL3231_lig1890,CHEMBL3231_lig1890

> <i_f3d_flags>
0

> <s_m_subgroup_title>
dock_pv

> <s_m_subgroupid>
dock_pv

> <b_m_subgroup_collapsed>
1

$$$$
CHEMBL3231_lig43
                    3D
 Schrodinger Suite 2021-1.
 43 46  0  0  1  0            999 V2000
   54.6159   98.5233   31.2525 C   0  0  0  0  0  0
   54.3235   99.7217   32.1577 C   0  0  0  0  0  0
   53.5044  100.7845   31.9023 C   0  0  0  0  0  0
   53.4217  101.9025   32.9770 C   0  0  2  0  0  0
   54.6254  101.8342   33.8429 N   0  0  0  0  0  0
   55.2321  100.6756   34.1911 C   0  0  0  0  0  0
   55.7102  100.4994   35.3053 O   0  0  0  0  0  0
   55.1195   99.6965   33.2652 N   0  0  0  0  0  0
   52.1168  101.9288   33.7842 C   0  0  0  0  0  0
   51.6363  100.7634   34.3940 C   0  0  0  0  0  0
   50.4521  100.7953   35.1245 C   0  0  0  0  0  0
   49.7431  101.9873   35.2405 C   0  0  0  0  0  0
   48.5942  102.0169   35.9498 F   0  0  0  0  0  0
   50.2090  103.1508   34.6354 C   0  0  0  0  0  0
   51.3924  103.1211   33.9024 C   0  0  0  0  0  0
   52.5950  100.9431   30.7633 C   0  0  0  0  0  0
   52.0934  102.0382   30.4979 O   0  0  0  0  0  0
   52.3012   99.8138   30.0820 N   0  0  0  0  0  0
   51.5948   99.6293   28.8796 C   0  0  0  0  0  0
   51.3614   98.3034   28.5069 C   0  0  0  0  0  0
   50.8013   97.9695   27.2743 C   0  0  0  0  0  0
   50.4214   99.0045   26.4135 C   0  0  0  0  0  0
   49.8717   98.8918   25.1667 N   0  0  0  0  0  0
   49.6555  100.1711   24.8125 N   0  0  0  0  0  0
   50.0433  101.1029   25.7473 C   0  0  0  0  0  0
   50.5908  100.3626   26.8143 C   0  0  0  0  0  0
   51.1909  100.6761   28.0388 C   0  0  0  0  0  0
   54.6001   98.7874   30.1958 H   0  0  0  0  0  0
   55.6172   98.1199   31.4226 H   0  0  0  0  0  0
   53.9086   97.7156   31.4393 H   0  0  0  0  0  0
   53.4775  102.8788   32.4885 H   0  0  0  0  0  0
   54.7388  102.5739   34.5187 H   0  0  0  0  0  0
   55.7354   98.9131   33.4223 H   0  0  0  0  0  0
   52.1874   99.8375   34.3100 H   0  0  0  0  0  0
   50.0833   99.9038   35.6059 H   0  0  0  0  0  0
   49.6555  104.0711   34.7436 H   0  0  0  0  0  0
   51.7537  104.0292   33.4419 H   0  0  0  0  0  0
   52.6799   98.9696   30.4810 H   0  0  0  0  0  0
   51.6425   97.5031   29.1743 H   0  0  0  0  0  0
   50.6670   96.9363   26.9919 H   0  0  0  0  0  0
   49.2342  100.3950   23.9161 H   0  0  0  0  0  0
   49.8979  102.1629   25.6109 H   0  0  0  0  0  0
   51.3503  101.7122   28.2899 H   0  0  0  0  0  0
  1  2  1  0  0  0
  1 28  1  0  0  0
  1 29  1  0  0  0
  1 30  1  0  0  0
  2  3  2  0  0  0
  2  8  1  0  0  0
  3  4  1  0  0  0
  3 16  1  0  0  0
  4  5  1  0  0  0
  4  9  1  0  0  0
  4 31  1  0  0  0
  5  6  1  0  0  0
  5 32  1  0  0  0
  6  7  2  0  0  0
  6  8  1  0  0  0
  8 33  1  0  0  0
  9 10  2  0  0  0
  9 15  1  0  0  0
 10 11  1  0  0  0
 10 34  1  0  0  0
 11 12  2  0  0  0
 11 35  1  0  0  0
 12 13  1  0  0  0
 12 14  1  0  0  0
 14 15  2  0  0  0
 14 36  1  0  0  0
 15 37  1  0  0  0
 16 17  2  0  0  0
 16 18  1  0  0  0
 18 38  1  0  0  0
 18 19  1  0  0  0
 19 20  1  0  0  0
 19 27  2  0  0  0
 20 21  2  0  0  0
 20 39  1  0  0  0
 21 22  1  0  0  0
 21 40  1  0  0  0
 22 23  2  0  0  0
 22 26  1  0  0  0
 23 24  1  0  0  0
 24 41  1  0  0  0
 24 25  1  0  0  0
 25 26  2  0  0  0
 25 42  1  0  0  0
 26 27  1  0  0  0
 27 43  1  0  0  0
M  END
> <s_m_entry_id>
28082

> <s_m_entry_name>
dock_pv.243

> <s_m_Source_Path>
/home/csk/Desktop/cluster/DUD-E-result/rock1

> <s_m_Source_File>
dock_pv.maegz

> <i_m_Source_File_Index>
243

> <chembl_id>
CHEMBL384073

> <chembl_pref_name>
GSK-180736A

> <i_lp_mmshare_version>
53161

> <r_lp_tautomer_probability>
0.019607843137214

> <s_lp_Force_Field>
OPLS_2005

> <r_lp_Energy>
59.045182

> <b_lp_Chiralities_Consistent>
1

> <s_lp_Variant>
CHEMBL3231_lig43-3

> <s_i_glide_gridfile>
glide-grid_2etr

> <i_i_glide_lignum>
45

> <i_i_glide_rotatable_bonds>
4

> <r_i_docking_score>
-7.9260528005371

> <r_i_glide_ligand_efficiency>
-0.293557511131004

> <r_i_glide_ligand_efficiency_sa>
-0.880672532425493

> <r_i_glide_ligand_efficiency_ln>
-1.84505442077211

> <r_i_glide_gscore>
-7.9260528005371

> <r_i_glide_lipo>
-2.68572088902979

> <r_i_glide_hbond>
-0.32

> <r_i_glide_metal>
0

> <r_i_glide_rewards>
-2.59066357813217

> <r_i_glide_evdw>
-42.9799652099609

> <r_i_glide_ecoul>
-4.55283117294312

> <r_i_glide_erotb>
0.576386517033457

> <r_i_glide_esite>
-0.0741319139690791

> <r_i_glide_emodel>
-68.5549773876706

> <r_i_glide_energy>
-47.5327963829041

> <r_i_glide_einternal>
5.5948691368103

> <i_i_glide_confnum>
10

> <i_i_glide_posenum>
361

> <r_i_glide_eff_state_penalty>
0

> <s_user_duplicate_titles>
CHEMBL3231_lig43,CHEMBL3231_lig43,365445

> <i_f3d_flags>
0

> <s_m_subgroup_title>
dock_pv

> <s_m_subgroupid>
dock_pv

> <b_m_subgroup_collapsed>
1

$$$$
CHEMBL3231_lig393
                    3D
 Schrodinger Suite 2021-1.
 61 64  0  0  1  0            999 V2000
   52.8518  102.6179   33.7425 N   0  0  0  0  0  0
   52.1639  102.5558   32.5652 C   0  0  0  0  0  0
   51.0702  103.1035   32.3953 O   0  0  0  0  0  0
   52.7451  101.7867   31.6243 N   0  0  0  0  0  0
   52.2979  103.3366   34.9035 C   0  0  0  0  0  0
   51.0001  102.7303   35.5033 C   0  0  0  0  0  0
   47.6506  105.1036   36.4115 O   0  0  0  0  0  0
   47.3922  103.9476   35.6294 C   0  0  0  0  0  0
   48.5889  102.9700   35.7187 C   0  0  0  0  0  0
   49.8565  103.6403   35.3838 N   0  0  0  0  0  0
   50.0336  104.8811   36.1557 C   0  0  0  0  0  0
   48.8130  105.8009   35.9891 C   0  0  0  0  0  0
   54.2149  102.0729   33.9419 C   0  0  0  0  0  0
   54.2810  100.5531   34.0326 C   0  0  0  0  0  0
   53.5919   99.8621   35.0347 C   0  0  0  0  0  0
   53.6602   98.4698   35.1282 C   0  0  0  0  0  0
   54.4129   97.7647   34.1738 C   0  0  0  0  0  0
   55.0960   98.4470   33.1680 C   0  0  0  0  0  0
   55.0430   99.8377   33.1054 C   0  0  0  0  0  0
   52.9754   97.8807   36.1730 O   0  0  0  0  0  0
   53.1809   96.4967   36.4378 C   0  0  0  0  0  0
   52.2029  101.3661   30.4084 C   0  0  0  0  0  0
   52.5537  100.0840   29.9960 C   0  0  0  0  0  0
   52.0370   99.5784   28.8128 C   0  0  0  0  0  0
   51.1806  100.3574   28.0309 C   0  0  0  0  0  0
   50.8456  101.6533   28.4325 C   0  0  0  0  0  0
   51.3662  102.1641   29.6167 C   0  0  0  0  0  0
   49.6910   99.5036   24.8123 N   0  0  0  0  0  0
   50.0369   98.2756   25.2069 N   0  0  0  0  0  0
   50.5849   98.4495   26.3803 C   0  0  0  0  0  0
   50.6278   99.7960   26.7749 C   0  0  0  0  0  0
   50.0349  100.4668   25.7166 C   0  0  0  0  0  0
   53.5839  101.3069   31.9073 H   0  0  0  0  0  0
   52.1532  104.3715   34.5884 H   0  0  0  0  0  0
   53.0397  103.3814   35.7007 H   0  0  0  0  0  0
   51.1599  102.4707   36.5510 H   0  0  0  0  0  0
   50.7661  101.7938   34.9940 H   0  0  0  0  0  0
   47.1733  104.2172   34.5976 H   0  0  0  0  0  0
   46.4772  103.5042   36.0103 H   0  0  0  0  0  0
   48.6470  102.5478   36.7234 H   0  0  0  0  0  0
   48.4326  102.1261   35.0467 H   0  0  0  0  0  0
   50.9240  105.4220   35.8383 H   0  0  0  0  0  0
   50.1911  104.6431   37.2087 H   0  0  0  0  0  0
   48.7124  106.1379   34.9562 H   0  0  0  0  0  0
   48.9320  106.6934   36.5954 H   0  0  0  0  0  0
   54.8484  102.4062   33.1178 H   0  0  0  0  0  0
   54.6819  102.4845   34.8358 H   0  0  0  0  0  0
   53.0114  100.4084   35.7628 H   0  0  0  0  0  0
   54.4875   96.6882   34.2014 H   0  0  0  0  0  0
   55.6869   97.9023   32.4440 H   0  0  0  0  0  0
   55.5973  100.3495   32.3296 H   0  0  0  0  0  0
   52.5986   96.2066   37.3129 H   0  0  0  0  0  0
   52.8586   95.8695   35.6053 H   0  0  0  0  0  0
   54.2308   96.2861   36.6502 H   0  0  0  0  0  0
   53.2112   99.4687   30.5931 H   0  0  0  0  0  0
   52.3097   98.5791   28.5121 H   0  0  0  0  0  0
   50.1899  102.2670   27.8311 H   0  0  0  0  0  0
   51.1176  103.1733   29.9092 H   0  0  0  0  0  0
   49.2457   99.6800   23.9155 H   0  0  0  0  0  0
   50.9490   97.6063   26.9487 H   0  0  0  0  0  0
   49.8283  101.5100   25.5297 H   0  0  0  0  0  0
  1  2  1  0  0  0
  1  5  1  0  0  0
  1 13  1  0  0  0
  2  3  2  0  0  0
  2  4  1  0  0  0
  4 22  1  0  0  0
  4 33  1  0  0  0
  5  6  1  0  0  0
  5 34  1  0  0  0
  5 35  1  0  0  0
  6 10  1  0  0  0
  6 36  1  0  0  0
  6 37  1  0  0  0
  7  8  1  0  0  0
  7 12  1  0  0  0
  8  9  1  0  0  0
  8 38  1  0  0  0
  8 39  1  0  0  0
  9 10  1  0  0  0
  9 40  1  0  0  0
  9 41  1  0  0  0
 10 11  1  0  0  0
 11 12  1  0  0  0
 11 42  1  0  0  0
 11 43  1  0  0  0
 12 44  1  0  0  0
 12 45  1  0  0  0
 13 14  1  0  0  0
 13 46  1  0  0  0
 13 47  1  0  0  0
 14 15  1  0  0  0
 14 19  2  0  0  0
 15 16  2  0  0  0
 15 48  1  0  0  0
 16 17  1  0  0  0
 16 20  1  0  0  0
 17 18  2  0  0  0
 17 49  1  0  0  0
 18 19  1  0  0  0
 18 50  1  0  0  0
 19 51  1  0  0  0
 20 21  1  0  0  0
 21 52  1  0  0  0
 21 53  1  0  0  0
 21 54  1  0  0  0
 22 23  1  0  0  0
 22 27  2  0  0  0
 23 24  2  0  0  0
 23 55  1  0  0  0
 24 25  1  0  0  0
 24 56  1  0  0  0
 25 26  2  0  0  0
 25 31  1  0  0  0
 26 27  1  0  0  0
 26 57  1  0  0  0
 27 58  1  0  0  0
 28 29  1  0  0  0
 28 32  1  0  0  0
 28 59  1  0  0  0
 29 30  2  0  0  0
 30 31  1  0  0  0
 30 60  1  0  0  0
 31 32  2  0  0  0
 32 61  1  0  0  0
M  END
> <s_m_entry_id>
28083

> <s_m_entry_name>
dock_pv.244

> <s_m_Source_Path>
/home/csk/Desktop/cluster/DUD-E-result/rock1

> <s_m_Source_File>
dock_pv.maegz

> <i_m_Source_File_Index>
244

> <chembl_id>
CHEMBL2332071

> <chembl_pref_name>
None

> <i_lp_mmshare_version>
53161

> <r_lp_tautomer_probability>
0.5

> <s_lp_Force_Field>
OPLS_2005

> <r_lp_Energy>
53.1032

> <b_lp_Chiralities_Consistent>
1

> <s_lp_Variant>
CHEMBL3231_lig393-1

> <s_i_glide_gridfile>
glide-grid_2etr

> <i_i_glide_lignum>
552

> <i_i_glide_rotatable_bonds>
10

> <r_i_docking_score>
-7.92453302195989

> <r_i_glide_ligand_efficiency>
-0.247641656936247

> <r_i_glide_ligand_efficiency_sa>
-0.786213252555223

> <r_i_glide_ligand_efficiency_ln>
-1.77451895822852

> <r_i_glide_gscore>
-7.92453302195989

> <r_i_glide_lipo>
-2.77433010045637

> <r_i_glide_hbond>
-0.613279042960944

> <r_i_glide_metal>
0

> <r_i_glide_rewards>
-1.3254518456922

> <r_i_glide_evdw>
-47.6283378601074

> <r_i_glide_ecoul>
-9.10777473449707

> <r_i_glide_erotb>
0.588264383715914

> <r_i_glide_esite>
-0.0521533133863616

> <r_i_glide_emodel>
-72.0678930975683

> <r_i_glide_energy>
-56.7361125946045

> <r_i_glide_einternal>
27.2846031188965

> <i_i_glide_confnum>
6

> <i_i_glide_posenum>
48

> <r_i_glide_eff_state_penalty>
0

> <s_user_duplicate_titles>
CHEMBL3231_lig393

> <i_f3d_flags>
0

> <s_m_subgroup_title>
dock_pv

> <s_m_subgroupid>
dock_pv

> <b_m_subgroup_collapsed>
1

$$$$
CHEMBL3231_lig541
                    3D
 Schrodinger Suite 2021-1.
 48 51  0  0  1  0            999 V2000
   52.4991   99.5770   35.6709 C   0  0  0  0  0  0
   52.5229  100.8851   34.9882 N   0  0  0  0  0  0
   53.5314  101.0091   34.0686 C   0  0  0  0  0  0
   54.3214  100.1109   33.7642 O   0  0  0  0  0  0
   53.6664  102.3955   33.3981 C   0  0  1  0  0  0
   52.6621  102.6731   32.2362 C   0  0  0  0  0  0
   52.8649  101.8645   30.9229 C   0  0  2  0  0  0
   52.3402  102.6710   29.6860 C   0  0  0  0  0  0
   51.7751  101.8145   28.5565 C   0  0  0  0  0  0
   51.4496  100.5076   28.6598 C   0  0  0  0  0  0
   51.6455   99.8648   29.9550 C   0  0  0  0  0  0
   52.2618  100.4568   30.9947 C   0  0  0  0  0  0
   50.9213   99.7498   27.4778 C   0  0  0  0  0  0
   50.4559  100.3999   26.3143 C   0  0  0  0  0  0
   50.0347   99.6513   25.2175 C   0  0  0  0  0  0
   50.0429   98.3002   25.2119 N   0  0  0  0  0  0
   50.4496   97.6647   26.3350 C   0  0  0  0  0  0
   50.8933   98.3432   27.4694 C   0  0  0  0  0  0
   53.7524  103.4745   34.3871 N   0  0  0  0  0  0
   52.8050  103.9404   35.2117 C   0  0  0  0  0  0
   52.9871  104.9299   35.9197 O   0  0  0  0  0  0
   51.5062  103.1576   35.2676 C   0  0  0  0  0  0
   50.3733  103.9376   35.5634 C   0  0  0  0  0  0
   49.1250  103.3490   35.7251 C   0  0  0  0  0  0
   47.7414  104.3193   36.0874 Cl  0  0  0  0  0  0
   49.0000  101.9734   35.6130 C   0  0  0  0  0  0
   50.1136  101.1908   35.3363 C   0  0  0  0  0  0
   51.3886  101.7425   35.1160 C   0  0  0  0  0  0
   53.4957   99.2814   36.0073 H   0  0  0  0  0  0
   51.8695   99.6079   36.5619 H   0  0  0  0  0  0
   52.1198   98.7977   35.0071 H   0  0  0  0  0  0
   54.6616  102.4032   32.9472 H   0  0  0  0  0  0
   51.6253  102.5890   32.5641 H   0  0  0  0  0  0
   52.7884  103.7296   31.9869 H   0  0  0  0  0  0
   53.9380  101.7170   30.7748 H   0  0  0  0  0  0
   51.5464  103.3586   29.9791 H   0  0  0  0  0  0
   53.1475  103.2947   29.2961 H   0  0  0  0  0  0
   51.6449  102.3033   27.6116 H   0  0  0  0  0  0
   51.2555   98.8722   30.1242 H   0  0  0  0  0  0
   52.3468   99.8797   31.9029 H   0  0  0  0  0  0
   50.4012  101.4728   26.2316 H   0  0  0  0  0  0
   49.6782  100.1336   24.3170 H   0  0  0  0  0  0
   50.4436   96.5846   26.3066 H   0  0  0  0  0  0
   51.2410   97.7633   28.3112 H   0  0  0  0  0  0
   54.6370  103.9514   34.4773 H   0  0  0  0  0  0
   50.4500  105.0111   35.6831 H   0  0  0  0  0  0
   48.0446  101.5025   35.7675 H   0  0  0  0  0  0
   49.9709  100.1225   35.2822 H   0  0  0  0  0  0
  1  2  1  0  0  0
  1 29  1  0  0  0
  1 30  1  0  0  0
  1 31  1  0  0  0
  2  3  1  0  0  0
  2 28  1  0  0  0
  3  4  2  0  0  0
  3  5  1  0  0  0
  5  6  1  0  0  0
  5 19  1  0  0  0
  5 32  1  0  0  0
  6  7  1  0  0  0
  6 33  1  0  0  0
  6 34  1  0  0  0
  7  8  1  0  0  0
  7 12  1  0  0  0
  7 35  1  0  0  0
  8  9  1  0  0  0
  8 36  1  0  0  0
  8 37  1  0  0  0
  9 10  2  0  0  0
  9 38  1  0  0  0
 10 11  1  0  0  0
 10 13  1  0  0  0
 11 12  2  0  0  0
 11 39  1  0  0  0
 12 40  1  0  0  0
 13 14  2  0  0  0
 13 18  1  0  0  0
 14 15  1  0  0  0
 14 41  1  0  0  0
 15 16  2  0  0  0
 15 42  1  0  0  0
 16 17  1  0  0  0
 17 18  2  0  0  0
 17 43  1  0  0  0
 18 44  1  0  0  0
 19 20  1  0  0  0
 19 45  1  0  0  0
 20 21  2  0  0  0
 20 22  1  0  0  0
 22 23  2  0  0  0
 22 28  1  0  0  0
 23 24  1  0  0  0
 23 46  1  0  0  0
 24 25  1  0  0  0
 24 26  2  0  0  0
 26 27  1  0  0  0
 26 47  1  0  0  0
 27 28  2  0  0  0
 27 48  1  0  0  0
M  END
> <s_m_entry_id>
28084

> <s_m_entry_name>
dock_pv.245

> <s_m_Source_Path>
/home/csk/Desktop/cluster/DUD-E-result/rock1

> <s_m_Source_File>
dock_pv.maegz

> <i_m_Source_File_Index>
245

> <chembl_id>
CHEMBL4112110

> <chembl_pref_name>
None

> <i_lp_mmshare_version>
53161

> <r_lp_tautomer_probability>
1

> <s_lp_Force_Field>
OPLS_2005

> <r_lp_Energy>
48.018892

> <b_lp_Chiralities_Consistent>
1

> <s_lp_Variant>
CHEMBL3231_lig541-1

> <s_i_glide_gridfile>
glide-grid_2etr

> <i_i_glide_lignum>
818

> <i_i_glide_rotatable_bonds>
3

> <r_i_docking_score>
-7.92273047166342

> <r_i_glide_ligand_efficiency>
-0.282954659702265

> <r_i_glide_ligand_efficiency_sa>
-0.859216998238367

> <r_i_glide_ligand_efficiency_ln>
-1.8287988143346

> <r_i_glide_gscore>
-7.92273047166342

> <r_i_glide_lipo>
-3.44757531471598

> <r_i_glide_hbond>
-0.23670566275169

> <r_i_glide_metal>
0

> <r_i_glide_rewards>
-2.13783175413653

> <r_i_glide_evdw>
-44.771354675293

> <r_i_glide_ecoul>
-1.50673413276672

> <r_i_glide_erotb>
0.37785929908351

> <r_i_glide_esite>
-0.0138991854630733

> <r_i_glide_emodel>
-66.5976450149642

> <r_i_glide_energy>
-46.2780888080597

> <r_i_glide_einternal>
2.80445647239685

> <i_i_glide_confnum>
52

> <i_i_glide_posenum>
351

> <r_i_glide_eff_state_penalty>
0

> <s_user_duplicate_titles>
CHEMBL3231_lig541

> <i_f3d_flags>
0

> <s_m_subgroup_title>
dock_pv

> <s_m_subgroupid>
dock_pv

> <b_m_subgroup_collapsed>
1

$$$$
CHEMBL3231_lig638
                    3D
 Schrodinger Suite 2021-1.
 51 53  0  0  1  0            999 V2000
   55.2433   96.9507   31.6586 C   0  0  0  0  0  0
   53.7862   96.9513   31.6341 N   0  0  0  0  0  0
   53.2864   97.1525   32.9932 C   0  0  0  0  0  0
   53.3009   97.9724   30.7031 C   0  0  0  0  0  0
   51.7801   97.8220   30.4132 C   0  0  0  0  0  0
   51.3488   98.5542   29.2584 O   0  0  0  0  0  0
   51.3294   99.9382   29.2534 C   0  0  0  0  0  0
   51.6582  100.6900   30.3939 C   0  0  0  0  0  0
   51.6428  102.0898   30.4008 C   0  0  0  0  0  0
   51.2699  102.7437   29.2221 C   0  0  0  0  0  0
   50.9011  102.0164   28.0924 C   0  0  0  0  0  0
   50.9246  100.6151   28.0837 C   0  0  0  0  0  0
   50.4852   99.9256   26.8166 C   0  0  0  0  0  0
   50.5437   98.5639   26.4507 C   0  0  0  0  0  0
   50.0429   98.3047   25.2631 N   0  0  0  0  0  0
   49.6492   99.4952   24.8106 N   0  0  0  0  0  0
   49.9004  100.5038   25.6926 C   0  0  0  0  0  0
   51.9795  102.8842   31.6473 C   0  0  0  0  0  0
   52.0431  104.1108   31.6141 O   0  0  0  0  0  0
   52.1437  102.1912   32.7888 N   0  0  0  0  0  0
   52.2702  102.7769   34.1241 C   0  0  0  0  0  0
   50.9215  103.1358   34.7519 C   0  0  0  0  0  0
   50.6231  104.4793   35.0170 C   0  0  0  0  0  0
   49.4110  104.8329   35.6111 C   0  0  0  0  0  0
   48.4877  103.8473   35.9535 C   0  0  0  0  0  0
   48.7822  102.5065   35.7075 C   0  0  0  0  0  0
   49.9919  102.1427   35.1143 C   0  0  0  0  0  0
   50.2984  100.4595   34.8417 Cl  0  0  0  0  0  0
   55.6272   96.1650   32.3120 H   0  0  0  0  0  0
   55.6431   96.7594   30.6618 H   0  0  0  0  0  0
   55.6430   97.9063   32.0059 H   0  0  0  0  0  0
   53.6533   96.3683   33.6596 H   0  0  0  0  0  0
   53.5933   98.1179   33.4020 H   0  0  0  0  0  0
   52.1991   97.1037   33.0146 H   0  0  0  0  0  0
   53.8489   97.9049   29.7627 H   0  0  0  0  0  0
   53.5504   98.9569   31.0980 H   0  0  0  0  0  0
   51.1699   98.0943   31.2766 H   0  0  0  0  0  0
   51.5500   96.7734   30.2210 H   0  0  0  0  0  0
   51.9038  100.1776   31.3067 H   0  0  0  0  0  0
   51.2510  103.8231   29.1743 H   0  0  0  0  0  0
   50.6010  102.5693   27.2152 H   0  0  0  0  0  0
   50.9456   97.7614   27.0504 H   0  0  0  0  0  0
   49.2271   99.6148   23.8937 H   0  0  0  0  0  0
   49.6329  101.5216   25.4505 H   0  0  0  0  0  0
   52.0560  101.1883   32.7555 H   0  0  0  0  0  0
   52.9192  103.6555   34.0926 H   0  0  0  0  0  0
   52.7754  102.0627   34.7755 H   0  0  0  0  0  0
   51.3313  105.2547   34.7566 H   0  0  0  0  0  0
   49.1889  105.8724   35.8045 H   0  0  0  0  0  0
   47.5474  104.1169   36.4122 H   0  0  0  0  0  0
   48.0649  101.7477   35.9840 H   0  0  0  0  0  0
  1  2  1  0  0  0
  1 29  1  0  0  0
  1 30  1  0  0  0
  1 31  1  0  0  0
  2  3  1  0  0  0
  2  4  1  0  0  0
  3 32  1  0  0  0
  3 33  1  0  0  0
  3 34  1  0  0  0
  4  5  1  0  0  0
  4 35  1  0  0  0
  4 36  1  0  0  0
  5  6  1  0  0  0
  5 37  1  0  0  0
  5 38  1  0  0  0
  6  7  1  0  0  0
  7  8  2  0  0  0
  7 12  1  0  0  0
  8  9  1  0  0  0
  8 39  1  0  0  0
  9 10  2  0  0  0
  9 18  1  0  0  0
 10 11  1  0  0  0
 10 40  1  0  0  0
 11 12  2  0  0  0
 11 41  1  0  0  0
 12 13  1  0  0  0
 13 14  1  0  0  0
 13 17  2  0  0  0
 14 15  2  0  0  0
 14 42  1  0  0  0
 15 16  1  0  0  0
 16 17  1  0  0  0
 16 43  1  0  0  0
 17 44  1  0  0  0
 18 19  2  0  0  0
 18 20  1  0  0  0
 20 21  1  0  0  0
 20 45  1  0  0  0
 21 22  1  0  0  0
 21 46  1  0  0  0
 21 47  1  0  0  0
 22 23  2  0  0  0
 22 27  1  0  0  0
 23 24  1  0  0  0
 23 48  1  0  0  0
 24 25  2  0  0  0
 24 49  1  0  0  0
 25 26  1  0  0  0
 25 50  1  0  0  0
 26 27  2  0  0  0
 26 51  1  0  0  0
 27 28  1  0  0  0
M  END
> <s_m_entry_id>
28085

> <s_m_entry_name>
dock_pv.246

> <s_m_Source_Path>
/home/csk/Desktop/cluster/DUD-E-result/rock1

> <s_m_Source_File>
dock_pv.maegz

> <i_m_Source_File_Index>
246

> <chembl_id>
CHEMBL3949659

> <chembl_pref_name>
None

> <i_lp_mmshare_version>
53161

> <r_lp_tautomer_probability>
0.5

> <s_lp_Force_Field>
OPLS_2005

> <r_lp_Energy>
25.658703

> <b_lp_Chiralities_Consistent>
1

> <s_lp_Variant>
CHEMBL3231_lig638-1

> <s_i_glide_gridfile>
glide-grid_2etr

> <i_i_glide_lignum>
926

> <i_i_glide_rotatable_bonds>
9

> <r_i_docking_score>
-7.91728566816938

> <r_i_glide_ligand_efficiency>
-0.282760202434621

> <r_i_glide_ligand_efficiency_sa>
-0.858626511444593

> <r_i_glide_ligand_efficiency_ln>
-1.8275419938218

> <r_i_glide_gscore>
-7.91728566816938

> <r_i_glide_lipo>
-3.15848674289766

> <r_i_glide_hbond>
-0.592511445346907

> <r_i_glide_metal>
0

> <r_i_glide_rewards>
-1.59521077342702

> <r_i_glide_evdw>
-46.1933746337891

> <r_i_glide_ecoul>
-5.34390735626221

> <r_i_glide_erotb>
0.603271485710398

> <r_i_glide_esite>
-0.0630933570794124

> <r_i_glide_emodel>
-74.9546186020932

> <r_i_glide_energy>
-51.5372819900513

> <r_i_glide_einternal>
4.18832111358643

> <i_i_glide_confnum>
37

> <i_i_glide_posenum>
204

> <r_i_glide_eff_state_penalty>
0

> <s_user_duplicate_titles>
CHEMBL3231_lig638

> <i_f3d_flags>
0

> <s_m_subgroup_title>
dock_pv

> <s_m_subgroupid>
dock_pv

> <b_m_subgroup_collapsed>
1

$$$$
CHEMBL3231_lig604
                    3D
 Schrodinger Suite 2021-1.
 40 42  0  0  1  0            999 V2000
   51.4768   97.6964   30.4161 C   0  0  0  0  0  0
   51.3055   98.4250   29.2015 O   0  0  0  0  0  0
   51.4493   99.8019   29.1893 C   0  0  0  0  0  0
   51.9170  100.5261   30.3015 C   0  0  0  0  0  0
   51.9734  101.9288   30.2912 C   0  0  0  0  0  0
   51.5851  102.6043   29.1313 C   0  0  0  0  0  0
   51.1433  101.9030   28.0169 C   0  0  0  0  0  0
   51.0725  100.5057   28.0262 C   0  0  0  0  0  0
   50.5609   99.8470   26.7778 C   0  0  0  0  0  0
   50.5946   98.4920   26.3878 C   0  0  0  0  0  0
   50.0438   98.2652   25.2177 N   0  0  0  0  0  0
   49.6544   99.4693   24.8035 N   0  0  0  0  0  0
   49.9397  100.4585   25.6953 C   0  0  0  0  0  0
   52.3660  102.7272   31.5107 C   0  0  0  0  0  0
   52.0141  103.9037   31.6151 O   0  0  0  0  0  0
   53.0616  102.0811   32.4689 N   0  0  0  0  0  0
   53.4010  102.6347   33.7842 C   0  0  0  0  0  0
   52.2090  103.1745   34.5879 C   0  0  0  0  0  0
   52.1399  104.5506   34.8404 C   0  0  0  0  0  0
   51.0772  105.0909   35.5600 C   0  0  0  0  0  0
   50.0717  104.2570   36.0389 C   0  0  0  0  0  0
   50.1260  102.8838   35.8017 C   0  0  0  0  0  0
   48.8442  101.8960   36.4078 Cl  0  0  0  0  0  0
   51.1956  102.3322   35.0794 C   0  0  0  0  0  0
   51.2570  100.6191   34.7923 Cl  0  0  0  0  0  0
   51.2377   96.6460   30.2455 H   0  0  0  0  0  0
   52.5058   97.7444   30.7759 H   0  0  0  0  0  0
   50.8084   98.0598   31.1985 H   0  0  0  0  0  0
   52.1927   99.9951   31.2016 H   0  0  0  0  0  0
   51.6174  103.6867   29.0827 H   0  0  0  0  0  0
   50.8425  102.4677   27.1472 H   0  0  0  0  0  0
   51.0292   97.6792   26.9494 H   0  0  0  0  0  0
   49.2034   99.6105   23.9030 H   0  0  0  0  0  0
   49.6743  101.4848   25.4875 H   0  0  0  0  0  0
   53.4858  101.1939   32.2313 H   0  0  0  0  0  0
   54.1608  103.4079   33.6412 H   0  0  0  0  0  0
   53.8945  101.8576   34.3724 H   0  0  0  0  0  0
   52.9025  105.2179   34.4597 H   0  0  0  0  0  0
   51.0389  106.1548   35.7401 H   0  0  0  0  0  0
   49.2448  104.6759   36.5912 H   0  0  0  0  0  0
  1  2  1  0  0  0
  1 26  1  0  0  0
  1 27  1  0  0  0
  1 28  1  0  0  0
  2  3  1  0  0  0
  3  4  2  0  0  0
  3  8  1  0  0  0
  4  5  1  0  0  0
  4 29  1  0  0  0
  5  6  2  0  0  0
  5 14  1  0  0  0
  6  7  1  0  0  0
  6 30  1  0  0  0
  7  8  2  0  0  0
  7 31  1  0  0  0
  8  9  1  0  0  0
  9 10  1  0  0  0
  9 13  2  0  0  0
 10 11  2  0  0  0
 10 32  1  0  0  0
 11 12  1  0  0  0
 12 13  1  0  0  0
 12 33  1  0  0  0
 13 34  1  0  0  0
 14 15  2  0  0  0
 14 16  1  0  0  0
 16 17  1  0  0  0
 16 35  1  0  0  0
 17 18  1  0  0  0
 17 36  1  0  0  0
 17 37  1  0  0  0
 18 19  2  0  0  0
 18 24  1  0  0  0
 19 20  1  0  0  0
 19 38  1  0  0  0
 20 21  2  0  0  0
 20 39  1  0  0  0
 21 22  1  0  0  0
 21 40  1  0  0  0
 22 23  1  0  0  0
 22 24  2  0  0  0
 24 25  1  0  0  0
M  END
> <s_m_entry_id>
28086

> <s_m_entry_name>
dock_pv.247

> <s_m_Source_Path>
/home/csk/Desktop/cluster/DUD-E-result/rock1

> <s_m_Source_File>
dock_pv.maegz

> <i_m_Source_File_Index>
247

> <chembl_id>
CHEMBL3915532

> <chembl_pref_name>
None

> <i_lp_mmshare_version>
53161

> <r_lp_tautomer_probability>
0.5

> <s_lp_Force_Field>
OPLS_2005

> <r_lp_Energy>
22.019122

> <b_lp_Chiralities_Consistent>
1

> <s_lp_Variant>
CHEMBL3231_lig604-1

> <s_i_glide_gridfile>
glide-grid_2etr

> <i_i_glide_lignum>
890

> <i_i_glide_rotatable_bonds>
6

> <r_i_docking_score>
-7.91702893318265

> <r_i_glide_ligand_efficiency>
-0.316681157327306

> <r_i_glide_ligand_efficiency_sa>
-0.925981320389282

> <r_i_glide_ligand_efficiency_ln>
-1.87657311137618

> <r_i_glide_gscore>
-7.91702893318265

> <r_i_glide_lipo>
-2.75953086824902

> <r_i_glide_hbond>
-0.625060312486128

> <r_i_glide_metal>
0

> <r_i_glide_rewards>
-1.77673112153221

> <r_i_glide_evdw>
-41.6799163818359

> <r_i_glide_ecoul>
-6.67092895507812

> <r_i_glide_erotb>
0.382861366749833

> <r_i_glide_esite>
-0.0539328353116078

> <r_i_glide_emodel>
-69.1161937293713

> <r_i_glide_energy>
-48.3508453369141

> <r_i_glide_einternal>
3.48981165885925

> <i_i_glide_confnum>
5

> <i_i_glide_posenum>
366

> <r_i_glide_eff_state_penalty>
0

> <s_user_duplicate_titles>
CHEMBL3231_lig604

> <i_f3d_flags>
0

> <s_m_subgroup_title>
dock_pv

> <s_m_subgroupid>
dock_pv

> <b_m_subgroup_collapsed>
1

$$$$
CHEMBL3231_lig691
                    3D
 Schrodinger Suite 2021-1.
 48 51  0  0  1  0            999 V2000
   48.9188  104.8976   37.2125 C   0  0  0  0  0  0
   50.0667  104.8554   36.3779 O   0  0  0  0  0  0
   50.5053  103.6364   35.9065 C   0  0  0  0  0  0
   49.8518  102.4131   36.1273 C   0  0  0  0  0  0
   50.3791  101.2322   35.6107 C   0  0  0  0  0  0
   51.5565  101.2591   34.8675 C   0  0  0  0  0  0
   52.2130  102.4708   34.6251 C   0  0  0  0  0  0
   51.6771  103.6506   35.1509 C   0  0  0  0  0  0
   53.4408  102.4843   33.7088 C   0  0  0  0  0  0
   54.4428  103.6323   33.7871 C   0  0  0  0  0  0
   54.8387  102.2574   34.2468 C   0  0  0  0  0  0
   53.1700  102.0202   32.3516 N   0  0  0  0  0  0
   52.3048  102.6106   31.5069 C   0  0  0  0  0  0
   51.7734  103.7035   31.7236 O   0  0  0  0  0  0
   51.9387  101.8255   30.2781 C   0  0  0  0  0  0
   51.5652  102.5028   29.1190 C   0  0  0  0  0  0
   51.1295  101.7980   28.0070 C   0  0  0  0  0  0
   51.0472  100.4014   28.0199 C   0  0  0  0  0  0
   51.4090   99.6983   29.1868 C   0  0  0  0  0  0
   51.2504   98.3218   29.2058 O   0  0  0  0  0  0
   51.4665   97.5915   30.4107 C   0  0  0  0  0  0
   51.8728  100.4242   30.2969 C   0  0  0  0  0  0
   50.5426   99.7444   26.7713 C   0  0  0  0  0  0
   50.5862   98.3920   26.3829 C   0  0  0  0  0  0
   50.0430   98.1614   25.2117 N   0  0  0  0  0  0
   49.6433   99.3611   24.7982 N   0  0  0  0  0  0
   49.9147  100.3530   25.6909 C   0  0  0  0  0  0
   48.8386  105.9064   37.6113 H   0  0  0  0  0  0
   48.0069  104.6680   36.6570 H   0  0  0  0  0  0
   49.0026  104.2174   38.0629 H   0  0  0  0  0  0
   48.9353  102.3576   36.6947 H   0  0  0  0  0  0
   49.8683  100.2981   35.7841 H   0  0  0  0  0  0
   51.9469  100.3401   34.4552 H   0  0  0  0  0  0
   52.1471  104.6012   34.9493 H   0  0  0  0  0  0
   54.8576  104.0245   32.8560 H   0  0  0  0  0  0
   54.3261  104.4155   34.5347 H   0  0  0  0  0  0
   54.9551  102.0658   35.3138 H   0  0  0  0  0  0
   55.5434  101.6782   33.6492 H   0  0  0  0  0  0
   53.7289  101.2529   32.0104 H   0  0  0  0  0  0
   51.5985  103.5824   29.0739 H   0  0  0  0  0  0
   50.8431  102.3586   27.1303 H   0  0  0  0  0  0
   51.2420   96.5387   30.2397 H   0  0  0  0  0  0
   52.5034   97.6564   30.7431 H   0  0  0  0  0  0
   50.8096   97.9371   31.2094 H   0  0  0  0  0  0
   52.1370   99.9033   31.2055 H   0  0  0  0  0  0
   51.0171   97.5805   26.9499 H   0  0  0  0  0  0
   49.1992   99.5034   23.8957 H   0  0  0  0  0  0
   49.6424  101.3761   25.4767 H   0  0  0  0  0  0
  1  2  1  0  0  0
  1 28  1  0  0  0
  1 29  1  0  0  0
  1 30  1  0  0  0
  2  3  1  0  0  0
  3  4  2  0  0  0
  3  8  1  0  0  0
  4  5  1  0  0  0
  4 31  1  0  0  0
  5  6  2  0  0  0
  5 32  1  0  0  0
  6  7  1  0  0  0
  6 33  1  0  0  0
  7  8  2  0  0  0
  7  9  1  0  0  0
  8 34  1  0  0  0
  9 10  1  0  0  0
  9 11  1  0  0  0
  9 12  1  0  0  0
 10 11  1  0  0  0
 10 35  1  0  0  0
 10 36  1  0  0  0
 11 37  1  0  0  0
 11 38  1  0  0  0
 12 13  1  0  0  0
 12 39  1  0  0  0
 13 14  2  0  0  0
 13 15  1  0  0  0
 15 16  2  0  0  0
 15 22  1  0  0  0
 16 17  1  0  0  0
 16 40  1  0  0  0
 17 18  2  0  0  0
 17 41  1  0  0  0
 18 19  1  0  0  0
 18 23  1  0  0  0
 19 20  1  0  0  0
 19 22  2  0  0  0
 20 21  1  0  0  0
 21 42  1  0  0  0
 21 43  1  0  0  0
 21 44  1  0  0  0
 22 45  1  0  0  0
 23 24  1  0  0  0
 23 27  2  0  0  0
 24 25  2  0  0  0
 24 46  1  0  0  0
 25 26  1  0  0  0
 26 27  1  0  0  0
 26 47  1  0  0  0
 27 48  1  0  0  0
M  END
> <s_m_entry_id>
28087

> <s_m_entry_name>
dock_pv.248

> <s_m_Source_Path>
/home/csk/Desktop/cluster/DUD-E-result/rock1

> <s_m_Source_File>
dock_pv.maegz

> <i_m_Source_File_Index>
248

> <chembl_id>
CHEMBL3978630

> <chembl_pref_name>
None

> <i_lp_mmshare_version>
53161

> <r_lp_tautomer_probability>
0.5

> <s_lp_Force_Field>
OPLS_2005

> <r_lp_Energy>
40.487548

> <b_lp_Chiralities_Consistent>
1

> <s_lp_Variant>
CHEMBL3231_lig691-1

> <s_i_glide_gridfile>
glide-grid_2etr

> <i_i_glide_lignum>
985

> <i_i_glide_rotatable_bonds>
7

> <r_i_docking_score>
-7.91479561552594

> <r_i_glide_ligand_efficiency>
-0.293140578352813

> <r_i_glide_ligand_efficiency_sa>
-0.879421734092295

> <r_i_glide_ligand_efficiency_ln>
-1.84243393369071

> <r_i_glide_gscore>
-7.91479561552594

> <r_i_glide_lipo>
-2.63688049531136

> <r_i_glide_hbond>
-0.708631615889027

> <r_i_glide_metal>
0

> <r_i_glide_rewards>
-1.86991642045768

> <r_i_glide_evdw>
-43.6925468444824

> <r_i_glide_ecoul>
-6.4723858833313

> <r_i_glide_erotb>
0.509181256166854

> <r_i_glide_esite>
-0.0530631153109081

> <r_i_glide_emodel>
-70.2894070047417

> <r_i_glide_energy>
-50.1649327278137

> <r_i_glide_einternal>
8.36243629455566

> <i_i_glide_confnum>
137

> <i_i_glide_posenum>
368

> <r_i_glide_eff_state_penalty>
0

> <s_user_duplicate_titles>
CHEMBL3231_lig691

> <i_f3d_flags>
0

> <s_m_subgroup_title>
dock_pv

> <s_m_subgroupid>
dock_pv

> <b_m_subgroup_collapsed>
1

$$$$
CHEMBL3231_lig508
                    3D
 Schrodinger Suite 2021-1.
 36 38  0  0  1  0            999 V2000
   51.9015  100.8077   29.5042 C   0  0  0  0  0  0
   51.9791   99.4225   29.6447 C   0  0  0  0  0  0
   51.5157   98.5733   28.6439 C   0  0  0  0  0  0
   51.3865  101.3619   28.3235 C   0  0  0  0  0  0
   50.9391  100.5224   27.2728 C   0  0  0  0  0  0
   50.9962   99.1069   27.4440 C   0  0  0  0  0  0
   50.5258   98.3050   26.3775 C   0  0  0  0  0  0
   50.0431   98.7932   25.2111 N   0  0  0  0  0  0
   50.0163  100.1402   25.0637 C   0  0  0  0  0  0
   50.4394  101.0358   26.0478 C   0  0  0  0  0  0
   52.3850  101.5740   30.5768 N   0  0  0  0  0  0
   52.0269  102.8202   30.9563 C   0  0  0  0  0  0
   52.6794  103.3955   32.2532 C   0  0  1  0  0  0
   51.1676  103.5030   30.3942 O   0  0  0  0  0  0
   51.6924  103.5016   33.4012 C   0  0  0  0  0  0
   53.9414  102.6837   32.5622 N   0  0  0  0  0  0
   51.6494  104.6725   34.1680 C   0  0  0  0  0  0
   50.7527  104.7926   35.2271 C   0  0  0  0  0  0
   49.9037  103.7331   35.5375 C   0  0  0  0  0  0
   49.9486  102.5528   34.8007 C   0  0  0  0  0  0
   50.8431  102.4360   33.7391 C   0  0  0  0  0  0
   52.3843   98.9885   30.5484 H   0  0  0  0  0  0
   51.5602   97.5030   28.7749 H   0  0  0  0  0  0
   51.3445  102.4307   28.1794 H   0  0  0  0  0  0
   50.5505   97.2287   26.4699 H   0  0  0  0  0  0
   49.6361  100.5059   24.1199 H   0  0  0  0  0  0
   50.3872  102.1032   25.8900 H   0  0  0  0  0  0
   53.0412  101.1232   31.2007 H   0  0  0  0  0  0
   52.9614  104.4115   31.9654 H   0  0  0  0  0  0
   54.6495  102.8822   31.8639 H   0  0  0  0  0  0
   54.3290  103.0090   33.4375 H   0  0  0  0  0  0
   52.3139  105.4954   33.9448 H   0  0  0  0  0  0
   50.7249  105.7016   35.8100 H   0  0  0  0  0  0
   49.2120  103.8222   36.3624 H   0  0  0  0  0  0
   49.2968  101.7294   35.0546 H   0  0  0  0  0  0
   50.8759  101.5112   33.1817 H   0  0  0  0  0  0
  1  2  2  0  0  0
  1  4  1  0  0  0
  1 11  1  0  0  0
  2  3  1  0  0  0
  2 22  1  0  0  0
  3  6  2  0  0  0
  3 23  1  0  0  0
  4  5  2  0  0  0
  4 24  1  0  0  0
  5  6  1  0  0  0
  5 10  1  0  0  0
  6  7  1  0  0  0
  7  8  2  0  0  0
  7 25  1  0  0  0
  8  9  1  0  0  0
  9 10  2  0  0  0
  9 26  1  0  0  0
 10 27  1  0  0  0
 11 12  1  0  0  0
 11 28  1  0  0  0
 12 13  1  0  0  0
 12 14  2  0  0  0
 13 15  1  0  0  0
 13 16  1  0  0  0
 13 29  1  0  0  0
 15 17  2  0  0  0
 15 21  1  0  0  0
 16 30  1  0  0  0
 16 31  1  0  0  0
 17 18  1  0  0  0
 17 32  1  0  0  0
 18 19  2  0  0  0
 18 33  1  0  0  0
 19 20  1  0  0  0
 19 34  1  0  0  0
 20 21  2  0  0  0
 20 35  1  0  0  0
 21 36  1  0  0  0
M  END
> <s_m_entry_id>
28088

> <s_m_entry_name>
dock_pv.249

> <s_m_Source_Path>
/home/csk/Desktop/cluster/DUD-E-result/rock1

> <s_m_Source_File>
dock_pv.maegz

> <i_m_Source_File_Index>
249

> <chembl_id>
CHEMBL3770730

> <chembl_pref_name>
None

> <i_lp_mmshare_version>
53161

> <r_lp_tautomer_probability>
1

> <s_lp_Force_Field>
OPLS_2005

> <r_lp_Energy>
21.444984

> <b_lp_Chiralities_Consistent>
1

> <s_lp_Variant>
CHEMBL3231_lig508-2

> <s_i_glide_gridfile>
glide-grid_2etr

> <i_i_glide_lignum>
720

> <i_i_glide_rotatable_bonds>
4

> <r_i_docking_score>
-7.91355483732801

> <r_i_glide_ligand_efficiency>
-0.376835944634667

> <r_i_glide_ligand_efficiency_sa>
-1.03966179712691

> <r_i_glide_ligand_efficiency_ln>
-1.95661044268613

> <r_i_glide_gscore>
-7.91355483732801

> <r_i_glide_lipo>
-2.5586107494847

> <r_i_glide_hbond>
-0.16

> <r_i_glide_metal>
0

> <r_i_glide_rewards>
-2.84832565615629

> <r_i_glide_evdw>
-36.5318031311035

> <r_i_glide_ecoul>
-6.17008399963379

> <r_i_glide_erotb>
0.46827794542766

> <r_i_glide_esite>
-0.0627936206144333

> <r_i_glide_emodel>
-62.5430534768972

> <r_i_glide_energy>
-42.7018871307373

> <r_i_glide_einternal>
5.42006969451904

> <i_i_glide_confnum>
2

> <i_i_glide_posenum>
177

> <r_i_glide_eff_state_penalty>
0

> <s_user_duplicate_titles>
CHEMBL3231_lig508

> <i_f3d_flags>
0

> <s_m_subgroup_title>
dock_pv

> <s_m_subgroupid>
dock_pv

> <b_m_subgroup_collapsed>
1

$$$$
CHEMBL3231_lig948 
                    3D
 Schrodinger Suite 2021-1.
 58 61  0  0  1  0            999 V2000
   50.0919   99.6540   25.1003 C   0  0  0  0  0  0
   50.0429   98.3031   25.1986 N   0  0  0  0  0  0
   50.4278   97.7345   26.3662 C   0  0  0  0  0  0
   50.8577   98.4796   27.4603 C   0  0  0  0  0  0
   50.9243   99.8779   27.3561 C   0  0  0  0  0  0
   50.5322  100.4663   26.1417 C   0  0  0  0  0  0
   51.4117  100.7105   28.4894 C   0  0  0  0  0  0
   50.8601  101.9717   28.7401 C   0  0  0  0  0  0
   51.3450  102.7611   29.7763 C   0  0  0  0  0  0
   52.3898  102.3044   30.5865 C   0  0  0  0  0  0
   52.9309  101.0346   30.3515 C   0  0  0  0  0  0
   52.4429  100.2496   29.3147 C   0  0  0  0  0  0
   52.9105  103.1803   31.6950 C   0  0  0  0  0  0
   54.2315  103.0925   31.9286 N   0  0  0  0  0  0
   52.1516  103.9460   32.2901 O   0  0  0  0  0  0
   55.0022  103.9032   32.8681 C   0  0  0  0  0  0
   54.6915  103.6966   34.3390 C   0  0  0  0  0  0
   55.3413  102.7105   35.0842 C   0  0  0  0  0  0
   55.0953  102.5953   36.4514 C   0  0  0  0  0  0
   54.2042  103.4707   37.0759 C   0  0  0  0  0  0
   53.5557  104.4693   36.3454 C   0  0  0  0  0  0
   53.8266  104.5856   34.9766 C   0  0  0  0  0  0
   52.6757  105.2774   37.0345 O   0  0  0  0  0  0
   51.8143  106.1681   36.3148 C   0  0  0  0  0  0
   50.5002  106.3211   37.1064 C   0  0  0  0  0  0
   49.5189  105.2280   36.9705 N   0  0  0  0  0  0
   48.6286  105.4107   35.8137 C   0  0  0  0  0  0
   47.5987  104.2634   35.7064 C   0  0  0  0  0  0
   48.2693  103.0112   35.6480 O   0  0  0  0  0  0
   49.0558  102.7682   36.8122 C   0  0  0  0  0  0
   50.1077  103.8760   36.9996 C   0  0  0  0  0  0
   49.7822  100.0792   24.1575 H   0  0  0  0  0  0
   50.3819   96.6563   26.4123 H   0  0  0  0  0  0
   51.1418   97.9729   28.3724 H   0  0  0  0  0  0
   50.5746  101.5368   26.0020 H   0  0  0  0  0  0
   50.0562  102.3506   28.1255 H   0  0  0  0  0  0
   50.9171  103.7402   29.9298 H   0  0  0  0  0  0
   53.7351  100.6449   30.9615 H   0  0  0  0  0  0
   52.8927   99.2827   29.1453 H   0  0  0  0  0  0
   54.7730  102.4727   31.3391 H   0  0  0  0  0  0
   56.0603  103.7191   32.6941 H   0  0  0  0  0  0
   54.8394  104.9601   32.6558 H   0  0  0  0  0  0
   56.0403  102.0354   34.6075 H   0  0  0  0  0  0
   55.5940  101.8285   37.0245 H   0  0  0  0  0  0
   54.0135  103.3725   38.1338 H   0  0  0  0  0  0
   53.3726  105.3653   34.3822 H   0  0  0  0  0  0
   52.3171  107.1316   36.2172 H   0  0  0  0  0  0
   51.5647  105.8321   35.3064 H   0  0  0  0  0  0
   50.7393  106.4292   38.1645 H   0  0  0  0  0  0
   50.0438  107.2661   36.8103 H   0  0  0  0  0  0
   48.1108  106.3663   35.9076 H   0  0  0  0  0  0
   49.2197  105.4745   34.8980 H   0  0  0  0  0  0
   46.9930  104.3744   34.8100 H   0  0  0  0  0  0
   46.9021  104.2907   36.5455 H   0  0  0  0  0  0
   49.5462  101.8012   36.7054 H   0  0  0  0  0  0
   48.4415  102.7028   37.7072 H   0  0  0  0  0  0
   50.8495  103.7652   36.2079 H   0  0  0  0  0  0
   50.6457  103.7416   37.9379 H   0  0  0  0  0  0
  1  2  2  0  0  0
  1  6  1  0  0  0
  1 32  1  0  0  0
  2  3  1  0  0  0
  3  4  2  0  0  0
  3 33  1  0  0  0
  4  5  1  0  0  0
  4 34  1  0  0  0
  5  6  2  0  0  0
  5  7  1  0  0  0
  6 35  1  0  0  0
  7  8  2  0  0  0
  7 12  1  0  0  0
  8  9  1  0  0  0
  8 36  1  0  0  0
  9 10  2  0  0  0
  9 37  1  0  0  0
 10 11  1  0  0  0
 10 13  1  0  0  0
 11 12  2  0  0  0
 11 38  1  0  0  0
 12 39  1  0  0  0
 13 14  1  0  0  0
 13 15  2  0  0  0
 14 16  1  0  0  0
 14 40  1  0  0  0
 16 17  1  0  0  0
 16 41  1  0  0  0
 16 42  1  0  0  0
 17 18  2  0  0  0
 17 22  1  0  0  0
 18 19  1  0  0  0
 18 43  1  0  0  0
 19 20  2  0  0  0
 19 44  1  0  0  0
 20 21  1  0  0  0
 20 45  1  0  0  0
 21 22  2  0  0  0
 21 23  1  0  0  0
 22 46  1  0  0  0
 23 24  1  0  0  0
 24 25  1  0  0  0
 24 47  1  0  0  0
 24 48  1  0  0  0
 25 26  1  0  0  0
 25 49  1  0  0  0
 25 50  1  0  0  0
 26 27  1  0  0  0
 26 31  1  0  0  0
 27 28  1  0  0  0
 27 51  1  0  0  0
 27 52  1  0  0  0
 28 29  1  0  0  0
 28 53  1  0  0  0
 28 54  1  0  0  0
 29 30  1  0  0  0
 30 31  1  0  0  0
 30 55  1  0  0  0
 30 56  1  0  0  0
 31 57  1  0  0  0
 31 58  1  0  0  0
M  END
> <s_m_entry_id>
28089

> <s_m_entry_name>
dock_pv.250

> <s_m_Source_Path>
/home/csk/Desktop/cluster/DUD-E-result/rock1

> <s_m_Source_File>
dock_pv.maegz

> <i_m_Source_File_Index>
250

> <chembl_id>
CHEMBL4570150

> <chembl_pref_name>
None

> <i_lp_mmshare_version>
53161

> <r_lp_tautomer_probability>
1

> <s_lp_Force_Field>
OPLS_2005

> <r_lp_Energy>
37.127285

> <b_lp_Chiralities_Consistent>
1

> <s_lp_Variant>
CHEMBL3231_lig948 -1

> <s_i_glide_gridfile>
glide-grid_2etr

> <i_i_glide_lignum>
1362

> <i_i_glide_rotatable_bonds>
9

> <r_i_docking_score>
-7.91262302737462

> <r_i_glide_ligand_efficiency>
-0.255245904108859

> <r_i_glide_ligand_efficiency_sa>
-0.801824543851899

> <r_i_glide_ligand_efficiency_ln>
-1.78453898544648

> <r_i_glide_gscore>
-7.91262302737462

> <r_i_glide_lipo>
-3.10494883301184

> <r_i_glide_hbond>
-0.24412583677351

> <r_i_glide_metal>
0

> <r_i_glide_rewards>
-1.9437153221406

> <r_i_glide_evdw>
-49.4696884155273

> <r_i_glide_ecoul>
-6.49447202682495

> <r_i_glide_erotb>
0.907170458263449

> <r_i_glide_esite>
-0.0793482689120062

> <r_i_glide_emodel>
-76.2689432075013

> <r_i_glide_energy>
-55.9641604423523

> <r_i_glide_einternal>
16.0436992645264

> <i_i_glide_confnum>
6

> <i_i_glide_posenum>
213

> <r_i_glide_eff_state_penalty>
0

> <s_user_duplicate_titles>
CHEMBL3231_lig948 

> <i_f3d_flags>
0

> <s_m_subgroup_title>
dock_pv

> <s_m_subgroupid>
dock_pv

> <b_m_subgroup_collapsed>
1

$$$$
CHEMBL3231_lig2121
                    3D
 Schrodinger Suite 2021-1.
 46 49  0  0  1  0            999 V2000
   55.9591   94.2504   31.9791 O   0  0  0  0  0  0
   55.4561   95.1033   33.0577 S   0  0  0  0  0  0
   54.3582   94.6373   33.9091 O   0  0  0  0  0  0
   54.9881   96.6474   32.3040 N   0  0  0  0  0  0
   50.8430   97.5021   27.4695 C   0  0  0  0  0  0
   50.4413   97.1031   26.1932 C   0  0  0  0  0  0
   50.0436   97.9522   25.2130 N   0  0  0  0  0  0
   50.9296   98.8333   27.7957 C   0  0  0  0  0  0
   50.5243   99.7437   26.8235 C   0  0  0  0  0  0
   50.0720   99.2346   25.5706 C   0  0  0  0  0  0
   49.6286  100.3012   24.8366 N   0  0  0  0  0  0
   49.7752  101.4249   25.6109 C   0  0  0  0  0  0
   50.4462  101.1573   26.7826 C   0  0  0  0  0  0
   50.9212  102.0273   27.8233 C   0  0  0  0  0  0
   51.9602  101.6434   28.5460 N   0  0  0  0  0  0
   52.2444  102.4748   29.5042 C   0  0  0  0  0  0
   51.2447  103.8930   29.5387 S   0  0  0  0  0  0
   50.4272  103.2851   28.1443 C   0  0  0  0  0  0
   53.2991  102.2412   30.3673 N   0  0  0  0  0  0
   53.1590  102.0806   31.7001 C   0  0  0  0  0  0
   54.3999  101.5704   32.4516 C   0  0  0  0  0  0
   52.1138  102.2931   32.3204 O   0  0  0  0  0  0
   54.1829  100.1851   33.0649 C   0  0  0  0  0  0
   54.7029   99.0348   32.4514 C   0  0  0  0  0  0
   54.4702   97.7611   32.9882 C   0  0  0  0  0  0
   53.7135   97.6523   34.1622 C   0  0  0  0  0  0
   53.2062   98.7907   34.7877 C   0  0  0  0  0  0
   53.4333  100.0508   34.2376 C   0  0  0  0  0  0
   56.9075   95.6124   34.1296 C   0  0  0  0  0  0
   55.4929   96.8472   31.4517 H   0  0  0  0  0  0
   51.1356   96.7667   28.2020 H   0  0  0  0  0  0
   50.4433   96.0555   25.9406 H   0  0  0  0  0  0
   51.2639   99.1461   28.7738 H   0  0  0  0  0  0
   49.2029  100.3008   23.9144 H   0  0  0  0  0  0
   49.3762  102.3460   25.2372 H   0  0  0  0  0  0
   49.6434  103.8480   27.6668 H   0  0  0  0  0  0
   54.1800  101.9633   29.9533 H   0  0  0  0  0  0
   54.6637  102.2871   33.2294 H   0  0  0  0  0  0
   55.2447  101.5272   31.7708 H   0  0  0  0  0  0
   55.2941   99.1302   31.5502 H   0  0  0  0  0  0
   53.5003   96.6951   34.6106 H   0  0  0  0  0  0
   52.6274   98.6950   35.6946 H   0  0  0  0  0  0
   53.0232  100.9258   34.7203 H   0  0  0  0  0  0
   57.3167   94.7140   34.5927 H   0  0  0  0  0  0
   56.5592   96.3117   34.8881 H   0  0  0  0  0  0
   57.6556   96.0850   33.4928 H   0  0  0  0  0  0
  1  2  2  0  0  0
  2  3  2  0  0  0
  2  4  1  0  0  0
  2 29  1  0  0  0
  4 25  1  0  0  0
  4 30  1  0  0  0
  5  6  2  0  0  0
  5  8  1  0  0  0
  5 31  1  0  0  0
  6  7  1  0  0  0
  6 32  1  0  0  0
  7 10  2  0  0  0
  8  9  2  0  0  0
  8 33  1  0  0  0
  9 10  1  0  0  0
  9 13  1  0  0  0
 10 11  1  0  0  0
 11 12  1  0  0  0
 11 34  1  0  0  0
 12 13  2  0  0  0
 12 35  1  0  0  0
 13 14  1  0  0  0
 14 15  1  0  0  0
 14 18  2  0  0  0
 15 16  2  0  0  0
 16 17  1  0  0  0
 16 19  1  0  0  0
 17 18  1  0  0  0
 18 36  1  0  0  0
 19 20  1  0  0  0
 19 37  1  0  0  0
 20 21  1  0  0  0
 20 22  2  0  0  0
 21 23  1  0  0  0
 21 38  1  0  0  0
 21 39  1  0  0  0
 23 24  2  0  0  0
 23 28  1  0  0  0
 24 25  1  0  0  0
 24 40  1  0  0  0
 25 26  2  0  0  0
 26 27  1  0  0  0
 26 41  1  0  0  0
 27 28  2  0  0  0
 27 42  1  0  0  0
 28 43  1  0  0  0
 29 44  1  0  0  0
 29 45  1  0  0  0
 29 46  1  0  0  0
M  END
> <s_m_entry_id>
28090

> <s_m_entry_name>
dock_pv.251

> <s_m_Source_Path>
/home/csk/Desktop/cluster/DUD-E-result/rock1

> <s_m_Source_File>
dock_pv.maegz

> <i_m_Source_File_Index>
251

> <chembl_id>
CHEMBL4249925

> <chembl_pref_name>
None

> <i_lp_mmshare_version>
53161

> <r_lp_tautomer_probability>
0.998998924059464

> <s_lp_Force_Field>
OPLS_2005

> <r_lp_Energy>
4.381406

> <b_lp_Chiralities_Consistent>
1

> <s_lp_Variant>
CHEMBL3231_lig2121-1

> <s_i_glide_gridfile>
glide-grid_2etr

> <i_i_glide_lignum>
3049

> <i_i_glide_rotatable_bonds>
7

> <r_i_docking_score>
-7.91044092480704

> <r_i_glide_ligand_efficiency>
-0.272773824993346

> <r_i_glide_ligand_efficiency_sa>
-0.838047611193092

> <r_i_glide_ligand_efficiency_ln>
-1.81129038030646

> <r_i_glide_gscore>
-7.91044092480704

> <r_i_glide_lipo>
-2.02412743626264

> <r_i_glide_hbond>
-0.608

> <r_i_glide_metal>
0

> <r_i_glide_rewards>
-2.41454585280743

> <r_i_glide_evdw>
-33.536693572998

> <r_i_glide_ecoul>
-10.2182188034058

> <r_i_glide_erotb>
0.456302817217766

> <r_i_glide_esite>
-0.110502953793968

> <r_i_glide_emodel>
-66.6630208686176

> <r_i_glide_energy>
-43.7549123764038

> <r_i_glide_einternal>
5.55758953094482

> <i_i_glide_confnum>
15

> <i_i_glide_posenum>
19

> <r_i_glide_eff_state_penalty>
0

> <s_user_duplicate_titles>
CHEMBL3231_lig2121

> <i_f3d_flags>
0

> <s_m_subgroup_title>
dock_pv

> <s_m_subgroupid>
dock_pv

> <b_m_subgroup_collapsed>
1

$$$$
CHEMBL3231_lig859
                    3D
 Schrodinger Suite 2021-1.
 51 53  0  0  1  0            999 V2000
   56.4215   94.3564   31.1764 C   0  0  0  0  0  0
   55.4654   93.9032   32.1288 O   0  0  0  0  0  0
   54.8965   94.8165   32.9941 C   0  0  0  0  0  0
   54.0508   94.3031   33.9770 C   0  0  0  0  0  0
   53.4714   95.1411   34.9271 C   0  0  0  0  0  0
   53.6879   96.5172   34.8708 C   0  0  0  0  0  0
   54.4932   97.0613   33.8659 C   0  0  0  0  0  0
   55.1088   96.2039   32.9446 C   0  0  0  0  0  0
   54.6687   98.5778   33.7489 C   0  0  1  0  0  0
   56.1317   99.0188   33.9272 C   0  0  0  0  0  0
   54.0956   99.0642   32.4891 N   0  0  0  0  0  0
   52.7919   99.3427   32.3137 C   0  0  0  0  0  0
   51.9927   99.5017   33.2362 O   0  0  0  0  0  0
   52.3273   99.3996   30.8876 C   0  0  0  0  0  0
   51.7120   98.2743   30.3340 C   0  0  0  0  0  0
   51.2426   98.3028   29.0229 C   0  0  0  0  0  0
   51.3700   99.4537   28.2407 C   0  0  0  0  0  0
   51.9882  100.5782   28.7990 C   0  0  0  0  0  0
   52.4639  100.5681   30.1230 C   0  0  0  0  0  0
   53.0649  101.6533   30.7284 O   0  0  0  0  0  0
   53.1839  102.8886   30.0397 C   0  0  0  0  0  0
   53.6629  103.9451   31.0392 C   0  0  0  0  0  0
   52.6390  104.3031   31.9549 O   0  0  0  0  0  0
   50.8376   99.4736   26.8424 C   0  0  0  0  0  0
   50.5121   98.3782   26.0193 C   0  0  0  0  0  0
   50.0430   98.7223   24.8434 N   0  0  0  0  0  0
   50.0490  100.0537   24.8603 N   0  0  0  0  0  0
   50.5241  100.5654   26.0387 C   0  0  0  0  0  0
   56.8430   93.5040   30.6439 H   0  0  0  0  0  0
   55.9699   95.0214   30.4382 H   0  0  0  0  0  0
   57.2430   94.8780   31.6645 H   0  0  0  0  0  0
   53.8557   93.2419   34.0108 H   0  0  0  0  0  0
   52.8432   94.7185   35.6957 H   0  0  0  0  0  0
   53.2113   97.1580   35.5980 H   0  0  0  0  0  0
   55.7422   96.6350   32.1816 H   0  0  0  0  0  0
   54.1321   99.0526   34.5750 H   0  0  0  0  0  0
   56.4983   98.7642   34.9227 H   0  0  0  0  0  0
   56.8021   98.5471   33.2110 H   0  0  0  0  0  0
   56.2368  100.0977   33.8122 H   0  0  0  0  0  0
   54.6983   99.0396   31.6786 H   0  0  0  0  0  0
   51.5915   97.3696   30.9167 H   0  0  0  0  0  0
   50.7704   97.4183   28.6253 H   0  0  0  0  0  0
   52.0959  101.4615   28.1889 H   0  0  0  0  0  0
   53.9187  102.7802   29.2405 H   0  0  0  0  0  0
   52.2433  103.2099   29.5884 H   0  0  0  0  0  0
   54.5090  103.5622   31.6122 H   0  0  0  0  0  0
   54.0427  104.8094   30.4979 H   0  0  0  0  0  0
   52.8458  105.1809   32.3105 H   0  0  0  0  0  0
   50.6219   97.3365   26.2862 H   0  0  0  0  0  0
   49.7174  100.5984   24.0750 H   0  0  0  0  0  0
   50.5833  101.6313   26.2009 H   0  0  0  0  0  0
  1  2  1  0  0  0
  1 29  1  0  0  0
  1 30  1  0  0  0
  1 31  1  0  0  0
  2  3  1  0  0  0
  3  4  2  0  0  0
  3  8  1  0  0  0
  4  5  1  0  0  0
  4 32  1  0  0  0
  5  6  2  0  0  0
  5 33  1  0  0  0
  6  7  1  0  0  0
  6 34  1  0  0  0
  7  8  2  0  0  0
  7  9  1  0  0  0
  8 35  1  0  0  0
  9 10  1  0  0  0
  9 11  1  0  0  0
  9 36  1  0  0  0
 10 37  1  0  0  0
 10 38  1  0  0  0
 10 39  1  0  0  0
 11 12  1  0  0  0
 11 40  1  0  0  0
 12 13  2  0  0  0
 12 14  1  0  0  0
 14 15  2  0  0  0
 14 19  1  0  0  0
 15 16  1  0  0  0
 15 41  1  0  0  0
 16 17  2  0  0  0
 16 42  1  0  0  0
 17 18  1  0  0  0
 17 24  1  0  0  0
 18 19  2  0  0  0
 18 43  1  0  0  0
 19 20  1  0  0  0
 20 21  1  0  0  0
 21 22  1  0  0  0
 21 44  1  0  0  0
 21 45  1  0  0  0
 22 23  1  0  0  0
 22 46  1  0  0  0
 22 47  1  0  0  0
 23 48  1  0  0  0
 24 25  1  0  0  0
 24 28  2  0  0  0
 25 26  2  0  0  0
 25 49  1  0  0  0
 26 27  1  0  0  0
 27 28  1  0  0  0
 27 50  1  0  0  0
 28 51  1  0  0  0
M  END
> <s_m_entry_id>
28091

> <s_m_entry_name>
dock_pv.252

> <s_m_Source_Path>
/home/csk/Desktop/cluster/DUD-E-result/rock1

> <s_m_Source_File>
dock_pv.maegz

> <i_m_Source_File_Index>
252

> <chembl_id>
CHEMBL4114112

> <chembl_pref_name>
None

> <i_lp_mmshare_version>
53161

> <r_lp_tautomer_probability>
0.5

> <s_lp_Force_Field>
OPLS_2005

> <r_lp_Energy>
23.471486

> <b_lp_Chiralities_Consistent>
1

> <s_lp_Variant>
CHEMBL3231_lig859-1

> <s_i_glide_gridfile>
glide-grid_2etr

> <i_i_glide_lignum>
1212

> <i_i_glide_rotatable_bonds>
10

> <r_i_docking_score>
-7.90811550315529

> <r_i_glide_ligand_efficiency>
-0.282432696541261

> <r_i_glide_ligand_efficiency_sa>
-0.857632010661695

> <r_i_glide_ligand_efficiency_ln>
-1.8254252504888

> <r_i_glide_gscore>
-7.90811550315529

> <r_i_glide_lipo>
-2.54560725498694

> <r_i_glide_hbond>
-0.422165168083797

> <r_i_glide_metal>
0

> <r_i_glide_rewards>
-1.71997623576331

> <r_i_glide_evdw>
-47.3950843811035

> <r_i_glide_ecoul>
-10.390528678894

> <r_i_glide_erotb>
0.747164581689916

> <r_i_glide_esite>
-0.0391979051218804

> <r_i_glide_emodel>
-81.9645944379444

> <r_i_glide_energy>
-57.7856130599976

> <r_i_glide_einternal>
9.23357772827148

> <i_i_glide_confnum>
67

> <i_i_glide_posenum>
131

> <r_i_glide_eff_state_penalty>
0

> <s_user_duplicate_titles>
CHEMBL3231_lig859

> <i_f3d_flags>
0

> <s_m_subgroup_title>
dock_pv

> <s_m_subgroupid>
dock_pv

> <b_m_subgroup_collapsed>
1

$$$$
CHEMBL3231_lig512
                    3D
 Schrodinger Suite 2021-1.
 46 49  0  0  1  0            999 V2000
   53.6936  101.0159   33.5243 C   0  0  2  0  0  0
   53.3971  101.4966   32.0703 C   0  0  0  0  0  0
   54.0025  102.6417   31.6329 C   0  0  0  0  0  0
   54.8423  103.3576   32.4236 N   0  0  0  0  0  0
   55.1215  103.1211   33.7213 C   0  0  0  0  0  0
   54.6473  101.9418   34.1945 N   0  0  0  0  0  0
   55.6400  103.9623   34.4509 O   0  0  0  0  0  0
   53.7947  103.3635   30.2986 C   0  0  0  0  0  0
   52.4640  100.6731   31.2905 C   0  0  0  0  0  0
   52.5904  100.7703   29.9508 N   0  0  0  0  0  0
   51.6436   99.9288   31.8329 O   0  0  0  0  0  0
   51.8750  100.1146   28.9396 C   0  0  0  0  0  0
   51.6431  100.8461   27.7727 C   0  0  0  0  0  0
   50.8439   98.1363   27.9666 C   0  0  0  0  0  0
   51.4770   98.7767   29.0330 C   0  0  0  0  0  0
   50.6183   98.8502   26.7798 C   0  0  0  0  0  0
   51.0177  100.2172   26.6876 C   0  0  0  0  0  0
   50.6411  100.5938   25.3777 C   0  0  0  0  0  0
   50.0459   99.4855   24.8328 N   0  0  0  0  0  0
   50.0426   98.3965   25.6221 N   0  0  0  0  0  0
   54.1047   99.5475   33.7165 C   0  0  0  0  0  0
   53.5464   98.7757   34.7480 C   0  0  0  0  0  0
   53.9383   97.4404   34.9617 C   0  0  0  0  0  0
   54.8771   96.8733   34.0822 C   0  0  0  0  0  0
   55.4222   97.6326   33.0543 C   0  0  0  0  0  0
   55.0475   98.9602   32.8683 C   0  0  0  0  0  0
   55.2892   95.5887   34.2070 F   0  0  0  0  0  0
   53.3516   96.6601   36.1169 C   0  0  0  0  0  0
   53.8907   95.4274   36.3287 O   0  0  0  0  0  0
   52.4432   97.1081   36.8109 O   0  0  0  0  0  0
   52.7554  101.1338   34.0715 H   0  0  0  0  0  0
   55.2703  104.1979   32.0551 H   0  0  0  0  0  0
   54.9573  101.6923   35.1217 H   0  0  0  0  0  0
   52.7595  103.3181   29.9630 H   0  0  0  0  0  0
   54.0397  104.4271   30.3565 H   0  0  0  0  0  0
   54.4416  102.9316   29.5340 H   0  0  0  0  0  0
   53.2410  101.4698   29.6313 H   0  0  0  0  0  0
   51.9619  101.8753   27.6944 H   0  0  0  0  0  0
   50.5561   97.1031   28.0544 H   0  0  0  0  0  0
   51.6783   98.2094   29.9311 H   0  0  0  0  0  0
   50.7343  101.5028   24.8120 H   0  0  0  0  0  0
   49.6535   99.4653   23.8987 H   0  0  0  0  0  0
   52.8217   99.2355   35.4069 H   0  0  0  0  0  0
   56.1603   97.1817   32.4095 H   0  0  0  0  0  0
   55.5062   99.5300   32.0710 H   0  0  0  0  0  0
   54.5707   95.2439   35.6725 H   0  0  0  0  0  0
  1  2  1  0  0  0
  1  6  1  0  0  0
  1 21  1  0  0  0
  1 31  1  0  0  0
  2  3  2  0  0  0
  2  9  1  0  0  0
  3  4  1  0  0  0
  3  8  1  0  0  0
  4  5  1  0  0  0
  4 32  1  0  0  0
  5  6  1  0  0  0
  5  7  2  0  0  0
  6 33  1  0  0  0
  8 34  1  0  0  0
  8 35  1  0  0  0
  8 36  1  0  0  0
  9 10  1  0  0  0
  9 11  2  0  0  0
 10 37  1  0  0  0
 10 12  1  0  0  0
 12 15  1  0  0  0
 12 13  2  0  0  0
 13 38  1  0  0  0
 13 17  1  0  0  0
 14 16  1  0  0  0
 14 39  1  0  0  0
 14 15  2  0  0  0
 15 40  1  0  0  0
 16 20  2  0  0  0
 16 17  1  0  0  0
 17 18  2  0  0  0
 18 19  1  0  0  0
 18 41  1  0  0  0
 19 42  1  0  0  0
 19 20  1  0  0  0
 21 22  2  0  0  0
 21 26  1  0  0  0
 22 23  1  0  0  0
 22 43  1  0  0  0
 23 24  2  0  0  0
 23 28  1  0  0  0
 24 25  1  0  0  0
 24 27  1  0  0  0
 25 26  2  0  0  0
 25 44  1  0  0  0
 26 45  1  0  0  0
 28 29  1  0  0  0
 28 30  2  0  0  0
 29 46  1  0  0  0
M  END
> <s_m_entry_id>
28092

> <s_m_entry_name>
dock_pv.253

> <s_m_Source_Path>
/home/csk/Desktop/cluster/DUD-E-result/rock1

> <s_m_Source_File>
dock_pv.maegz

> <i_m_Source_File_Index>
253

> <chembl_id>
CHEMBL3810250

> <chembl_pref_name>
None

> <i_lp_mmshare_version>
53161

> <r_lp_tautomer_probability>
0.019607843137214

> <s_lp_Force_Field>
OPLS_2005

> <r_lp_Energy>
62.427901

> <b_lp_Chiralities_Consistent>
1

> <s_lp_Variant>
CHEMBL3231_lig512-3

> <s_i_glide_gridfile>
glide-grid_2etr

> <i_i_glide_lignum>
727

> <i_i_glide_rotatable_bonds>
6

> <r_i_docking_score>
-7.90504275636032

> <r_i_glide_ligand_efficiency>
-0.263501425212011

> <r_i_glide_ligand_efficiency_sa>
-0.818760192855674

> <r_i_glide_ligand_efficiency_ln>
-1.79611184658455

> <r_i_glide_gscore>
-7.90504275636032

> <r_i_glide_lipo>
-2.01549137562517

> <r_i_glide_hbond>
-0.805155035497844

> <r_i_glide_metal>
0

> <r_i_glide_rewards>
-1.75884322170411

> <r_i_glide_evdw>
-46.2802619934082

> <r_i_glide_ecoul>
-10.2493543624878

> <r_i_glide_erotb>
0.587469973002305

> <r_i_glide_esite>
-0.0616068424919218

> <r_i_glide_emodel>
-79.9568933274469

> <r_i_glide_energy>
-56.529616355896

> <r_i_glide_einternal>
9.39908409118652

> <i_i_glide_confnum>
12

> <i_i_glide_posenum>
264

> <r_i_glide_eff_state_penalty>
0

> <s_user_duplicate_titles>
CHEMBL3231_lig512

> <i_f3d_flags>
0

> <s_m_subgroup_title>
dock_pv

> <s_m_subgroupid>
dock_pv

> <b_m_subgroup_collapsed>
1

$$$$
CHEMBL3231_lig780
                    3D
 Schrodinger Suite 2021-1.
 47 50  0  0  1  0            999 V2000
   51.6038   97.7463   30.4433 C   0  0  0  0  0  0
   51.3809   98.4501   29.2246 O   0  0  0  0  0  0
   51.4594   99.8322   29.1991 C   0  0  0  0  0  0
   51.8941  100.5904   30.3049 C   0  0  0  0  0  0
   51.8769  101.9932   30.2790 C   0  0  0  0  0  0
   51.4588  102.6369   29.1154 C   0  0  0  0  0  0
   51.0546  101.9016   28.0116 C   0  0  0  0  0  0
   51.0438  100.5037   28.0300 C   0  0  0  0  0  0
   50.5453   99.8238   26.7855 C   0  0  0  0  0  0
   50.5826   98.4653   26.4124 C   0  0  0  0  0  0
   50.0430   98.2219   25.2399 N   0  0  0  0  0  0
   49.6433   99.4164   24.8109 N   0  0  0  0  0  0
   49.9210  100.4167   25.6923 C   0  0  0  0  0  0
   52.2116  102.8224   31.4912 C   0  0  0  0  0  0
   51.6430  103.8999   31.6698 O   0  0  0  0  0  0
   53.1223  102.3245   32.3477 N   0  0  0  0  0  0
   53.4977  102.9267   33.6438 C   0  0  0  0  0  0
   54.2932  104.2546   33.4662 C   0  0  0  0  0  0
   55.6032  103.4710   33.4089 C   0  0  0  0  0  0
   54.8499  102.3514   34.1321 C   0  0  0  0  0  0
   52.2651  102.8586   34.5650 C   0  0  0  0  0  0
   51.6065  104.0247   34.9753 C   0  0  0  0  0  0
   50.4843  103.9448   35.7976 C   0  0  0  0  0  0
   50.0196  102.6995   36.2141 C   0  0  0  0  0  0
   50.6643  101.5334   35.8087 C   0  0  0  0  0  0
   51.7871  101.6131   34.9887 C   0  0  0  0  0  0
   51.3919   96.6879   30.2939 H   0  0  0  0  0  0
   52.6403   97.8333   30.7724 H   0  0  0  0  0  0
   50.9430   98.0965   31.2371 H   0  0  0  0  0  0
   52.2019  100.0923   31.2117 H   0  0  0  0  0  0
   51.4369  103.7164   29.0576 H   0  0  0  0  0  0
   50.7393  102.4478   27.1365 H   0  0  0  0  0  0
   51.0044   97.6587   26.9937 H   0  0  0  0  0  0
   49.1987   99.5488   23.9064 H   0  0  0  0  0  0
   49.6484  101.4369   25.4652 H   0  0  0  0  0  0
   53.7213  101.5860   32.0118 H   0  0  0  0  0  0
   54.0447  104.8502   32.5855 H   0  0  0  0  0  0
   54.2239  104.9212   34.3273 H   0  0  0  0  0  0
   55.9131  103.2137   32.3939 H   0  0  0  0  0  0
   56.4416  103.9030   33.9544 H   0  0  0  0  0  0
   54.9534  102.3788   35.2190 H   0  0  0  0  0  0
   55.0775  101.3315   33.8174 H   0  0  0  0  0  0
   51.9500  104.9946   34.6456 H   0  0  0  0  0  0
   49.9753  104.8452   36.1077 H   0  0  0  0  0  0
   49.1480  102.6350   36.8500 H   0  0  0  0  0  0
   50.2973  100.5704   36.1313 H   0  0  0  0  0  0
   52.2881  100.7075   34.6797 H   0  0  0  0  0  0
  1  2  1  0  0  0
  1 27  1  0  0  0
  1 28  1  0  0  0
  1 29  1  0  0  0
  2  3  1  0  0  0
  3  4  2  0  0  0
  3  8  1  0  0  0
  4  5  1  0  0  0
  4 30  1  0  0  0
  5  6  2  0  0  0
  5 14  1  0  0  0
  6  7  1  0  0  0
  6 31  1  0  0  0
  7  8  2  0  0  0
  7 32  1  0  0  0
  8  9  1  0  0  0
  9 10  1  0  0  0
  9 13  2  0  0  0
 10 11  2  0  0  0
 10 33  1  0  0  0
 11 12  1  0  0  0
 12 13  1  0  0  0
 12 34  1  0  0  0
 13 35  1  0  0  0
 14 15  2  0  0  0
 14 16  1  0  0  0
 16 17  1  0  0  0
 16 36  1  0  0  0
 17 18  1  0  0  0
 17 20  1  0  0  0
 17 21  1  0  0  0
 18 19  1  0  0  0
 18 37  1  0  0  0
 18 38  1  0  0  0
 19 20  1  0  0  0
 19 39  1  0  0  0
 19 40  1  0  0  0
 20 41  1  0  0  0
 20 42  1  0  0  0
 21 22  2  0  0  0
 21 26  1  0  0  0
 22 23  1  0  0  0
 22 43  1  0  0  0
 23 24  2  0  0  0
 23 44  1  0  0  0
 24 25  1  0  0  0
 24 45  1  0  0  0
 25 26  2  0  0  0
 25 46  1  0  0  0
 26 47  1  0  0  0
M  END
> <s_m_entry_id>
28093

> <s_m_entry_name>
dock_pv.254

> <s_m_Source_Path>
/home/csk/Desktop/cluster/DUD-E-result/rock1

> <s_m_Source_File>
dock_pv.maegz

> <i_m_Source_File_Index>
254

> <chembl_id>
CHEMBL3931254

> <chembl_pref_name>
None

> <i_lp_mmshare_version>
53161

> <r_lp_tautomer_probability>
0.5

> <s_lp_Force_Field>
OPLS_2005

> <r_lp_Energy>
34.939636

> <b_lp_Chiralities_Consistent>
1

> <s_lp_Variant>
CHEMBL3231_lig780-1

> <s_i_glide_gridfile>
glide-grid_2etr

> <i_i_glide_lignum>
1103

> <i_i_glide_rotatable_bonds>
6

> <r_i_docking_score>
-7.90233039624884

> <r_i_glide_ligand_efficiency>
-0.303935784471109

> <r_i_glide_ligand_efficiency_sa>
-0.900408565566098

> <r_i_glide_ligand_efficiency_ln>
-1.85583636389809

> <r_i_glide_gscore>
-7.90233039624884

> <r_i_glide_lipo>
-2.48654511914614

> <r_i_glide_hbond>
-0.693288793137948

> <r_i_glide_metal>
0

> <r_i_glide_rewards>
-1.97465004130986

> <r_i_glide_evdw>
-40.8110618591309

> <r_i_glide_ecoul>
-7.98424673080444

> <r_i_glide_erotb>
0.551677626981925

> <r_i_glide_esite>
-0.061333967059601

> <r_i_glide_emodel>
-70.7507869875156

> <r_i_glide_energy>
-48.7953085899353

> <r_i_glide_einternal>
2.51410174369812

> <i_i_glide_confnum>
76

> <i_i_glide_posenum>
115

> <r_i_glide_eff_state_penalty>
0

> <s_user_duplicate_titles>
CHEMBL3231_lig780

> <i_f3d_flags>
0

> <s_m_subgroup_title>
dock_pv

> <s_m_subgroupid>
dock_pv

> <b_m_subgroup_collapsed>
1

$$$$
CHEMBL3231_lig558
                    3D
 Schrodinger Suite 2021-1.
 36 38  0  0  1  0            999 V2000
   47.4448  104.7029   36.4111 Cl  0  0  0  0  0  0
   48.9248  103.9829   35.9065 C   0  0  0  0  0  0
   50.0484  104.7793   35.6971 C   0  0  0  0  0  0
   51.2460  104.1971   35.2834 C   0  0  0  0  0  0
   51.3345  102.8147   35.0759 C   0  0  0  0  0  0
   52.6821  102.2256   34.6489 C   0  0  0  0  0  0
   53.0188  102.4526   33.2398 N   0  0  0  0  0  0
   52.3603  101.9281   32.1959 C   0  0  0  0  0  0
   51.6432  100.9323   32.2751 O   0  0  0  0  0  0
   52.5308  102.6673   31.0827 N   0  0  0  0  0  0
   51.8259  102.4571   29.9118 C   0  0  0  0  0  0
   51.7167  101.3201   29.2654 N   0  0  0  0  0  0
   50.9649  101.4305   28.1757 C   0  0  0  0  0  0
   50.4430  102.7100   27.9756 C   0  0  0  0  0  0
   50.9849  103.7890   29.2095 S   0  0  0  0  0  0
   50.7313  100.2551   27.2829 C   0  0  0  0  0  0
   50.2735  100.4422   25.9704 C   0  0  0  0  0  0
   50.0428   99.3260   25.1672 C   0  0  0  0  0  0
   50.2358   98.0555   25.6014 N   0  0  0  0  0  0
   50.6909   97.8855   26.8643 C   0  0  0  0  0  0
   50.9549   98.9448   27.7282 C   0  0  0  0  0  0
   50.1964  102.0174   35.2961 C   0  0  0  0  0  0
   50.2227  100.3039   35.0838 Cl  0  0  0  0  0  0
   48.9985  102.6064   35.7060 C   0  0  0  0  0  0
   49.9971  105.8467   35.8532 H   0  0  0  0  0  0
   52.1123  104.8254   35.1233 H   0  0  0  0  0  0
   53.4662  102.6840   35.2532 H   0  0  0  0  0  0
   52.7497  101.1604   34.8745 H   0  0  0  0  0  0
   53.7771  103.0928   33.0593 H   0  0  0  0  0  0
   53.1050  103.4959   31.1332 H   0  0  0  0  0  0
   49.8041  103.0681   27.1848 H   0  0  0  0  0  0
   50.0956  101.4307   25.5750 H   0  0  0  0  0  0
   49.6848   99.4464   24.1535 H   0  0  0  0  0  0
   50.8432   96.8655   27.1869 H   0  0  0  0  0  0
   51.3099   98.7464   28.7290 H   0  0  0  0  0  0
   48.1254  101.9929   35.8766 H   0  0  0  0  0  0
  1  2  1  0  0  0
  2  3  2  0  0  0
  2 24  1  0  0  0
  3  4  1  0  0  0
  3 25  1  0  0  0
  4  5  2  0  0  0
  4 26  1  0  0  0
  5  6  1  0  0  0
  5 22  1  0  0  0
  6  7  1  0  0  0
  6 27  1  0  0  0
  6 28  1  0  0  0
  7  8  1  0  0  0
  7 29  1  0  0  0
  8  9  2  0  0  0
  8 10  1  0  0  0
 10 11  1  0  0  0
 10 30  1  0  0  0
 11 12  2  0  0  0
 11 15  1  0  0  0
 12 13  1  0  0  0
 13 14  2  0  0  0
 13 16  1  0  0  0
 14 15  1  0  0  0
 14 31  1  0  0  0
 16 17  2  0  0  0
 16 21  1  0  0  0
 17 18  1  0  0  0
 17 32  1  0  0  0
 18 19  2  0  0  0
 18 33  1  0  0  0
 19 20  1  0  0  0
 20 21  2  0  0  0
 20 34  1  0  0  0
 21 35  1  0  0  0
 22 23  1  0  0  0
 22 24  2  0  0  0
 24 36  1  0  0  0
M  END
> <s_m_entry_id>
28094

> <s_m_entry_name>
dock_pv.255

> <s_m_Source_Path>
/home/csk/Desktop/cluster/DUD-E-result/rock1

> <s_m_Source_File>
dock_pv.maegz

> <i_m_Source_File_Index>
255

> <chembl_id>
CHEMBL3935950

> <chembl_pref_name>
None

> <i_lp_mmshare_version>
53161

> <r_lp_tautomer_probability>
0.999000488399163

> <s_lp_Force_Field>
OPLS_2005

> <r_lp_Energy>
6.902849

> <b_lp_Chiralities_Consistent>
1

> <s_lp_Variant>
CHEMBL3231_lig558-1

> <s_i_glide_gridfile>
glide-grid_2etr

> <i_i_glide_lignum>
836

> <i_i_glide_rotatable_bonds>
6

> <r_i_docking_score>
-7.89734437845727

> <r_i_glide_ligand_efficiency>
-0.329056015769053

> <r_i_glide_ligand_efficiency_sa>
-0.949161793694473

> <r_i_glide_ligand_efficiency_ln>
-1.890196895285

> <r_i_glide_gscore>
-7.89734437845727

> <r_i_glide_lipo>
-3.47233395153003

> <r_i_glide_hbond>
-0.0749318620422909

> <r_i_glide_metal>
0

> <r_i_glide_rewards>
-2.14703301287892

> <r_i_glide_evdw>
-42.9093818664551

> <r_i_glide_ecoul>
-4.43543148040771

> <r_i_glide_erotb>
0.673937302622802

> <r_i_glide_esite>
-0.0661990392449154

> <r_i_glide_emodel>
-67.9107442755362

> <r_i_glide_energy>
-47.3448133468628

> <r_i_glide_einternal>
6.27227210998535

> <i_i_glide_confnum>
8

> <i_i_glide_posenum>
396

> <r_i_glide_eff_state_penalty>
0

> <s_user_duplicate_titles>
CHEMBL3231_lig558

> <i_f3d_flags>
0

> <s_m_subgroup_title>
dock_pv

> <s_m_subgroupid>
dock_pv

> <b_m_subgroup_collapsed>
1

$$$$
CHEMBL3231_lig385
                    3D
 Schrodinger Suite 2021-1.
 43 45  0  0  1  0            999 V2000
   51.2385  103.5041   32.6359 O   0  0  0  0  0  0
   52.4555  103.3308   32.7233 C   0  0  0  0  0  0
   53.2191  103.8693   33.6848 N   0  0  0  0  0  0
   52.8021  104.9116   34.6299 C   0  0  0  0  0  0
   52.1914  104.3795   35.9472 C   0  0  0  0  0  0
   50.7976  103.7819   35.8016 C   0  0  0  0  0  0
   50.6362  102.4011   35.6529 C   0  0  0  0  0  0
   49.3623  101.8640   35.4854 C   0  0  0  0  0  0
   48.2558  102.7092   35.4713 C   0  0  0  0  0  0
   48.4055  104.0825   35.6414 C   0  0  0  0  0  0
   49.6799  104.6197   35.8023 C   0  0  0  0  0  0
   53.1797  102.5921   31.8610 N   0  0  0  0  0  0
   52.6675  101.9328   30.7353 C   0  0  0  0  0  0
   53.1412  100.6510   30.4664 C   0  0  0  0  0  0
   52.6288   99.9409   29.3868 C   0  0  0  0  0  0
   51.6592  100.5053   28.5446 C   0  0  0  0  0  0
   51.2129  101.8059   28.8118 C   0  0  0  0  0  0
   51.7177  102.5205   29.8909 C   0  0  0  0  0  0
   51.1112   99.7446   27.3872 C   0  0  0  0  0  0
   50.7202  100.3950   26.2058 C   0  0  0  0  0  0
   50.1861   99.6494   25.1558 C   0  0  0  0  0  0
   50.0433   98.3029   25.2109 N   0  0  0  0  0  0
   50.4426   97.6720   26.3415 C   0  0  0  0  0  0
   50.9627   98.3502   27.4427 C   0  0  0  0  0  0
   54.1940  103.6125   33.7161 H   0  0  0  0  0  0
   52.0567  105.5373   34.1332 H   0  0  0  0  0  0
   53.6252  105.5971   34.8362 H   0  0  0  0  0  0
   52.1364  105.1971   36.6693 H   0  0  0  0  0  0
   52.8643  103.6584   36.4120 H   0  0  0  0  0  0
   51.4975  101.7474   35.6482 H   0  0  0  0  0  0
   49.2355  100.7982   35.3559 H   0  0  0  0  0  0
   47.2659  102.2965   35.3313 H   0  0  0  0  0  0
   47.5375  104.7260   35.6370 H   0  0  0  0  0  0
   49.8004  105.6876   35.9179 H   0  0  0  0  0  0
   54.1384  102.3812   32.0988 H   0  0  0  0  0  0
   53.8889  100.1947   31.0989 H   0  0  0  0  0  0
   53.0056   98.9439   29.2113 H   0  0  0  0  0  0
   50.4620  102.2695   28.1886 H   0  0  0  0  0  0
   51.3637  103.5253   30.0698 H   0  0  0  0  0  0
   50.8259  101.4649   26.0949 H   0  0  0  0  0  0
   49.8680  100.1293   24.2411 H   0  0  0  0  0  0
   50.3295   96.5992   26.3637 H   0  0  0  0  0  0
   51.2407   97.7906   28.3251 H   0  0  0  0  0  0
  1  2  2  0  0  0
  2  3  1  0  0  0
  2 12  1  0  0  0
  3  4  1  0  0  0
  3 25  1  0  0  0
  4  5  1  0  0  0
  4 26  1  0  0  0
  4 27  1  0  0  0
  5  6  1  0  0  0
  5 28  1  0  0  0
  5 29  1  0  0  0
  6  7  2  0  0  0
  6 11  1  0  0  0
  7  8  1  0  0  0
  7 30  1  0  0  0
  8  9  2  0  0  0
  8 31  1  0  0  0
  9 10  1  0  0  0
  9 32  1  0  0  0
 10 11  2  0  0  0
 10 33  1  0  0  0
 11 34  1  0  0  0
 12 13  1  0  0  0
 12 35  1  0  0  0
 13 14  2  0  0  0
 13 18  1  0  0  0
 14 15  1  0  0  0
 14 36  1  0  0  0
 15 16  2  0  0  0
 15 37  1  0  0  0
 16 17  1  0  0  0
 16 19  1  0  0  0
 17 18  2  0  0  0
 17 38  1  0  0  0
 18 39  1  0  0  0
 19 20  2  0  0  0
 19 24  1  0  0  0
 20 21  1  0  0  0
 20 40  1  0  0  0
 21 22  2  0  0  0
 21 41  1  0  0  0
 22 23  1  0  0  0
 23 24  2  0  0  0
 23 42  1  0  0  0
 24 43  1  0  0  0
M  END
> <s_m_entry_id>
28096

> <s_m_entry_name>
dock_pv.257

> <s_m_Source_Path>
/home/csk/Desktop/cluster/DUD-E-result/rock1

> <s_m_Source_File>
dock_pv.maegz

> <i_m_Source_File_Index>
257

> <chembl_id>
CHEMBL2023159

> <chembl_pref_name>
None

> <i_lp_mmshare_version>
53161

> <r_lp_tautomer_probability>
1

> <s_lp_Force_Field>
OPLS_2005

> <r_lp_Energy>
18.567086

> <b_lp_Chiralities_Consistent>
1

> <s_lp_Variant>
CHEMBL3231_lig385-1

> <s_i_glide_gridfile>
glide-grid_2etr

> <i_i_glide_lignum>
540

> <i_i_glide_rotatable_bonds>
7

> <r_i_docking_score>
-7.88489696816503

> <r_i_glide_ligand_efficiency>
-0.328537373673543

> <r_i_glide_ligand_efficiency_sa>
-0.947665771017273

> <r_i_glide_ligand_efficiency_ln>
-1.88721765882762

> <r_i_glide_gscore>
-7.88489696816503

> <r_i_glide_lipo>
-3.21499964440194

> <r_i_glide_hbond>
-0.300943192878801

> <r_i_glide_metal>
0

> <r_i_glide_rewards>
-2.44731440077757

> <r_i_glide_evdw>
-42.0455131530762

> <r_i_glide_ecoul>
-5.59584760665894

> <r_i_glide_erotb>
1.10967459019411

> <r_i_glide_esite>
-0.0896615216481876

> <r_i_glide_emodel>
-68.9458640377206

> <r_i_glide_energy>
-47.6413607597351

> <r_i_glide_einternal>
3.93424487113953

> <i_i_glide_confnum>
28

> <i_i_glide_posenum>
323

> <r_i_glide_eff_state_penalty>
0

> <s_user_duplicate_titles>
CHEMBL3231_lig385

> <i_f3d_flags>
0

> <s_m_subgroup_title>
dock_pv

> <s_m_subgroupid>
dock_pv

> <b_m_subgroup_collapsed>
1

$$$$
CHEMBL3231_lig762
                    3D
 Schrodinger Suite 2021-1.
 44 46  0  0  1  0            999 V2000
   50.0434  104.7768   28.4113 C   0  0  0  0  0  0
   50.8432  104.0801   29.3626 O   0  0  0  0  0  0
   51.1259  102.7331   29.2009 C   0  0  0  0  0  0
   50.7053  102.0203   28.0677 C   0  0  0  0  0  0
   51.0025  100.6678   27.8961 C   0  0  0  0  0  0
   51.7374  100.0103   28.8802 C   0  0  0  0  0  0
   52.1575  100.6931   30.0172 C   0  0  0  0  0  0
   51.8639  102.0569   30.1990 C   0  0  0  0  0  0
   52.2697  102.7490   31.4860 C   0  0  0  0  0  0
   51.6429  103.7183   31.9129 O   0  0  0  0  0  0
   53.2973  102.2083   32.1689 N   0  0  0  0  0  0
   53.7355  102.6063   33.5171 C   0  0  2  0  0  0
   54.9554  101.7700   33.9689 C   0  0  0  0  0  0
   55.6431  102.3798   35.0496 O   0  0  0  0  0  0
   52.6081  102.6146   34.5684 C   0  0  0  0  0  0
   52.3576  103.7654   35.3299 C   0  0  0  0  0  0
   53.1267  104.8687   35.1879 F   0  0  0  0  0  0
   51.3032  103.7936   36.2428 C   0  0  0  0  0  0
   50.4886  102.6755   36.4099 C   0  0  0  0  0  0
   50.7398  101.5203   35.6720 C   0  0  0  0  0  0
   51.7937  101.4861   34.7588 C   0  0  0  0  0  0
   52.0065  100.3525   34.0511 F   0  0  0  0  0  0
   50.5247   99.9526   26.6787 C   0  0  0  0  0  0
   50.5625   98.5773   26.3813 C   0  0  0  0  0  0
   50.0430   98.2800   25.2125 N   0  0  0  0  0  0
   49.6520   99.4546   24.7231 N   0  0  0  0  0  0
   49.9220  100.4984   25.5553 C   0  0  0  0  0  0
   49.9941  105.8297   28.6883 H   0  0  0  0  0  0
   50.4579  104.7278   27.4033 H   0  0  0  0  0  0
   49.0238  104.3906   28.4101 H   0  0  0  0  0  0
   50.1341  102.5162   27.3004 H   0  0  0  0  0  0
   51.9815   98.9636   28.7777 H   0  0  0  0  0  0
   52.7008  100.1318   30.7647 H   0  0  0  0  0  0
   53.9255  101.6084   31.6552 H   0  0  0  0  0  0
   54.1019  103.6292   33.3910 H   0  0  0  0  0  0
   54.6489  100.7677   34.2711 H   0  0  0  0  0  0
   55.6424  101.6344   33.1339 H   0  0  0  0  0  0
   56.4672  101.9030   35.2078 H   0  0  0  0  0  0
   51.1194  104.6902   36.8154 H   0  0  0  0  0  0
   49.6688  102.7002   37.1136 H   0  0  0  0  0  0
   50.1174  100.6477   35.8045 H   0  0  0  0  0  0
   50.9655   97.8027   27.0174 H   0  0  0  0  0  0
   49.2106   99.5436   23.8119 H   0  0  0  0  0  0
   49.6565  101.5067   25.2781 H   0  0  0  0  0  0
  1  2  1  0  0  0
  1 28  1  0  0  0
  1 29  1  0  0  0
  1 30  1  0  0  0
  2  3  1  0  0  0
  3  4  2  0  0  0
  3  8  1  0  0  0
  4  5  1  0  0  0
  4 31  1  0  0  0
  5  6  2  0  0  0
  5 23  1  0  0  0
  6  7  1  0  0  0
  6 32  1  0  0  0
  7  8  2  0  0  0
  7 33  1  0  0  0
  8  9  1  0  0  0
  9 10  2  0  0  0
  9 11  1  0  0  0
 11 12  1  0  0  0
 11 34  1  0  0  0
 12 13  1  0  0  0
 12 15  1  0  0  0
 12 35  1  0  0  0
 13 14  1  0  0  0
 13 36  1  0  0  0
 13 37  1  0  0  0
 14 38  1  0  0  0
 15 16  2  0  0  0
 15 21  1  0  0  0
 16 17  1  0  0  0
 16 18  1  0  0  0
 18 19  2  0  0  0
 18 39  1  0  0  0
 19 20  1  0  0  0
 19 40  1  0  0  0
 20 21  2  0  0  0
 20 41  1  0  0  0
 21 22  1  0  0  0
 23 24  1  0  0  0
 23 27  2  0  0  0
 24 25  2  0  0  0
 24 42  1  0  0  0
 25 26  1  0  0  0
 26 27  1  0  0  0
 26 43  1  0  0  0
 27 44  1  0  0  0
M  END
> <s_m_entry_id>
28097

> <s_m_entry_name>
dock_pv.258

> <s_m_Source_Path>
/home/csk/Desktop/cluster/DUD-E-result/rock1

> <s_m_Source_File>
dock_pv.maegz

> <i_m_Source_File_Index>
258

> <chembl_id>
CHEMBL4109193

> <chembl_pref_name>
None

> <i_lp_mmshare_version>
53161

> <r_lp_tautomer_probability>
0.5

> <s_lp_Force_Field>
OPLS_2005

> <r_lp_Energy>
22.29248

> <b_lp_Chiralities_Consistent>
1

> <s_lp_Variant>
CHEMBL3231_lig762-1

> <s_i_glide_gridfile>
glide-grid_2etr

> <i_i_glide_lignum>
1080

> <i_i_glide_rotatable_bonds>
8

> <r_i_docking_score>
-7.88055133198244

> <r_i_glide_ligand_efficiency>
-0.291872271554905

> <r_i_glide_ligand_efficiency_sa>
-0.875616813702752

> <r_i_glide_ligand_efficiency_ln>
-1.83446242904292

> <r_i_glide_gscore>
-7.88055133198244

> <r_i_glide_lipo>
-2.38419781754279

> <r_i_glide_hbond>
-0.725503386645779

> <r_i_glide_metal>
0

> <r_i_glide_rewards>
-1.79653280680499

> <r_i_glide_evdw>
-40.4835319519043

> <r_i_glide_ecoul>
-9.02591705322266

> <r_i_glide_erotb>
0.485208663053224

> <r_i_glide_esite>
-0.0814618284634935

> <r_i_glide_emodel>
-74.9888021675034

> <r_i_glide_energy>
-49.509449005127

> <r_i_glide_einternal>
0.830239057540894

> <i_i_glide_confnum>
1

> <i_i_glide_posenum>
349

> <r_i_glide_eff_state_penalty>
0

> <s_user_duplicate_titles>
CHEMBL3231_lig762

> <i_f3d_flags>
0

> <s_m_subgroup_title>
dock_pv

> <s_m_subgroupid>
dock_pv

> <b_m_subgroup_collapsed>
1

$$$$
CHEMBL3231_lig300
                    3D
 Schrodinger Suite 2021-1.
 32 34  0  0  1  0            999 V2000
   53.9653  100.5173   32.4143 C   0  0  0  0  0  0
   53.9497   99.3257   33.0597 N   0  0  0  0  0  0
   53.2399   98.3333   32.4799 C   0  0  0  0  0  0
   52.5384   98.4300   31.3270 N   0  0  0  0  0  0
   52.5692   99.6247   30.6655 C   0  0  0  0  0  0
   53.2834  100.7093   31.2049 C   0  0  0  0  0  0
   51.8810   99.6767   29.3249 C   0  0  0  0  0  0
   51.3628   98.5012   28.7438 C   0  0  0  0  0  0
   51.2411  100.9604   27.3291 C   0  0  0  0  0  0
   51.7782  100.8858   28.6133 C   0  0  0  0  0  0
   50.8156   99.7781   26.7149 C   0  0  0  0  0  0
   50.8788   98.5678   27.4365 C   0  0  0  0  0  0
   50.3988   97.6017   26.5756 N   0  0  0  0  0  0
   50.0430   98.1192   25.3868 N   0  0  0  0  0  0
   50.2809   99.4013   25.4468 C   0  0  0  0  0  0
   50.0430  100.2517   24.4111 N   0  0  0  0  0  0
   53.2430   97.1030   33.1192 N   0  0  0  0  0  0
   54.7127  101.5272   33.0347 N   0  0  0  0  0  0
   54.8421  102.8668   32.4734 C   0  0  0  0  0  0
   53.3509  101.6574   30.7006 H   0  0  0  0  0  0
   51.3785   97.5585   29.2698 H   0  0  0  0  0  0
   51.1836  101.9023   26.8055 H   0  0  0  0  0  0
   52.1350  101.8095   29.0391 H   0  0  0  0  0  0
   50.3121   96.6111   26.7520 H   0  0  0  0  0  0
   49.9637  101.2449   24.5674 H   0  0  0  0  0  0
   49.6092   99.9203   23.5508 H   0  0  0  0  0  0
   52.6966   96.3425   32.7315 H   0  0  0  0  0  0
   53.8651   96.9697   33.9014 H   0  0  0  0  0  0
   55.2205  101.2913   33.8751 H   0  0  0  0  0  0
   55.5215  103.4656   33.0801 H   0  0  0  0  0  0
   53.8771  103.3736   32.4473 H   0  0  0  0  0  0
   55.2430  102.8360   31.4604 H   0  0  0  0  0  0
  1  6  1  0  0  0
  1  2  2  0  0  0
  1 18  1  0  0  0
  2  3  1  0  0  0
  3  4  2  0  0  0
  3 17  1  0  0  0
  4  5  1  0  0  0
  5  7  1  0  0  0
  5  6  2  0  0  0
  6 20  1  0  0  0
  7 10  1  0  0  0
  7  8  2  0  0  0
  8 12  1  0  0  0
  8 21  1  0  0  0
  9 10  2  0  0  0
  9 11  1  0  0  0
  9 22  1  0  0  0
 10 23  1  0  0  0
 11 12  2  0  0  0
 11 15  1  0  0  0
 12 13  1  0  0  0
 13 14  1  0  0  0
 13 24  1  0  0  0
 14 15  2  0  0  0
 15 16  1  0  0  0
 16 25  1  0  0  0
 16 26  1  0  0  0
 17 27  1  0  0  0
 17 28  1  0  0  0
 18 19  1  0  0  0
 18 29  1  0  0  0
 19 30  1  0  0  0
 19 31  1  0  0  0
 19 32  1  0  0  0
M  END
> <s_m_entry_id>
28098

> <s_m_entry_name>
dock_pv.259

> <s_m_Source_Path>
/home/csk/Desktop/cluster/DUD-E-result/rock1

> <s_m_Source_File>
dock_pv.maegz

> <i_m_Source_File_Index>
259

> <chembl_id>
CHEMBL1765760

> <chembl_pref_name>
None

> <i_lp_mmshare_version>
53161

> <r_lp_tautomer_probability>
0.999999624730965

> <s_lp_Force_Field>
OPLS_2005

> <r_lp_Energy>
0.765997

> <b_lp_Chiralities_Consistent>
1

> <s_lp_Variant>
CHEMBL3231_lig300-1

> <s_i_glide_gridfile>
glide-grid_2etr

> <i_i_glide_lignum>
448

> <i_i_glide_rotatable_bonds>
2

> <r_i_docking_score>
-7.87790766672856

> <r_i_glide_ligand_efficiency>
-0.414626719301503

> <r_i_glide_ligand_efficiency_sa>
-1.1063906203024

> <r_i_glide_ligand_efficiency_ln>
-1.99721879545805

> <r_i_glide_gscore>
-7.87790766672856

> <r_i_glide_lipo>
-1.90551387468994

> <r_i_glide_hbond>
-0.765131698143874

> <r_i_glide_metal>
0

> <r_i_glide_rewards>
-2.7515518711979

> <r_i_glide_evdw>
-33.2810859680176

> <r_i_glide_ecoul>
-6.35525274276733

> <r_i_glide_erotb>
0.18909537207382

> <r_i_glide_esite>
-0.0274633849546803

> <r_i_glide_emodel>
-56.8468789108632

> <r_i_glide_energy>
-39.6363387107849

> <r_i_glide_einternal>
1.71309554576874

> <i_i_glide_confnum>
3

> <i_i_glide_posenum>
382

> <r_i_glide_eff_state_penalty>
0

> <s_user_duplicate_titles>
CHEMBL3231_lig300

> <i_f3d_flags>
0

> <s_m_subgroup_title>
dock_pv

> <s_m_subgroupid>
dock_pv

> <b_m_subgroup_collapsed>
1

$$$$
CHEMBL3231_lig1645
                    3D
 Schrodinger Suite 2021-1.
 27 30  0  0  1  0            999 V2000
   51.3803  101.0137   28.4732 C   0  0  0  0  0  0
   50.8233  101.9021   27.5491 C   0  0  0  0  0  0
   50.2950  101.4863   26.3291 C   0  0  0  0  0  0
   51.3742   99.6381   28.2136 C   0  0  0  0  0  0
   50.8194   99.1803   27.0082 C   0  0  0  0  0  0
   50.3012  100.1154   26.0795 C   0  0  0  0  0  0
   50.0427   98.0531   25.2116 N   0  0  0  0  0  0
   50.6019   97.9175   26.3853 C   0  0  0  0  0  0
   52.0142  101.5564   29.7111 C   0  0  0  0  0  0
   51.5252  102.6275   30.3181 N   0  0  0  0  0  0
   53.1680  101.0726   30.3365 C   0  0  0  0  0  0
   53.4364  101.9492   31.3535 N   0  0  0  0  0  0
   52.3945  102.8907   31.3251 C   0  0  0  0  0  0
   52.3336  103.9034   32.2005 N   0  0  0  0  0  0
   53.3467  103.9992   33.1056 C   0  0  0  0  0  0
   54.4117  103.0994   33.1828 C   0  0  0  0  0  0
   54.4447  102.0418   32.2755 C   0  0  0  0  0  0
   49.8617   99.3687   25.0065 N   0  0  0  0  0  0
   50.8283  102.9610   27.7660 H   0  0  0  0  0  0
   49.8845  102.1959   25.6271 H   0  0  0  0  0  0
   51.7933   98.9421   28.9258 H   0  0  0  0  0  0
   50.8431   96.9401   26.7746 H   0  0  0  0  0  0
   53.8164  100.2414   30.0985 H   0  0  0  0  0  0
   53.2956  104.8460   33.7763 H   0  0  0  0  0  0
   55.1970  103.2255   33.9144 H   0  0  0  0  0  0
   55.2302  101.3009   32.2277 H   0  0  0  0  0  0
   49.4300   99.7025   24.1529 H   0  0  0  0  0  0
  1  2  2  0  0  0
  1  4  1  0  0  0
  1  9  1  0  0  0
  2  3  1  0  0  0
  2 19  1  0  0  0
  3  6  2  0  0  0
  3 20  1  0  0  0
  4  5  2  0  0  0
  4 21  1  0  0  0
  5  6  1  0  0  0
  5  8  1  0  0  0
  6 18  1  0  0  0
  7  8  2  0  0  0
  7 18  1  0  0  0
  8 22  1  0  0  0
  9 10  1  0  0  0
  9 11  2  0  0  0
 10 13  2  0  0  0
 11 12  1  0  0  0
 11 23  1  0  0  0
 12 13  1  0  0  0
 12 17  1  0  0  0
 13 14  1  0  0  0
 14 15  2  0  0  0
 15 16  1  0  0  0
 15 24  1  0  0  0
 16 17  2  0  0  0
 16 25  1  0  0  0
 17 26  1  0  0  0
 18 27  1  0  0  0
M  END
> <s_m_entry_id>
28099

> <s_m_entry_name>
dock_pv.260

> <s_m_Source_Path>
/home/csk/Desktop/cluster/DUD-E-result/rock1

> <s_m_Source_File>
dock_pv.maegz

> <i_m_Source_File_Index>
260

> <chembl_id>
CHEMBL1682540

> <chembl_pref_name>
None

> <i_lp_mmshare_version>
53161

> <r_lp_tautomer_probability>
0.980392156862745

> <s_lp_Force_Field>
OPLS_2005

> <r_lp_Energy>
9.929695

> <b_lp_Chiralities_Consistent>
1

> <s_lp_Variant>
CHEMBL3231_lig1645-1

> <s_i_glide_gridfile>
glide-grid_2etr

> <i_i_glide_lignum>
2348

> <i_i_glide_rotatable_bonds>
1

> <r_i_docking_score>
-7.87757026558545

> <r_i_glide_ligand_efficiency>
-0.437642792532525

> <r_i_glide_ligand_efficiency_sa>
-1.14694858116213

> <r_i_glide_ligand_efficiency_ln>
-2.02488881675552

> <r_i_glide_gscore>
-7.87757026558545

> <r_i_glide_lipo>
-2.04203837883599

> <r_i_glide_hbond>
-0.497084480706371

> <r_i_glide_metal>
0

> <r_i_glide_rewards>
-3.03094620038043

> <r_i_glide_evdw>
-31.9486389160156

> <r_i_glide_ecoul>
-5.68187046051025

> <r_i_glide_erotb>
0.217462495087339

> <r_i_glide_esite>
-0.0752511858726804

> <r_i_glide_emodel>
-55.585976725722

> <r_i_glide_energy>
-37.6305093765259

> <r_i_glide_einternal>
0.0408242382109165

> <i_i_glide_confnum>
1

> <i_i_glide_posenum>
99

> <r_i_glide_eff_state_penalty>
0

> <s_user_duplicate_titles>
CHEMBL3231_lig1645,CHEMBL3231_lig1645

> <i_f3d_flags>
0

> <s_m_subgroup_title>
dock_pv

> <s_m_subgroupid>
dock_pv

> <b_m_subgroup_collapsed>
1

$$$$
CHEMBL3231_lig216
                    3D
 Schrodinger Suite 2021-1.
 47 50  0  0  1  0            999 V2000
   54.0797  100.7172   31.9325 C   0  0  0  0  0  0
   54.1584  101.9237   32.6213 C   0  0  0  0  0  0
   53.3956  103.0293   32.2409 C   0  0  0  0  0  0
   52.5691  102.9552   31.1180 C   0  0  0  0  0  0
   53.1942  100.6331   30.8491 C   0  0  0  0  0  0
   52.4332  101.7495   30.4108 C   0  0  0  0  0  0
   51.5947  101.4546   29.2878 C   0  0  0  0  0  0
   51.7525  100.1345   28.8549 C   0  0  0  0  0  0
   52.8466   99.2210   29.8875 S   0  0  0  0  0  0
   50.6669  102.5207   28.7234 C   0  0  0  0  0  0
   51.1559   99.4231   27.6726 C   0  0  0  0  0  0
   50.8842  100.1932   26.5826 N   0  0  0  0  0  0
   50.3451   99.5675   25.5087 C   0  0  0  0  0  0
   50.0703   98.2502   25.4039 N   0  0  0  0  0  0
   50.3650   97.5026   26.4919 C   0  0  0  0  0  0
   50.8935   98.0453   27.6640 C   0  0  0  0  0  0
   50.0431  100.3464   24.4112 N   0  0  0  0  0  0
   53.3708  104.3179   33.0718 C   0  0  1  0  0  0
   52.3182  104.3404   34.1970 C   0  0  0  0  0  0
   52.2109  105.4614   35.0297 C   0  0  0  0  0  0
   51.2456  105.5095   36.0319 C   0  0  0  0  0  0
   50.3614  104.4481   36.2140 C   0  0  0  0  0  0
   50.4460  103.3343   35.3667 C   0  0  0  0  0  0
   51.4161  103.2814   34.3737 C   0  0  0  0  0  0
   54.6930  104.7024   33.5471 N   0  0  0  0  0  0
   49.4486  104.5722   37.2413 O   0  0  0  0  0  0
   48.5275  103.5137   37.4647 C   0  0  0  0  0  0
   54.6699   99.8656   32.2424 H   0  0  0  0  0  0
   54.8056  101.9947   33.4842 H   0  0  0  0  0  0
   52.0060  103.8216   30.8147 H   0  0  0  0  0  0
   50.0496  102.1868   27.8917 H   0  0  0  0  0  0
   49.9718  102.8741   29.4845 H   0  0  0  0  0  0
   51.2239  103.3918   28.3797 H   0  0  0  0  0  0
   50.1663   96.4444   26.4104 H   0  0  0  0  0  0
   51.1026   97.4157   28.5166 H   0  0  0  0  0  0
   50.1777  101.3415   24.4916 H   0  0  0  0  0  0
   49.4851   99.9585   23.6558 H   0  0  0  0  0  0
   53.0783  105.1030   32.3767 H   0  0  0  0  0  0
   52.8710  106.3058   34.8933 H   0  0  0  0  0  0
   51.1820  106.3773   36.6717 H   0  0  0  0  0  0
   49.7747  102.4949   35.4634 H   0  0  0  0  0  0
   51.4520  102.4016   33.7490 H   0  0  0  0  0  0
   55.2809  104.7682   32.7209 H   0  0  0  0  0  0
   54.6175  105.6520   33.8805 H   0  0  0  0  0  0
   48.0362  103.6928   38.4117 H   0  0  0  0  0  0
   49.0125  102.5419   37.5500 H   0  0  0  0  0  0
   47.7682  103.4753   36.6825 H   0  0  0  0  0  0
  1  5  2  0  0  0
  1  2  1  0  0  0
  1 28  1  0  0  0
  2  3  2  0  0  0
  2 29  1  0  0  0
  3 18  1  0  0  0
  3  4  1  0  0  0
  4  6  2  0  0  0
  4 30  1  0  0  0
  5  9  1  0  0  0
  5  6  1  0  0  0
  6  7  1  0  0  0
  7  8  2  0  0  0
  7 10  1  0  0  0
  8 11  1  0  0  0
  8  9  1  0  0  0
 10 31  1  0  0  0
 10 32  1  0  0  0
 10 33  1  0  0  0
 11 16  1  0  0  0
 11 12  2  0  0  0
 12 13  1  0  0  0
 13 14  2  0  0  0
 13 17  1  0  0  0
 14 15  1  0  0  0
 15 16  2  0  0  0
 15 34  1  0  0  0
 16 35  1  0  0  0
 17 36  1  0  0  0
 17 37  1  0  0  0
 18 19  1  0  0  0
 18 25  1  0  0  0
 18 38  1  0  0  0
 19 20  2  0  0  0
 19 24  1  0  0  0
 20 21  1  0  0  0
 20 39  1  0  0  0
 21 22  2  0  0  0
 21 40  1  0  0  0
 22 23  1  0  0  0
 22 26  1  0  0  0
 23 24  2  0  0  0
 23 41  1  0  0  0
 24 42  1  0  0  0
 25 43  1  0  0  0
 25 44  1  0  0  0
 26 27  1  0  0  0
 27 45  1  0  0  0
 27 46  1  0  0  0
 27 47  1  0  0  0
M  END
> <s_m_entry_id>
28100

> <s_m_entry_name>
dock_pv.261

> <s_m_Source_Path>
/home/csk/Desktop/cluster/DUD-E-result/rock1

> <s_m_Source_File>
dock_pv.maegz

> <i_m_Source_File_Index>
261

> <chembl_id>
CHEMBL1084795

> <chembl_pref_name>
None

> <i_lp_mmshare_version>
53161

> <r_lp_tautomer_probability>
0.999999987636

> <s_lp_Force_Field>
OPLS_2005

> <r_lp_Energy>
11.023837

> <b_lp_Chiralities_Consistent>
1

> <s_lp_Variant>
CHEMBL3231_lig216-2

> <s_i_glide_gridfile>
glide-grid_2etr

> <i_i_glide_lignum>
351

> <i_i_glide_rotatable_bonds>
4

> <r_i_docking_score>
-7.87626476524122

> <r_i_glide_ligand_efficiency>
-0.291713509823749

> <r_i_glide_ligand_efficiency_sa>
-0.875140528509807

> <r_i_glide_ligand_efficiency_ln>
-1.83346458697514

> <r_i_glide_gscore>
-7.87626476524122

> <r_i_glide_lipo>
-1.65237428331047

> <r_i_glide_hbond>
-0.712230029438505

> <r_i_glide_metal>
0

> <r_i_glide_rewards>
-2.4788778029544

> <r_i_glide_evdw>
-44.1395797729492

> <r_i_glide_ecoul>
-7.41748332977295

> <r_i_glide_erotb>
0.28681883857555

> <r_i_glide_esite>
0

> <r_i_glide_emodel>
-74.0898337277023

> <r_i_glide_energy>
-51.5570631027222

> <r_i_glide_einternal>
3.11797475814819

> <i_i_glide_confnum>
6

> <i_i_glide_posenum>
63

> <r_i_glide_eff_state_penalty>
0

> <s_user_duplicate_titles>
CHEMBL3231_lig216,630309

> <i_f3d_flags>
0

> <s_m_subgroup_title>
dock_pv

> <s_m_subgroupid>
dock_pv

> <b_m_subgroup_collapsed>
1

$$$$
CHEMBL3231_lig1358
                    3D
 Schrodinger Suite 2021-1.
 25 27  0  0  1  0            999 V2000
   52.0420  100.7709   30.8878 O   0  0  0  0  0  0
   52.1443  104.7030   32.8313 O   0  0  0  0  0  0
   52.5374  101.5266   31.9558 N   0  0  0  0  0  0
   49.9070   99.4140   25.0174 N   0  0  0  0  0  0
   50.0468   98.0940   25.2172 N   0  0  0  0  0  0
   51.3499  101.0077   28.5447 C   0  0  0  0  0  0
   51.8981  101.5819   29.8087 C   0  0  0  0  0  0
   50.8059   99.1914   27.0474 C   0  0  0  0  0  0
   50.3399  100.1405   26.1073 C   0  0  0  0  0  0
   51.3294   99.6323   28.2773 C   0  0  0  0  0  0
   52.3090  102.8487   30.1747 C   0  0  0  0  0  0
   52.6810  102.7597   31.5144 C   0  0  0  0  0  0
   50.8437  101.9055   27.6048 C   0  0  0  0  0  0
   50.3607  101.5067   26.3634 C   0  0  0  0  0  0
   50.5797   97.9411   26.4024 C   0  0  0  0  0  0
   53.2081  103.8586   32.4209 C   0  0  0  0  0  0
   52.4527  105.6310   32.8111 H   0  0  0  0  0  0
   49.5038   99.7656   24.1576 H   0  0  0  0  0  0
   51.7067   98.9257   29.0024 H   0  0  0  0  0  0
   52.3442  103.7303   29.5536 H   0  0  0  0  0  0
   50.8311  102.9599   27.8388 H   0  0  0  0  0  0
   49.9884  102.2236   25.6534 H   0  0  0  0  0  0
   50.7958   96.9595   26.7894 H   0  0  0  0  0  0
   53.9707  104.4526   31.9146 H   0  0  0  0  0  0
   53.6847  103.4518   33.3145 H   0  0  0  0  0  0
  1  3  1  0  0  0
  1  7  1  0  0  0
  2 16  1  0  0  0
  2 17  1  0  0  0
  3 12  2  0  0  0
  4  5  1  0  0  0
  4  9  1  0  0  0
  4 18  1  0  0  0
  5 15  2  0  0  0
  6  7  1  0  0  0
  6 10  1  0  0  0
  6 13  2  0  0  0
  7 11  2  0  0  0
  8  9  1  0  0  0
  8 10  2  0  0  0
  8 15  1  0  0  0
  9 14  2  0  0  0
 10 19  1  0  0  0
 11 12  1  0  0  0
 11 20  1  0  0  0
 12 16  1  0  0  0
 13 14  1  0  0  0
 13 21  1  0  0  0
 14 22  1  0  0  0
 15 23  1  0  0  0
 16 24  1  0  0  0
 16 25  1  0  0  0
M  END
> <s_m_entry_id>
28101

> <s_m_entry_name>
dock_pv.262

> <s_m_Source_Path>
/home/csk/Desktop/cluster/DUD-E-result/rock1

> <s_m_Source_File>
dock_pv.maegz

> <i_m_Source_File_Index>
262

> <chembl_id>
CHEMBL1974617

> <chembl_pref_name>
None

> <i_lp_mmshare_version>
53161

> <r_lp_tautomer_probability>
0.980392156862745

> <s_lp_Force_Field>
OPLS_2005

> <r_lp_Energy>
4.560892

> <b_lp_Chiralities_Consistent>
1

> <s_lp_Variant>
CHEMBL3231_lig1358-1

> <s_i_glide_gridfile>
glide-grid_2etr

> <i_i_glide_lignum>
1890

> <i_i_glide_rotatable_bonds>
3

> <r_i_docking_score>
-7.87244886044205

> <r_i_glide_ligand_efficiency>
-0.492028053777628

> <r_i_glide_ligand_efficiency_sa>
-1.23983300304063

> <r_i_glide_ligand_efficiency_ln>
-2.08674982619579

> <r_i_glide_gscore>
-7.87244886044205

> <r_i_glide_lipo>
-1.99117300921206

> <r_i_glide_hbond>
-0.596980228339453

> <r_i_glide_metal>
0

> <r_i_glide_rewards>
-3.16816107143034

> <r_i_glide_evdw>
-24.7994632720947

> <r_i_glide_ecoul>
-9.09741401672363

> <r_i_glide_erotb>
0.505636333449867

> <r_i_glide_esite>
-0.01718561879678

> <r_i_glide_emodel>
-51.4902728507904

> <r_i_glide_energy>
-33.8968772888184

> <r_i_glide_einternal>
1.03882598876953

> <i_i_glide_confnum>
1

> <i_i_glide_posenum>
246

> <r_i_glide_eff_state_penalty>
0

> <s_user_duplicate_titles>
CHEMBL3231_lig1358,CHEMBL3231_lig1358

> <i_f3d_flags>
0

> <s_m_subgroup_title>
dock_pv

> <s_m_subgroupid>
dock_pv

> <b_m_subgroup_collapsed>
1

$$$$
CHEMBL3231_lig1984
                    3D
 Schrodinger Suite 2021-1.
 36 39  0  0  1  0            999 V2000
   51.4905  100.1753   28.9359 C   0  0  0  0  0  0
   51.5938   98.7921   28.7353 C   0  0  0  0  0  0
   51.1346   98.1775   27.5705 C   0  0  0  0  0  0
   50.9361  100.9804   27.9329 C   0  0  0  0  0  0
   50.4658  100.3848   26.7544 C   0  0  0  0  0  0
   50.5632   98.9728   26.5693 C   0  0  0  0  0  0
   49.6430   99.7169   24.8112 N   0  0  0  0  0  0
   49.8440  100.8392   25.5706 C   0  0  0  0  0  0
   51.9091  100.8052   30.2355 C   0  0  0  0  0  0
   52.0427  100.0533   31.3197 N   0  0  0  0  0  0
   52.1448  102.1669   30.4649 C   0  0  0  0  0  0
   52.4809  102.4480   32.1494 S   0  0  0  0  0  0
   52.3086  100.7368   32.4034 C   0  0  0  0  0  0
   52.6078  100.7848   34.9407 C   0  0  0  0  0  0
   51.3933  101.6059   35.3714 C   0  0  0  0  0  0
   50.0932  101.1164   35.1947 C   0  0  0  0  0  0
   49.0008  101.8722   35.6118 C   0  0  0  0  0  0
   49.2094  103.1036   36.2297 C   0  0  0  0  0  0
   50.5005  103.5847   36.4371 C   0  0  0  0  0  0
   51.5942  102.8315   36.0143 C   0  0  0  0  0  0
   50.0434   98.5629   25.3702 N   0  0  0  0  0  0
   52.4454  100.1442   33.6366 N   0  0  0  0  0  0
   52.0213   98.1672   29.5072 H   0  0  0  0  0  0
   51.2113   97.1054   27.4529 H   0  0  0  0  0  0
   50.8419  102.0471   28.0697 H   0  0  0  0  0  0
   49.5236  101.8047   25.2130 H   0  0  0  0  0  0
   52.1302  102.9859   29.7636 H   0  0  0  0  0  0
   53.5138  101.3936   34.9219 H   0  0  0  0  0  0
   52.7763  100.0076   35.6870 H   0  0  0  0  0  0
   49.9262  100.1577   34.7265 H   0  0  0  0  0  0
   47.9966  101.5027   35.4698 H   0  0  0  0  0  0
   48.3575  103.6845   36.5563 H   0  0  0  0  0  0
   50.6539  104.5382   36.9205 H   0  0  0  0  0  0
   52.5925  103.2050   36.1818 H   0  0  0  0  0  0
   49.2131   99.7358   23.8888 H   0  0  0  0  0  0
   52.6694   99.1605   33.6604 H   0  0  0  0  0  0
  1  2  1  0  0  0
  1  9  1  0  0  0
  1  4  2  0  0  0
  2  3  2  0  0  0
  2 23  1  0  0  0
  3  6  1  0  0  0
  3 24  1  0  0  0
  4 25  1  0  0  0
  4  5  1  0  0  0
  5  6  1  0  0  0
  5  8  2  0  0  0
  6 21  2  0  0  0
  7 35  1  0  0  0
  7 21  1  0  0  0
  7  8  1  0  0  0
  8 26  1  0  0  0
  9 10  1  0  0  0
  9 11  2  0  0  0
 10 13  2  0  0  0
 11 12  1  0  0  0
 11 27  1  0  0  0
 12 13  1  0  0  0
 13 22  1  0  0  0
 14 15  1  0  0  0
 14 22  1  0  0  0
 14 28  1  0  0  0
 14 29  1  0  0  0
 15 16  2  0  0  0
 15 20  1  0  0  0
 16 17  1  0  0  0
 16 30  1  0  0  0
 17 18  2  0  0  0
 17 31  1  0  0  0
 18 19  1  0  0  0
 18 32  1  0  0  0
 19 20  2  0  0  0
 19 33  1  0  0  0
 20 34  1  0  0  0
 22 36  1  0  0  0
M  END
> <s_m_entry_id>
28102

> <s_m_entry_name>
dock_pv.263

> <s_m_Source_Path>
/home/csk/Desktop/cluster/DUD-E-result/rock1

> <s_m_Source_File>
dock_pv.maegz

> <i_m_Source_File_Index>
263

> <chembl_id>
CHEMBL1682546

> <chembl_pref_name>
None

> <i_lp_mmshare_version>
53161

> <r_lp_tautomer_probability>
0.0196078431372549

> <s_lp_Force_Field>
OPLS_2005

> <r_lp_Energy>
21.464582

> <b_lp_Chiralities_Consistent>
1

> <s_lp_Variant>
CHEMBL3231_lig1984-2

> <s_i_glide_gridfile>
glide-grid_2etr

> <i_i_glide_lignum>
2889

> <i_i_glide_rotatable_bonds>
4

> <r_i_docking_score>
-7.87199760846647

> <r_i_glide_ligand_efficiency>
-0.357818073112112

> <r_i_glide_ligand_efficiency_sa>
-1.00262031304642

> <r_i_glide_ligand_efficiency_ln>
-1.92420335359864

> <r_i_glide_gscore>
-7.87199760846647

> <r_i_glide_lipo>
-3.2266598484342

> <r_i_glide_hbond>
-0.333218758955684

> <r_i_glide_metal>
0

> <r_i_glide_rewards>
-2.60676307575758

> <r_i_glide_evdw>
-39.0315551757812

> <r_i_glide_ecoul>
-3.60571980476379

> <r_i_glide_erotb>
0.787079804184623

> <r_i_glide_esite>
0

> <r_i_glide_emodel>
-62.1998661446041

> <r_i_glide_energy>
-42.637274980545

> <r_i_glide_einternal>
1.84438514709473

> <i_i_glide_confnum>
8

> <i_i_glide_posenum>
176

> <r_i_glide_eff_state_penalty>
0

> <s_user_duplicate_titles>
CHEMBL3231_lig1984,CHEMBL3231_lig1984

> <i_f3d_flags>
0

> <s_m_subgroup_title>
dock_pv

> <s_m_subgroupid>
dock_pv

> <b_m_subgroup_collapsed>
1

$$$$
CHEMBL3231_lig481
                    3D
 Schrodinger Suite 2021-1.
 42 45  0  0  1  0            999 V2000
   54.3412  102.9504   33.3090 C   0  0  0  0  0  0
   54.9566  101.9175   34.0101 C   0  0  0  0  0  0
   54.8429  100.5971   33.5795 C   0  0  0  0  0  0
   53.5831  102.6812   32.1734 C   0  0  0  0  0  0
   53.4325  101.3497   31.7177 C   0  0  0  0  0  0
   54.0773  100.2856   32.4212 C   0  0  0  0  0  0
   53.8980   98.9786   31.8753 C   0  0  0  0  0  0
   53.1283   98.7614   30.7769 N   0  0  0  0  0  0
   52.5649   99.8386   30.1785 C   0  0  0  0  0  0
   52.6819  101.1236   30.6048 N   0  0  0  0  0  0
   51.8135   99.5970   28.9055 C   0  0  0  0  0  0
   51.7070  100.6171   27.9483 C   0  0  0  0  0  0
   50.5968   98.0717   27.4200 C   0  0  0  0  0  0
   51.2429   98.3452   28.6248 C   0  0  0  0  0  0
   50.5194   99.0785   26.4568 C   0  0  0  0  0  0
   51.0816  100.3595   26.7230 C   0  0  0  0  0  0
   50.8434  101.0870   25.5372 C   0  0  0  0  0  0
   50.1519  100.2279   24.7182 N   0  0  0  0  0  0
   49.9506   98.9990   25.2165 N   0  0  0  0  0  0
   54.5457   97.8682   32.4558 N   0  0  0  0  0  0
   54.6096   96.5974   31.7351 C   0  0  0  0  0  0
   55.3885   95.4934   32.4757 C   0  0  0  0  0  0
   54.6607   94.8385   33.6653 C   0  0  0  0  0  0
   53.6430   93.9031   33.2112 N   0  0  0  0  0  0
   54.4561  103.9714   33.6432 H   0  0  0  0  0  0
   55.5471  102.1422   34.8867 H   0  0  0  0  0  0
   55.3425   99.8100   34.1255 H   0  0  0  0  0  0
   53.1163  103.4878   31.6268 H   0  0  0  0  0  0
   52.1472  101.5868   28.1278 H   0  0  0  0  0  0
   50.1746   97.1030   27.2244 H   0  0  0  0  0  0
   51.3062   97.5516   29.3557 H   0  0  0  0  0  0
   51.0992  102.0823   25.2115 H   0  0  0  0  0  0
   49.8227  100.4677   23.7907 H   0  0  0  0  0  0
   55.3564   98.0954   33.0140 H   0  0  0  0  0  0
   55.0600   96.7653   30.7544 H   0  0  0  0  0  0
   53.5867   96.2883   31.5234 H   0  0  0  0  0  0
   56.3302   95.9158   32.8316 H   0  0  0  0  0  0
   55.6884   94.7219   31.7636 H   0  0  0  0  0  0
   54.2192   95.5892   34.3230 H   0  0  0  0  0  0
   55.3833   94.2815   34.2649 H   0  0  0  0  0  0
   53.3072   93.3498   33.9902 H   0  0  0  0  0  0
   52.8195   94.3941   32.8550 H   0  0  0  0  0  0
  1  2  2  0  0  0
  1  4  1  0  0  0
  1 25  1  0  0  0
  2  3  1  0  0  0
  2 26  1  0  0  0
  3  6  2  0  0  0
  3 27  1  0  0  0
  4  5  2  0  0  0
  4 28  1  0  0  0
  5  6  1  0  0  0
  5 10  1  0  0  0
  6  7  1  0  0  0
  7  8  2  0  0  0
  7 20  1  0  0  0
  8  9  1  0  0  0
  9 10  2  0  0  0
  9 11  1  0  0  0
 11 14  1  0  0  0
 11 12  2  0  0  0
 12 29  1  0  0  0
 12 16  1  0  0  0
 13 15  1  0  0  0
 13 30  1  0  0  0
 13 14  2  0  0  0
 14 31  1  0  0  0
 15 19  2  0  0  0
 15 16  1  0  0  0
 16 17  2  0  0  0
 17 18  1  0  0  0
 17 32  1  0  0  0
 18 33  1  0  0  0
 18 19  1  0  0  0
 20 21  1  0  0  0
 20 34  1  0  0  0
 21 22  1  0  0  0
 21 35  1  0  0  0
 21 36  1  0  0  0
 22 23  1  0  0  0
 22 37  1  0  0  0
 22 38  1  0  0  0
 23 24  1  0  0  0
 23 39  1  0  0  0
 23 40  1  0  0  0
 24 41  1  0  0  0
 24 42  1  0  0  0
M  END
> <s_m_entry_id>
28103

> <s_m_entry_name>
dock_pv.264

> <s_m_Source_Path>
/home/csk/Desktop/cluster/DUD-E-result/rock1

> <s_m_Source_File>
dock_pv.maegz

> <i_m_Source_File_Index>
264

> <chembl_id>
CHEMBL3338843

> <chembl_pref_name>
None

> <i_lp_mmshare_version>
53161

> <r_lp_tautomer_probability>
0.0196074202274607

> <s_lp_Force_Field>
OPLS_2005

> <r_lp_Energy>
31.487716

> <b_lp_Chiralities_Consistent>
1

> <s_lp_Variant>
CHEMBL3231_lig481-2

> <s_i_glide_gridfile>
glide-grid_2etr

> <i_i_glide_lignum>
680

> <i_i_glide_rotatable_bonds>
5

> <r_i_docking_score>
-7.87113858306651

> <r_i_glide_ligand_efficiency>
-0.327964107627771

> <r_i_glide_ligand_efficiency_sa>
-0.946012185602652

> <r_i_glide_ligand_efficiency_ln>
-1.88392464594239

> <r_i_glide_gscore>
-7.87113858306651

> <r_i_glide_lipo>
-2.06334023328819

> <r_i_glide_hbond>
-0.552433745630848

> <r_i_glide_metal>
0

> <r_i_glide_rewards>
-2.76292890768675

> <r_i_glide_evdw>
-38.290843963623

> <r_i_glide_ecoul>
-8.50619506835938

> <r_i_glide_erotb>
0.73573202898566

> <r_i_glide_esite>
-0.0376962670113212

> <r_i_glide_emodel>
-65.5240174864071

> <r_i_glide_energy>
-46.7970390319824

> <r_i_glide_einternal>
6.31194686889648

> <i_i_glide_confnum>
17

> <i_i_glide_posenum>
330

> <r_i_glide_eff_state_penalty>
0

> <s_user_duplicate_titles>
CHEMBL3231_lig481,CHEMBL3231_lig481

> <i_f3d_flags>
0

> <s_m_subgroup_title>
dock_pv

> <s_m_subgroupid>
dock_pv

> <b_m_subgroup_collapsed>
1

$$$$
CHEMBL3231_lig243
                    3D
 Schrodinger Suite 2021-1.
 37 39  0  0  1  0            999 V2000
   50.0430   98.6211   25.4734 N   0  0  0  0  0  0
   50.6294   97.8051   26.3768 C   0  0  0  0  0  0
   51.1712   98.2497   27.5817 C   0  0  0  0  0  0
   49.9706   99.9387   25.7657 C   0  0  0  0  0  0
   50.5024  100.5177   26.9586 C   0  0  0  0  0  0
   51.1177   99.6301   27.8922 C   0  0  0  0  0  0
   51.6425  100.1452   29.1045 C   0  0  0  0  0  0
   51.5601  101.5136   29.3976 C   0  0  0  0  0  0
   50.9666  102.3726   28.4749 C   0  0  0  0  0  0
   50.4494  101.9017   27.2729 C   0  0  0  0  0  0
   49.3035  100.7030   24.8110 N   0  0  0  0  0  0
   52.0683  102.1188   30.7088 C   0  0  0  0  0  0
   52.8169  101.2012   31.5666 N   0  0  2  0  0  0
   53.1079  101.7839   32.8766 C   0  0  0  0  0  0
   51.8734  101.9027   33.7683 C   0  0  0  0  0  0
   51.4095  103.1625   34.1581 C   0  0  0  0  0  0
   50.2944  103.2683   34.9868 C   0  0  0  0  0  0
   49.6506  102.1157   35.4327 C   0  0  0  0  0  0
   50.1164  100.8562   35.0587 C   0  0  0  0  0  0
   51.2281  100.7490   34.2246 C   0  0  0  0  0  0
   50.6651   96.7566   26.1193 H   0  0  0  0  0  0
   51.6259   97.5570   28.2731 H   0  0  0  0  0  0
   52.0922   99.4570   29.8047 H   0  0  0  0  0  0
   50.9095  103.4297   28.6895 H   0  0  0  0  0  0
   50.0161  102.5995   26.5737 H   0  0  0  0  0  0
   49.2426  101.7020   24.9321 H   0  0  0  0  0  0
   49.0395  100.2788   23.9244 H   0  0  0  0  0  0
   52.7075  102.9690   30.4618 H   0  0  0  0  0  0
   51.1973  102.5040   31.2434 H   0  0  0  0  0  0
   53.7008  100.9753   31.1234 H   0  0  0  0  0  0
   53.8302  101.1442   33.3865 H   0  0  0  0  0  0
   53.5944  102.7530   32.7426 H   0  0  0  0  0  0
   51.9146  104.0584   33.8232 H   0  0  0  0  0  0
   49.9331  104.2413   35.2912 H   0  0  0  0  0  0
   48.7873  102.1944   36.0789 H   0  0  0  0  0  0
   49.6153   99.9665   35.4096 H   0  0  0  0  0  0
   51.5905   99.7749   33.9308 H   0  0  0  0  0  0
  1  2  2  0  0  0
  1  4  1  0  0  0
  2  3  1  0  0  0
  2 21  1  0  0  0
  3  6  2  0  0  0
  3 22  1  0  0  0
  4 11  1  0  0  0
  4  5  2  0  0  0
  5 10  1  0  0  0
  5  6  1  0  0  0
  6  7  1  0  0  0
  7  8  2  0  0  0
  7 23  1  0  0  0
  8 12  1  0  0  0
  8  9  1  0  0  0
  9 10  2  0  0  0
  9 24  1  0  0  0
 10 25  1  0  0  0
 11 26  1  0  0  0
 11 27  1  0  0  0
 12 13  1  0  0  0
 12 28  1  0  0  0
 12 29  1  0  0  0
 13 14  1  0  0  0
 13 30  1  0  0  0
 14 15  1  0  0  0
 14 31  1  0  0  0
 14 32  1  0  0  0
 15 16  2  0  0  0
 15 20  1  0  0  0
 16 17  1  0  0  0
 16 33  1  0  0  0
 17 18  2  0  0  0
 17 34  1  0  0  0
 18 19  1  0  0  0
 18 35  1  0  0  0
 19 20  2  0  0  0
 19 36  1  0  0  0
 20 37  1  0  0  0
M  END
> <s_m_entry_id>
28104

> <s_m_entry_name>
dock_pv.265

> <s_m_Source_Path>
/home/csk/Desktop/cluster/DUD-E-result/rock1

> <s_m_Source_File>
dock_pv.maegz

> <i_m_Source_File_Index>
265

> <chembl_id>
CHEMBL1643367

> <chembl_pref_name>
None

> <i_lp_mmshare_version>
53161

> <r_lp_tautomer_probability>
1

> <s_lp_Force_Field>
OPLS_2005

> <r_lp_Energy>
14.58893

> <b_lp_Chiralities_Consistent>
1

> <s_lp_Variant>
CHEMBL3231_lig243-1

> <s_i_glide_gridfile>
glide-grid_2etr

> <i_i_glide_lignum>
387

> <i_i_glide_rotatable_bonds>
4

> <r_i_docking_score>
-7.86928411012367

> <r_i_glide_ligand_efficiency>
-0.393464205506183

> <r_i_glide_ligand_efficiency_sa>
-1.068026169859

> <r_i_glide_ligand_efficiency_ln>
-1.96942226640334

> <r_i_glide_gscore>
-7.86928411012367

> <r_i_glide_lipo>
-3.02324042209073

> <r_i_glide_hbond>
-0.32

> <r_i_glide_metal>
0

> <r_i_glide_rewards>
-2.90527816666667

> <r_i_glide_evdw>
-34.2626876831055

> <r_i_glide_ecoul>
-4.50544166564941

> <r_i_glide_erotb>
0.768185112636409

> <r_i_glide_esite>
0

> <r_i_glide_emodel>
-56.07038430442

> <r_i_glide_energy>
-38.7681293487549

> <r_i_glide_einternal>
1.74574339389801

> <i_i_glide_confnum>
2

> <i_i_glide_posenum>
388

> <r_i_glide_eff_state_penalty>
0

> <s_user_duplicate_titles>
CHEMBL3231_lig243

> <i_f3d_flags>
0

> <s_m_subgroup_title>
dock_pv

> <s_m_subgroupid>
dock_pv

> <b_m_subgroup_collapsed>
1

$$$$
CHEMBL3231_lig347
                    3D
 Schrodinger Suite 2021-1.
 64 68  0  0  1  0            999 V2000
   50.8438  102.0205   28.5086 C   0  0  0  0  0  0
   51.1816  100.7340   28.0762 C   0  0  0  0  0  0
   52.0568   99.9381   28.8204 C   0  0  0  0  0  0
   51.3606  102.5541   29.6925 C   0  0  0  0  0  0
   52.2441  101.7822   30.4667 C   0  0  0  0  0  0
   52.5816  100.4825   29.9958 C   0  0  0  0  0  0
   53.4597   99.9556   30.9032 N   0  0  0  0  0  0
   53.6998  100.8312   31.9408 C   0  0  0  0  0  0
   52.9313  101.9865   31.7208 C   0  0  0  0  0  0
   50.6279  100.1876   26.8034 C   0  0  0  0  0  0
   50.0435  100.8787   25.7553 C   0  0  0  0  0  0
   49.7056   99.9424   24.8167 N   0  0  0  0  0  0
   50.0307   98.7007   25.1832 N   0  0  0  0  0  0
   50.5765   98.8487   26.3654 C   0  0  0  0  0  0
   54.4740  100.4360   33.0987 C   0  0  0  0  0  0
   54.2153  100.8669   34.2235 O   0  0  0  0  0  0
   55.4102   99.4972   32.8566 N   0  0  0  0  0  0
   56.0696   98.6745   33.8679 C   0  0  0  0  0  0
   55.4129   97.3005   33.9625 C   0  0  0  0  0  0
   55.8312   96.2561   33.1273 C   0  0  0  0  0  0
   55.2362   94.9840   33.2061 C   0  0  0  0  0  0
   54.2219   94.7759   34.1429 C   0  0  0  0  0  0
   53.8129   95.8029   34.9931 C   0  0  0  0  0  0
   54.4085   97.0614   34.9049 C   0  0  0  0  0  0
   55.5817   93.9042   32.4121 O   0  0  0  0  0  0
   56.6670   94.0462   31.4984 C   0  0  0  0  0  0
   52.8201  103.2358   32.5948 C   0  0  0  0  0  0
   51.5446  103.3888   33.3225 N   0  0  2  0  0  0
   50.3064  104.1709   36.2089 C   0  0  0  0  0  0
   50.3895  105.0603   34.9645 C   0  0  0  0  0  0
   51.5400  104.6908   34.0092 C   0  0  0  0  0  0
   49.6124  102.9033   36.0475 N   0  0  1  0  0  0
   49.8356  102.1236   34.8343 C   0  0  0  0  0  0
   51.1932  102.1827   34.0996 C   0  0  0  0  0  0
   50.1696  102.6203   27.9184 H   0  0  0  0  0  0
   52.3370   98.9473   28.4935 H   0  0  0  0  0  0
   51.0853  103.5466   30.0077 H   0  0  0  0  0  0
   53.8797   99.0366   30.8753 H   0  0  0  0  0  0
   49.8399  101.9283   25.6106 H   0  0  0  0  0  0
   49.2595  100.1365   23.9249 H   0  0  0  0  0  0
   50.9387   97.9920   26.9135 H   0  0  0  0  0  0
   55.7639   99.3824   31.9160 H   0  0  0  0  0  0
   56.0570   99.1493   34.8522 H   0  0  0  0  0  0
   57.1247   98.5621   33.6094 H   0  0  0  0  0  0
   56.6156   96.4494   32.4113 H   0  0  0  0  0  0
   53.7513   93.8046   34.2165 H   0  0  0  0  0  0
   53.0354   95.6239   35.7184 H   0  0  0  0  0  0
   54.0848   97.8526   35.5621 H   0  0  0  0  0  0
   56.8470   93.0996   30.9923 H   0  0  0  0  0  0
   56.4498   94.7939   30.7336 H   0  0  0  0  0  0
   57.5904   94.3223   32.0116 H   0  0  0  0  0  0
   53.6423  103.2613   33.3113 H   0  0  0  0  0  0
   52.9674  104.1088   31.9586 H   0  0  0  0  0  0
   51.3226  103.9150   36.5177 H   0  0  0  0  0  0
   49.8827  104.7117   37.0560 H   0  0  0  0  0  0
   50.5218  106.0951   35.2780 H   0  0  0  0  0  0
   49.4515  105.0118   34.4117 H   0  0  0  0  0  0
   52.4518  104.7256   34.6103 H   0  0  0  0  0  0
   51.6472  105.4925   33.2753 H   0  0  0  0  0  0
   49.8131  102.3133   36.8438 H   0  0  0  0  0  0
   49.0841  102.4219   34.1019 H   0  0  0  0  0  0
   49.5650  101.0820   35.0186 H   0  0  0  0  0  0
   51.2871  101.2699   33.5097 H   0  0  0  0  0  0
   51.9387  102.0585   34.8881 H   0  0  0  0  0  0
  1  4  1  0  0  0
  1  2  2  0  0  0
  1 35  1  0  0  0
  2 10  1  0  0  0
  2  3  1  0  0  0
  3  6  2  0  0  0
  3 36  1  0  0  0
  4  5  2  0  0  0
  4 37  1  0  0  0
  5  9  1  0  0  0
  5  6  1  0  0  0
  6  7  1  0  0  0
  7  8  1  0  0  0
  7 38  1  0  0  0
  8  9  2  0  0  0
  8 15  1  0  0  0
  9 27  1  0  0  0
 10 11  2  0  0  0
 10 14  1  0  0  0
 11 12  1  0  0  0
 11 39  1  0  0  0
 12 13  1  0  0  0
 12 40  1  0  0  0
 13 14  2  0  0  0
 14 41  1  0  0  0
 15 16  2  0  0  0
 15 17  1  0  0  0
 17 18  1  0  0  0
 17 42  1  0  0  0
 18 19  1  0  0  0
 18 43  1  0  0  0
 18 44  1  0  0  0
 19 20  2  0  0  0
 19 24  1  0  0  0
 20 21  1  0  0  0
 20 45  1  0  0  0
 21 22  2  0  0  0
 21 25  1  0  0  0
 22 23  1  0  0  0
 22 46  1  0  0  0
 23 24  2  0  0  0
 23 47  1  0  0  0
 24 48  1  0  0  0
 25 26  1  0  0  0
 26 49  1  0  0  0
 26 50  1  0  0  0
 26 51  1  0  0  0
 27 28  1  0  0  0
 27 52  1  0  0  0
 27 53  1  0  0  0
 28 34  1  0  0  0
 28 31  1  0  0  0
 29 30  1  0  0  0
 29 32  1  0  0  0
 29 54  1  0  0  0
 29 55  1  0  0  0
 30 31  1  0  0  0
 30 56  1  0  0  0
 30 57  1  0  0  0
 31 58  1  0  0  0
 31 59  1  0  0  0
 32 33  1  0  0  0
 32 60  1  0  0  0
 33 34  1  0  0  0
 33 61  1  0  0  0
 33 62  1  0  0  0
 34 63  1  0  0  0
 34 64  1  0  0  0
M  END
> <s_m_entry_id>
28105

> <s_m_entry_name>
dock_pv.266

> <s_m_Source_Path>
/home/csk/Desktop/cluster/DUD-E-result/rock1

> <s_m_Source_File>
dock_pv.maegz

> <i_m_Source_File_Index>
266

> <chembl_id>
CHEMBL1922141

> <chembl_pref_name>
None

> <i_lp_mmshare_version>
53161

> <r_lp_tautomer_probability>
0.5

> <s_lp_Force_Field>
OPLS_2005

> <r_lp_Energy>
45.412795

> <b_lp_Chiralities_Consistent>
1

> <s_lp_Variant>
CHEMBL3231_lig347-1

> <s_i_glide_gridfile>
glide-grid_2etr

> <i_i_glide_lignum>
495

> <i_i_glide_rotatable_bonds>
8

> <r_i_docking_score>
-7.85672800252427

> <r_i_glide_ligand_efficiency>
-0.231080235368361

> <r_i_glide_ligand_efficiency_sa>
-0.748610256661364

> <r_i_glide_ligand_efficiency_ln>
-1.73577158951353

> <r_i_glide_gscore>
-7.85672800252427

> <r_i_glide_lipo>
-2.34764411276016

> <r_i_glide_hbond>
-0.585977214483853

> <r_i_glide_metal>
0

> <r_i_glide_rewards>
-1.40912146984423

> <r_i_glide_evdw>
-52.8503379821777

> <r_i_glide_ecoul>
-8.24552631378174

> <r_i_glide_erotb>
0.468709868421079

> <r_i_glide_esite>
-0.103349227680957

> <r_i_glide_emodel>
-86.5195623771224

> <r_i_glide_energy>
-61.0958642959595

> <r_i_glide_einternal>
9.52220439910889

> <i_i_glide_confnum>
35

> <i_i_glide_posenum>
41

> <r_i_glide_eff_state_penalty>
0

> <s_user_duplicate_titles>
CHEMBL3231_lig347

> <i_f3d_flags>
0

> <s_m_subgroup_title>
dock_pv

> <s_m_subgroupid>
dock_pv

> <b_m_subgroup_collapsed>
1

$$$$
CHEMBL3231_lig729
                    3D
 Schrodinger Suite 2021-1.
 43 45  0  0  1  0            999 V2000
   51.2488   97.3055   30.3767 C   0  0  0  0  0  0
   51.2427   98.1079   29.1987 O   0  0  0  0  0  0
   51.5290   99.4583   29.2779 C   0  0  0  0  0  0
   52.0677  100.0414   30.4354 C   0  0  0  0  0  0
   52.3211  101.4164   30.5291 C   0  0  0  0  0  0
   52.0096  102.2202   29.4256 C   0  0  0  0  0  0
   51.4770  101.6541   28.2695 C   0  0  0  0  0  0
   51.2444  100.2772   28.1667 C   0  0  0  0  0  0
   50.6845   99.7591   26.8661 C   0  0  0  0  0  0
   50.1568  100.4840   25.7988 C   0  0  0  0  0  0
   49.7979   99.5768   24.8394 N   0  0  0  0  0  0
   50.0429   98.3201   25.2108 N   0  0  0  0  0  0
   50.5756   98.4323   26.4039 C   0  0  0  0  0  0
   52.8796  101.9825   31.8187 C   0  0  0  0  0  0
   52.8993  101.2849   32.8344 O   0  0  0  0  0  0
   53.3353  103.2547   31.8041 N   0  0  0  0  0  0
   53.8924  103.9899   32.9552 C   0  0  2  0  0  0
   55.2952  103.4619   33.3268 C   0  0  0  0  0  0
   52.9101  104.1007   34.1377 C   0  0  0  0  0  0
   52.8879  103.2655   35.2075 C   0  0  0  0  0  0
   51.8419  103.4439   36.2009 C   0  0  0  0  0  0
   50.9221  104.4219   36.0216 C   0  0  0  0  0  0
   50.9260  105.3004   34.8566 C   0  0  0  0  0  0
   50.0439  106.1218   34.6128 O   0  0  0  0  0  0
   51.9736  105.1030   34.0112 N   0  0  0  0  0  0
   50.9164   96.3012   30.1187 H   0  0  0  0  0  0
   52.2472   97.2199   30.8088 H   0  0  0  0  0  0
   50.5620   97.6933   31.1311 H   0  0  0  0  0  0
   52.2996   99.4181   31.2855 H   0  0  0  0  0  0
   52.1721  103.2890   29.4437 H   0  0  0  0  0  0
   51.2435  102.3031   27.4415 H   0  0  0  0  0  0
   50.0036  101.5411   25.6364 H   0  0  0  0  0  0
   49.3794   99.8075   23.9429 H   0  0  0  0  0  0
   50.8879   97.5472   26.9342 H   0  0  0  0  0  0
   53.4154  103.7154   30.9111 H   0  0  0  0  0  0
   54.0591  105.0102   32.5981 H   0  0  0  0  0  0
   55.7422  104.0571   34.1222 H   0  0  0  0  0  0
   55.2705  102.4256   33.6629 H   0  0  0  0  0  0
   55.9697  103.5034   32.4712 H   0  0  0  0  0  0
   53.5907  102.4494   35.2943 H   0  0  0  0  0  0
   51.8064  102.8048   37.0728 H   0  0  0  0  0  0
   50.1434  104.5699   36.7535 H   0  0  0  0  0  0
   52.0433  105.7771   33.2535 H   0  0  0  0  0  0
  1  2  1  0  0  0
  1 26  1  0  0  0
  1 27  1  0  0  0
  1 28  1  0  0  0
  2  3  1  0  0  0
  3  4  2  0  0  0
  3  8  1  0  0  0
  4  5  1  0  0  0
  4 29  1  0  0  0
  5  6  2  0  0  0
  5 14  1  0  0  0
  6  7  1  0  0  0
  6 30  1  0  0  0
  7  8  2  0  0  0
  7 31  1  0  0  0
  8  9  1  0  0  0
  9 10  2  0  0  0
  9 13  1  0  0  0
 10 11  1  0  0  0
 10 32  1  0  0  0
 11 12  1  0  0  0
 11 33  1  0  0  0
 12 13  2  0  0  0
 13 34  1  0  0  0
 14 15  2  0  0  0
 14 16  1  0  0  0
 16 17  1  0  0  0
 16 35  1  0  0  0
 17 18  1  0  0  0
 17 36  1  0  0  0
 17 19  1  0  0  0
 18 37  1  0  0  0
 18 38  1  0  0  0
 18 39  1  0  0  0
 19 25  1  0  0  0
 19 20  2  0  0  0
 20 40  1  0  0  0
 20 21  1  0  0  0
 21 41  1  0  0  0
 21 22  2  0  0  0
 22 23  1  0  0  0
 22 42  1  0  0  0
 23 24  2  0  0  0
 23 25  1  0  0  0
 25 43  1  0  0  0
M  END
> <s_m_entry_id>
28106

> <s_m_entry_name>
dock_pv.267

> <s_m_Source_Path>
/home/csk/Desktop/cluster/DUD-E-result/rock1

> <s_m_Source_File>
dock_pv.maegz

> <i_m_Source_File_Index>
267

> <chembl_id>
CHEMBL3965517

> <chembl_pref_name>
None

> <i_lp_mmshare_version>
53161

> <r_lp_tautomer_probability>
0.4995

> <s_lp_Force_Field>
OPLS_2005

> <r_lp_Energy>
25.17917

> <b_lp_Chiralities_Consistent>
1

> <s_lp_Variant>
CHEMBL3231_lig729-1

> <s_i_glide_gridfile>
glide-grid_2etr

> <i_i_glide_lignum>
1036

> <i_i_glide_rotatable_bonds>
6

> <r_i_docking_score>
-7.8560589942723

> <r_i_glide_ligand_efficiency>
-0.314242359770892

> <r_i_glide_ligand_efficiency_sa>
-0.918850233082069

> <r_i_glide_ligand_efficiency_ln>
-1.86212140873279

> <r_i_glide_gscore>
-7.8560589942723

> <r_i_glide_lipo>
-1.84973035361993

> <r_i_glide_hbond>
-0.716683295184701

> <r_i_glide_metal>
0

> <r_i_glide_rewards>
-2.05550923108088

> <r_i_glide_evdw>
-39.9856758117676

> <r_i_glide_ecoul>
-10.3515977859497

> <r_i_glide_erotb>
0.462501343402672

> <r_i_glide_esite>
-0.144613999308629

> <r_i_glide_emodel>
-73.8593630281091

> <r_i_glide_energy>
-50.3372735977173

> <r_i_glide_einternal>
2.26631140708923

> <i_i_glide_confnum>
4

> <i_i_glide_posenum>
397

> <r_i_glide_eff_state_penalty>
0

> <s_user_duplicate_titles>
CHEMBL3231_lig729

> <i_f3d_flags>
0

> <s_m_subgroup_title>
dock_pv

> <s_m_subgroupid>
dock_pv

> <b_m_subgroup_collapsed>
1

$$$$
CHEMBL3231_lig642
                    3D
 Schrodinger Suite 2021-1.
 43 45  0  0  1  0            999 V2000
   50.3118  104.3235   27.6283 C   0  0  0  0  0  0
   50.4406  102.9213   27.3988 O   0  0  0  0  0  0
   50.9602  102.0976   28.3773 C   0  0  0  0  0  0
   51.3754  102.6062   29.6138 C   0  0  0  0  0  0
   51.9122  101.7902   30.6083 C   0  0  0  0  0  0
   52.0565  100.4226   30.3365 C   0  0  0  0  0  0
   51.6446   99.8980   29.1096 C   0  0  0  0  0  0
   51.0779  100.7155   28.1199 C   0  0  0  0  0  0
   50.6008  100.0791   26.8340 C   0  0  0  0  0  0
   50.5501   98.7121   26.4803 C   0  0  0  0  0  0
   50.0469   98.4801   25.2865 N   0  0  0  0  0  0
   49.7655   99.6930   24.8129 N   0  0  0  0  0  0
   50.0757  100.6860   25.6972 C   0  0  0  0  0  0
   52.2471  102.4075   31.9467 C   0  0  0  0  0  0
   51.7562  103.4978   32.2615 O   0  0  0  0  0  0
   53.0480  101.7023   32.7706 N   0  0  0  0  0  0
   53.3637  102.0668   34.1626 C   0  0  1  0  0  0
   54.4082  103.2056   34.2092 C   0  0  0  0  0  0
   52.1052  102.2862   35.0332 C   0  0  0  0  0  0
   51.0479  101.3711   34.9334 C   0  0  0  0  0  0
   49.8523  101.5841   35.6099 C   0  0  0  0  0  0
   48.8429  100.7030   35.4710 F   0  0  0  0  0  0
   49.6962  102.7035   36.4207 C   0  0  0  0  0  0
   50.7454  103.6085   36.5588 C   0  0  0  0  0  0
   50.5981  104.6880   37.3594 F   0  0  0  0  0  0
   51.9416  103.4049   35.8675 C   0  0  0  0  0  0
   50.0507  104.8241   26.6965 H   0  0  0  0  0  0
   49.5245  104.5304   28.3544 H   0  0  0  0  0  0
   51.2414  104.7670   27.9803 H   0  0  0  0  0  0
   51.2753  103.6584   29.8256 H   0  0  0  0  0  0
   52.4609   99.7448   31.0748 H   0  0  0  0  0  0
   51.7605   98.8375   28.9454 H   0  0  0  0  0  0
   50.8697   97.8876   27.1003 H   0  0  0  0  0  0
   49.3517   99.8399   23.8961 H   0  0  0  0  0  0
   49.8776  101.7158   25.4469 H   0  0  0  0  0  0
   53.5452  100.9129   32.3871 H   0  0  0  0  0  0
   53.8532  101.1907   34.5931 H   0  0  0  0  0  0
   54.7902  103.3584   35.2188 H   0  0  0  0  0  0
   55.2669  102.9750   33.5772 H   0  0  0  0  0  0
   53.9920  104.1500   33.8545 H   0  0  0  0  0  0
   51.1380  100.5019   34.2987 H   0  0  0  0  0  0
   48.7670  102.8606   36.9483 H   0  0  0  0  0  0
   52.7222  104.1423   35.9733 H   0  0  0  0  0  0
  1  2  1  0  0  0
  1 27  1  0  0  0
  1 28  1  0  0  0
  1 29  1  0  0  0
  2  3  1  0  0  0
  3  4  2  0  0  0
  3  8  1  0  0  0
  4  5  1  0  0  0
  4 30  1  0  0  0
  5  6  2  0  0  0
  5 14  1  0  0  0
  6  7  1  0  0  0
  6 31  1  0  0  0
  7  8  2  0  0  0
  7 32  1  0  0  0
  8  9  1  0  0  0
  9 10  1  0  0  0
  9 13  2  0  0  0
 10 11  2  0  0  0
 10 33  1  0  0  0
 11 12  1  0  0  0
 12 13  1  0  0  0
 12 34  1  0  0  0
 13 35  1  0  0  0
 14 15  2  0  0  0
 14 16  1  0  0  0
 16 17  1  0  0  0
 16 36  1  0  0  0
 17 18  1  0  0  0
 17 19  1  0  0  0
 17 37  1  0  0  0
 18 38  1  0  0  0
 18 39  1  0  0  0
 18 40  1  0  0  0
 19 20  2  0  0  0
 19 26  1  0  0  0
 20 21  1  0  0  0
 20 41  1  0  0  0
 21 22  1  0  0  0
 21 23  2  0  0  0
 23 24  1  0  0  0
 23 42  1  0  0  0
 24 25  1  0  0  0
 24 26  2  0  0  0
 26 43  1  0  0  0
M  END
> <s_m_entry_id>
28107

> <s_m_entry_name>
dock_pv.268

> <s_m_Source_Path>
/home/csk/Desktop/cluster/DUD-E-result/rock1

> <s_m_Source_File>
dock_pv.maegz

> <i_m_Source_File_Index>
268

> <chembl_id>
CHEMBL3934001

> <chembl_pref_name>
None

> <i_lp_mmshare_version>
53161

> <r_lp_tautomer_probability>
0.5

> <s_lp_Force_Field>
OPLS_2005

> <r_lp_Energy>
20.117532

> <b_lp_Chiralities_Consistent>
1

> <s_lp_Variant>
CHEMBL3231_lig642-2

> <s_i_glide_gridfile>
glide-grid_2etr

> <i_i_glide_lignum>
931

> <i_i_glide_rotatable_bonds>
6

> <r_i_docking_score>
-7.85252892912395

> <r_i_glide_ligand_efficiency>
-0.302020343427844

> <r_i_glide_ligand_efficiency_sa>
-0.894734079012322

> <r_i_glide_ligand_efficiency_ln>
-1.84414065275575

> <r_i_glide_gscore>
-7.85252892912395

> <r_i_glide_lipo>
-2.62572537287806

> <r_i_glide_hbond>
-0.45273358786553

> <r_i_glide_metal>
0

> <r_i_glide_rewards>
-2.17834590695554

> <r_i_glide_evdw>
-40.6395530700684

> <r_i_glide_ecoul>
-6.28979253768921

> <r_i_glide_erotb>
0.419732904482184

> <r_i_glide_esite>
-0.0400104317502034

> <r_i_glide_emodel>
-67.1080189296312

> <r_i_glide_energy>
-46.9293456077576

> <r_i_glide_einternal>
3.48909521102905

> <i_i_glide_confnum>
6

> <i_i_glide_posenum>
299

> <r_i_glide_eff_state_penalty>
0

> <s_user_duplicate_titles>
CHEMBL3231_lig642

> <i_f3d_flags>
0

> <s_m_subgroup_title>
dock_pv

> <s_m_subgroupid>
dock_pv

> <b_m_subgroup_collapsed>
1

$$$$
CHEMBL3231_lig707
                    3D
 Schrodinger Suite 2021-1.
 57 60  0  0  1  0            999 V2000
   51.4446   97.7290   30.4398 C   0  0  0  0  0  0
   51.2519   98.4632   29.2347 O   0  0  0  0  0  0
   51.3188   99.8473   29.2449 C   0  0  0  0  0  0
   51.7227  100.5785   30.3770 C   0  0  0  0  0  0
   51.7213  101.9829   30.3831 C   0  0  0  0  0  0
   51.3246  102.6543   29.2250 C   0  0  0  0  0  0
   50.9433  101.9451   28.0938 C   0  0  0  0  0  0
   50.9365  100.5461   28.0823 C   0  0  0  0  0  0
   50.4863   99.8843   26.8110 C   0  0  0  0  0  0
   50.5464   98.5323   26.4165 C   0  0  0  0  0  0
   50.0434   98.3030   25.2260 N   0  0  0  0  0  0
   49.6430   99.5007   24.8085 N   0  0  0  0  0  0
   49.8919  100.4905   25.7095 C   0  0  0  0  0  0
   52.1024  102.7756   31.6088 C   0  0  0  0  0  0
   51.6438  103.9027   31.7927 O   0  0  0  0  0  0
   52.9613  102.1875   32.4542 N   0  0  0  0  0  0
   53.5301  102.7745   33.6723 C   0  0  0  0  0  0
   53.0162  102.1676   35.0179 C   0  0  2  0  0  0
   53.0979  100.6846   35.0949 N   0  0  0  0  0  0
   54.3854  100.1283   34.6288 C   0  0  0  0  0  0
   54.3739   98.5801   34.6621 C   0  0  0  0  0  0
   54.1104   98.0769   36.0080 N   0  0  0  0  0  0
   52.9059   98.6776   36.5825 C   0  0  0  0  0  0
   52.9181  100.2229   36.4857 C   0  0  0  0  0  0
   51.5927  102.6633   35.3429 C   0  0  0  0  0  0
   51.4243  103.6327   36.3407 C   0  0  0  0  0  0
   50.1539  104.1123   36.6540 C   0  0  0  0  0  0
   49.0446  103.6255   35.9651 C   0  0  0  0  0  0
   49.1997  102.6739   34.9611 C   0  0  0  0  0  0
   50.4712  102.1867   34.6538 C   0  0  0  0  0  0
   51.2520   96.6730   30.2517 H   0  0  0  0  0  0
   52.4699   97.8175   30.8031 H   0  0  0  0  0  0
   50.7558   98.0505   31.2227 H   0  0  0  0  0  0
   52.0110  100.0549   31.2760 H   0  0  0  0  0  0
   51.3139  103.7347   29.1924 H   0  0  0  0  0  0
   50.6526  102.5086   27.2217 H   0  0  0  0  0  0
   50.9571   97.7207   26.9980 H   0  0  0  0  0  0
   49.2193   99.6409   23.8950 H   0  0  0  0  0  0
   49.6242  101.5120   25.4896 H   0  0  0  0  0  0
   53.3233  101.2839   32.1953 H   0  0  0  0  0  0
   53.4117  103.8601   33.6916 H   0  0  0  0  0  0
   54.6101  102.6368   33.6008 H   0  0  0  0  0  0
   53.6794  102.5700   35.7876 H   0  0  0  0  0  0
   54.5847  100.4154   33.5977 H   0  0  0  0  0  0
   55.2157  100.5165   35.2238 H   0  0  0  0  0  0
   55.3416   98.2017   34.3272 H   0  0  0  0  0  0
   53.6153   98.2052   33.9737 H   0  0  0  0  0  0
   54.9183   98.1532   36.6112 H   0  0  0  0  0  0
   52.8425   98.3773   37.6289 H   0  0  0  0  0  0
   52.0326   98.2893   36.0588 H   0  0  0  0  0  0
   53.6994  100.6279   37.1310 H   0  0  0  0  0  0
   51.9693  100.5872   36.8827 H   0  0  0  0  0  0
   52.2794  104.0194   36.8763 H   0  0  0  0  0  0
   50.0305  104.8553   37.4277 H   0  0  0  0  0  0
   48.0575  103.9904   36.2109 H   0  0  0  0  0  0
   48.3385  102.3048   34.4298 H   0  0  0  0  0  0
   50.5919  101.4419   33.8810 H   0  0  0  0  0  0
  1  2  1  0  0  0
  1 31  1  0  0  0
  1 32  1  0  0  0
  1 33  1  0  0  0
  2  3  1  0  0  0
  3  4  2  0  0  0
  3  8  1  0  0  0
  4  5  1  0  0  0
  4 34  1  0  0  0
  5  6  2  0  0  0
  5 14  1  0  0  0
  6  7  1  0  0  0
  6 35  1  0  0  0
  7  8  2  0  0  0
  7 36  1  0  0  0
  8  9  1  0  0  0
  9 10  1  0  0  0
  9 13  2  0  0  0
 10 11  2  0  0  0
 10 37  1  0  0  0
 11 12  1  0  0  0
 12 13  1  0  0  0
 12 38  1  0  0  0
 13 39  1  0  0  0
 14 15  2  0  0  0
 14 16  1  0  0  0
 16 17  1  0  0  0
 16 40  1  0  0  0
 17 18  1  0  0  0
 17 41  1  0  0  0
 17 42  1  0  0  0
 18 19  1  0  0  0
 18 25  1  0  0  0
 18 43  1  0  0  0
 19 20  1  0  0  0
 19 24  1  0  0  0
 20 21  1  0  0  0
 20 44  1  0  0  0
 20 45  1  0  0  0
 21 22  1  0  0  0
 21 46  1  0  0  0
 21 47  1  0  0  0
 22 23  1  0  0  0
 22 48  1  0  0  0
 23 24  1  0  0  0
 23 49  1  0  0  0
 23 50  1  0  0  0
 24 51  1  0  0  0
 24 52  1  0  0  0
 25 26  2  0  0  0
 25 30  1  0  0  0
 26 27  1  0  0  0
 26 53  1  0  0  0
 27 28  2  0  0  0
 27 54  1  0  0  0
 28 29  1  0  0  0
 28 55  1  0  0  0
 29 30  2  0  0  0
 29 56  1  0  0  0
 30 57  1  0  0  0
M  END
> <s_m_entry_id>
28108

> <s_m_entry_name>
dock_pv.269

> <s_m_Source_Path>
/home/csk/Desktop/cluster/DUD-E-result/rock1

> <s_m_Source_File>
dock_pv.maegz

> <i_m_Source_File_Index>
269

> <chembl_id>
CHEMBL3919291

> <chembl_pref_name>
None

> <i_lp_mmshare_version>
53161

> <r_lp_tautomer_probability>
0.5

> <s_lp_Force_Field>
OPLS_2005

> <r_lp_Energy>
54.558998

> <b_lp_Chiralities_Consistent>
1

> <s_lp_Variant>
CHEMBL3231_lig707-1

> <s_i_glide_gridfile>
glide-grid_2etr

> <i_i_glide_lignum>
1005

> <i_i_glide_rotatable_bonds>
8

> <r_i_docking_score>
-7.8514646837947

> <r_i_glide_ligand_efficiency>
-0.261715489459823

> <r_i_glide_ligand_efficiency_sa>
-0.813210875239224

> <r_i_glide_ligand_efficiency_ln>
-1.78393832471779

> <r_i_glide_gscore>
-7.8514646837947

> <r_i_glide_lipo>
-2.79999284863004

> <r_i_glide_hbond>
-0.663833418081877

> <r_i_glide_metal>
0

> <r_i_glide_rewards>
-1.62386041022671

> <r_i_glide_evdw>
-43.6770629882812

> <r_i_glide_ecoul>
-7.38162899017334

> <r_i_glide_erotb>
0.585684973384151

> <r_i_glide_esite>
-0.058365482300167

> <r_i_glide_emodel>
-74.3964505654963

> <r_i_glide_energy>
-51.0586919784546

> <r_i_glide_einternal>
2.95489168167114

> <i_i_glide_confnum>
155

> <i_i_glide_posenum>
296

> <r_i_glide_eff_state_penalty>
0

> <s_user_duplicate_titles>
CHEMBL3231_lig707

> <i_f3d_flags>
0

> <s_m_subgroup_title>
dock_pv

> <s_m_subgroupid>
dock_pv

> <b_m_subgroup_collapsed>
1

$$$$
CHEMBL3231_lig216
                    3D
 Schrodinger Suite 2021-1.
 47 50  0  0  1  0            999 V2000
   53.7733  100.0647   32.2874 C   0  0  0  0  0  0
   53.8788  101.2056   33.0772 C   0  0  0  0  0  0
   53.2105  102.3812   32.7423 C   0  0  0  0  0  0
   52.4273  102.4373   31.5840 C   0  0  0  0  0  0
   52.9676  100.1249   31.1415 C   0  0  0  0  0  0
   52.2856  101.3117   30.7568 C   0  0  0  0  0  0
   51.5259  101.1551   29.5495 C   0  0  0  0  0  0
   51.6432   99.8631   29.0266 C   0  0  0  0  0  0
   52.6560   98.8274   30.0221 S   0  0  0  0  0  0
   50.7038  102.2926   28.9564 C   0  0  0  0  0  0
   51.0565   99.2807   27.7670 C   0  0  0  0  0  0
   50.6236  100.1824   26.8446 N   0  0  0  0  0  0
   50.1162   99.6932   25.6908 C   0  0  0  0  0  0
   50.0366   98.3875   25.3440 N   0  0  0  0  0  0
   50.4428   97.5028   26.2867 C   0  0  0  0  0  0
   50.9426   97.9031   27.5265 C   0  0  0  0  0  0
   49.5861  100.6171   24.8109 N   0  0  0  0  0  0
   53.3282  103.6202   33.6375 C   0  0  2  0  0  0
   52.0199  104.0154   34.3609 C   0  0  0  0  0  0
   51.8120  105.3282   34.8080 C   0  0  0  0  0  0
   50.6161  105.6904   35.4194 C   0  0  0  0  0  0
   49.6084  104.7503   35.6151 C   0  0  0  0  0  0
   49.8217  103.4249   35.2097 C   0  0  0  0  0  0
   51.0173  103.0636   34.5960 C   0  0  0  0  0  0
   53.8431  104.7029   32.8117 N   0  0  0  0  0  0
   48.4465  105.2099   36.2002 O   0  0  0  0  0  0
   47.3695  104.3029   36.3856 C   0  0  0  0  0  0
   54.3006   99.1586   32.5543 H   0  0  0  0  0  0
   54.4966  101.1710   33.9636 H   0  0  0  0  0  0
   51.9502  103.3693   31.3329 H   0  0  0  0  0  0
   49.7016  101.9545   28.6942 H   0  0  0  0  0  0
   50.5648  103.1378   29.6281 H   0  0  0  0  0  0
   51.1564  102.6810   28.0418 H   0  0  0  0  0  0
   50.3734   96.4550   26.0342 H   0  0  0  0  0  0
   51.2429   97.1639   28.2532 H   0  0  0  0  0  0
   49.6343  101.5952   25.0493 H   0  0  0  0  0  0
   49.2400  100.3045   23.9069 H   0  0  0  0  0  0
   54.0682  103.4253   34.4153 H   0  0  0  0  0  0
   52.5671  106.0868   34.6633 H   0  0  0  0  0  0
   50.4674  106.7120   35.7368 H   0  0  0  0  0  0
   49.0722  102.6625   35.3582 H   0  0  0  0  0  0
   51.1494  102.0350   34.2934 H   0  0  0  0  0  0
   53.7851  105.6280   33.2196 H   0  0  0  0  0  0
   54.7909  104.5586   32.4857 H   0  0  0  0  0  0
   46.5288  104.8444   36.8110 H   0  0  0  0  0  0
   47.6430  103.5045   37.0772 H   0  0  0  0  0  0
   47.0330  103.8669   35.4433 H   0  0  0  0  0  0
  1  5  2  0  0  0
  1  2  1  0  0  0
  1 28  1  0  0  0
  2  3  2  0  0  0
  2 29  1  0  0  0
  3 18  1  0  0  0
  3  4  1  0  0  0
  4  6  2  0  0  0
  4 30  1  0  0  0
  5  9  1  0  0  0
  5  6  1  0  0  0
  6  7  1  0  0  0
  7  8  2  0  0  0
  7 10  1  0  0  0
  8 11  1  0  0  0
  8  9  1  0  0  0
 10 31  1  0  0  0
 10 32  1  0  0  0
 10 33  1  0  0  0
 11 16  1  0  0  0
 11 12  2  0  0  0
 12 13  1  0  0  0
 13 14  2  0  0  0
 13 17  1  0  0  0
 14 15  1  0  0  0
 15 16  2  0  0  0
 15 34  1  0  0  0
 16 35  1  0  0  0
 17 36  1  0  0  0
 17 37  1  0  0  0
 18 19  1  0  0  0
 18 25  1  0  0  0
 18 38  1  0  0  0
 19 20  2  0  0  0
 19 24  1  0  0  0
 20 21  1  0  0  0
 20 39  1  0  0  0
 21 22  2  0  0  0
 21 40  1  0  0  0
 22 23  1  0  0  0
 22 26  1  0  0  0
 23 24  2  0  0  0
 23 41  1  0  0  0
 24 42  1  0  0  0
 25 43  1  0  0  0
 25 44  1  0  0  0
 26 27  1  0  0  0
 27 45  1  0  0  0
 27 46  1  0  0  0
 27 47  1  0  0  0
M  END
> <s_m_entry_id>
28109

> <s_m_entry_name>
dock_pv.270

> <s_m_Source_Path>
/home/csk/Desktop/cluster/DUD-E-result/rock1

> <s_m_Source_File>
dock_pv.maegz

> <i_m_Source_File_Index>
270

> <chembl_id>
CHEMBL1084795

> <chembl_pref_name>
None

> <i_lp_mmshare_version>
53161

> <r_lp_tautomer_probability>
0.999999987636

> <s_lp_Force_Field>
OPLS_2005

> <r_lp_Energy>
11.652929

> <b_lp_Chiralities_Consistent>
1

> <s_lp_Variant>
CHEMBL3231_lig216-1

> <s_i_glide_gridfile>
glide-grid_2etr

> <i_i_glide_lignum>
350

> <i_i_glide_rotatable_bonds>
4

> <r_i_docking_score>
-7.84707324702897

> <r_i_glide_ligand_efficiency>
-0.290632342482554

> <r_i_glide_ligand_efficiency_sa>
-0.871897026489786

> <r_i_glide_ligand_efficiency_ln>
-1.82666928279512

> <r_i_glide_gscore>
-7.84707324702897

> <r_i_glide_lipo>
-1.93154197158849

> <r_i_glide_hbond>
-0.564560531203925

> <r_i_glide_metal>
0

> <r_i_glide_rewards>
-2.46220924814871

> <r_i_glide_evdw>
-42.3255386352539

> <r_i_glide_ecoul>
-7.06202268600464

> <r_i_glide_erotb>
0.28681883857555

> <r_i_glide_esite>
0

> <r_i_glide_emodel>
-69.0109657331

> <r_i_glide_energy>
-49.3875613212585

> <r_i_glide_einternal>
7.28838062286377

> <i_i_glide_confnum>
9

> <i_i_glide_posenum>
33

> <r_i_glide_eff_state_penalty>
0

> <s_user_duplicate_titles>
CHEMBL3231_lig216

> <i_f3d_flags>
0

> <s_m_subgroup_title>
dock_pv

> <s_m_subgroupid>
dock_pv

> <b_m_subgroup_collapsed>
1

$$$$
CHEMBL3231_lig2097
                    3D
 Schrodinger Suite 2021-1.
 34 36  0  0  1  0            999 V2000
   50.7843  101.3293   28.1425 C   0  0  0  0  0  0
   51.3141  101.1456   29.3429 N   0  0  0  0  0  0
   51.4238  102.2626   30.0272 C   0  0  0  0  0  0
   50.8552  103.6717   29.2110 S   0  0  0  0  0  0
   50.4433  102.6588   27.8778 C   0  0  0  0  0  0
   51.9162  102.4252   31.3140 N   0  0  0  0  0  0
   51.9742  101.4691   32.2662 C   0  0  0  0  0  0
   52.4361  101.9371   33.6536 C   0  0  0  0  0  0
   51.6429  100.2932   32.1039 O   0  0  0  0  0  0
   51.2741  102.4914   34.4816 C   0  0  0  0  0  0
   50.2857  101.6402   35.0043 C   0  0  0  0  0  0
   49.2219  102.1644   35.7385 C   0  0  0  0  0  0
   49.1402  103.5372   35.9732 C   0  0  0  0  0  0
   50.1275  104.3894   35.4729 C   0  0  0  0  0  0
   51.1911  103.8686   34.7311 C   0  0  0  0  0  0
   50.5973  100.1807   27.2001 C   0  0  0  0  0  0
   50.1611  100.4113   25.8855 C   0  0  0  0  0  0
   49.9855   99.3298   25.0252 C   0  0  0  0  0  0
   50.2080   98.0477   25.4050 N   0  0  0  0  0  0
   50.6432   97.8296   26.6702 C   0  0  0  0  0  0
   50.8446   98.8554   27.5912 C   0  0  0  0  0  0
   50.3498  100.3033   34.8059 F   0  0  0  0  0  0
   50.0416  103.0912   26.9749 H   0  0  0  0  0  0
   52.1941  103.3592   31.5735 H   0  0  0  0  0  0
   53.2219  102.6868   33.5424 H   0  0  0  0  0  0
   52.8964  101.1048   34.1890 H   0  0  0  0  0  0
   48.4606  101.5033   36.1301 H   0  0  0  0  0  0
   48.3148  103.9387   36.5444 H   0  0  0  0  0  0
   50.0712  105.4531   35.6627 H   0  0  0  0  0  0
   51.9477  104.5438   34.3501 H   0  0  0  0  0  0
   49.9539  101.4078   25.5292 H   0  0  0  0  0  0
   49.6464   99.4875   24.0112 H   0  0  0  0  0  0
   50.8423   96.8033   26.9424 H   0  0  0  0  0  0
   51.1900   98.6205   28.5883 H   0  0  0  0  0  0
  1  2  1  0  0  0
  1  5  2  0  0  0
  1 16  1  0  0  0
  2  3  2  0  0  0
  3  4  1  0  0  0
  3  6  1  0  0  0
  4  5  1  0  0  0
  5 23  1  0  0  0
  6  7  1  0  0  0
  6 24  1  0  0  0
  7  8  1  0  0  0
  7  9  2  0  0  0
  8 10  1  0  0  0
  8 25  1  0  0  0
  8 26  1  0  0  0
 10 11  2  0  0  0
 10 15  1  0  0  0
 11 12  1  0  0  0
 11 22  1  0  0  0
 12 13  2  0  0  0
 12 27  1  0  0  0
 13 14  1  0  0  0
 13 28  1  0  0  0
 14 15  2  0  0  0
 14 29  1  0  0  0
 15 30  1  0  0  0
 16 17  2  0  0  0
 16 21  1  0  0  0
 17 18  1  0  0  0
 17 31  1  0  0  0
 18 19  2  0  0  0
 18 32  1  0  0  0
 19 20  1  0  0  0
 20 21  2  0  0  0
 20 33  1  0  0  0
 21 34  1  0  0  0
M  END
> <s_m_entry_id>
28111

> <s_m_entry_name>
dock_pv.272

> <s_m_Source_Path>
/home/csk/Desktop/cluster/DUD-E-result/rock1

> <s_m_Source_File>
dock_pv.maegz

> <i_m_Source_File_Index>
272

> <chembl_id>
CHEMBL3581117

> <chembl_pref_name>
None

> <i_lp_mmshare_version>
53161

> <r_lp_tautomer_probability>
0.999000488399163

> <s_lp_Force_Field>
OPLS_2005

> <r_lp_Energy>
8.384913

> <b_lp_Chiralities_Consistent>
1

> <s_lp_Variant>
CHEMBL3231_lig2097-1

> <s_i_glide_gridfile>
glide-grid_2etr

> <i_i_glide_lignum>
3025

> <i_i_glide_rotatable_bonds>
5

> <r_i_docking_score>
-7.82885332650556

> <r_i_glide_ligand_efficiency>
-0.355856969386616

> <r_i_glide_ligand_efficiency_sa>
-0.997125223281743

> <r_i_glide_ligand_efficiency_ln>
-1.91365731736147

> <r_i_glide_gscore>
-7.82885332650556

> <r_i_glide_lipo>
-2.92300472511851

> <r_i_glide_hbond>
-0.218364870161508

> <r_i_glide_metal>
0

> <r_i_glide_rewards>
-3.04752463996041

> <r_i_glide_evdw>
-37.9297561645508

> <r_i_glide_ecoul>
-3.01111078262329

> <r_i_glide_erotb>
0.756619450330215

> <r_i_glide_esite>
-0.0484241159743105

> <r_i_glide_emodel>
-60.4634727759053

> <r_i_glide_energy>
-40.9408669471741

> <r_i_glide_einternal>
4.32360124588013

> <i_i_glide_confnum>
5

> <i_i_glide_posenum>
293

> <r_i_glide_eff_state_penalty>
0

> <s_user_duplicate_titles>
CHEMBL3231_lig2097

> <i_f3d_flags>
0

> <s_m_subgroup_title>
dock_pv

> <s_m_subgroupid>
dock_pv

> <b_m_subgroup_collapsed>
1

$$$$
CHEMBL3231_lig388
                    3D
 Schrodinger Suite 2021-1.
 44 46  0  0  1  0            999 V2000
   54.4654  106.2506   34.8109 O   0  0  0  0  0  0
   53.1838  106.0635   35.3921 C   0  0  0  0  0  0
   52.4875  104.7565   34.9173 C   0  0  2  0  0  0
   52.5753  104.5876   33.4591 N   0  0  0  0  0  0
   52.2662  103.4868   32.7572 C   0  0  0  0  0  0
   51.8456  102.4445   33.2587 O   0  0  0  0  0  0
   52.4260  103.6934   31.4387 N   0  0  0  0  0  0
   52.0673  102.7892   30.4347 C   0  0  0  0  0  0
   52.5296  101.4693   30.4279 C   0  0  0  0  0  0
   52.1534  100.6095   29.3995 C   0  0  0  0  0  0
   51.2967  101.0432   28.3750 C   0  0  0  0  0  0
   50.8427  102.3702   28.4033 C   0  0  0  0  0  0
   51.2449  103.2469   29.4057 C   0  0  0  0  0  0
   50.8781  100.1183   27.2757 C   0  0  0  0  0  0
   50.7650   98.7347   27.4898 C   0  0  0  0  0  0
   50.3559   97.9062   26.4424 C   0  0  0  0  0  0
   50.0432   98.3756   25.2111 N   0  0  0  0  0  0
   50.1537   99.7108   25.0012 C   0  0  0  0  0  0
   50.5744  100.6013   25.9890 C   0  0  0  0  0  0
   51.0487  104.6240   35.4458 C   0  0  0  0  0  0
   50.6496  103.4504   36.0987 C   0  0  0  0  0  0
   49.3466  103.3241   36.5813 C   0  0  0  0  0  0
   48.4452  104.3741   36.4214 C   0  0  0  0  0  0
   48.8368  105.5504   35.7847 C   0  0  0  0  0  0
   50.1351  105.6750   35.2954 C   0  0  0  0  0  0
   54.3347  106.6518   33.9429 H   0  0  0  0  0  0
   52.5889  106.9449   35.1502 H   0  0  0  0  0  0
   53.2964  106.0487   36.4772 H   0  0  0  0  0  0
   53.0833  103.9458   35.3448 H   0  0  0  0  0  0
   52.9454  105.3831   32.9561 H   0  0  0  0  0  0
   52.7397  104.6021   31.1356 H   0  0  0  0  0  0
   53.1880  101.1143   31.2106 H   0  0  0  0  0  0
   52.5416   99.6015   29.4059 H   0  0  0  0  0  0
   50.1804  102.7434   27.6348 H   0  0  0  0  0  0
   50.9015  104.2712   29.3829 H   0  0  0  0  0  0
   50.9758   98.2972   28.4537 H   0  0  0  0  0  0
   50.2669   96.8383   26.5862 H   0  0  0  0  0  0
   49.9060  100.0668   24.0119 H   0  0  0  0  0  0
   50.6570  101.6512   25.7529 H   0  0  0  0  0  0
   51.3414  102.6279   36.2175 H   0  0  0  0  0  0
   49.0371  102.4142   37.0720 H   0  0  0  0  0  0
   47.4338  104.2735   36.7930 H   0  0  0  0  0  0
   48.1344  106.3618   35.6642 H   0  0  0  0  0  0
   50.4250  106.5900   34.7979 H   0  0  0  0  0  0
  1  2  1  0  0  0
  1 26  1  0  0  0
  2  3  1  0  0  0
  2 27  1  0  0  0
  2 28  1  0  0  0
  3  4  1  0  0  0
  3 20  1  0  0  0
  3 29  1  0  0  0
  4  5  1  0  0  0
  4 30  1  0  0  0
  5  6  2  0  0  0
  5  7  1  0  0  0
  7  8  1  0  0  0
  7 31  1  0  0  0
  8  9  2  0  0  0
  8 13  1  0  0  0
  9 10  1  0  0  0
  9 32  1  0  0  0
 10 11  2  0  0  0
 10 33  1  0  0  0
 11 12  1  0  0  0
 11 14  1  0  0  0
 12 13  2  0  0  0
 12 34  1  0  0  0
 13 35  1  0  0  0
 14 15  2  0  0  0
 14 19  1  0  0  0
 15 16  1  0  0  0
 15 36  1  0  0  0
 16 17  2  0  0  0
 16 37  1  0  0  0
 17 18  1  0  0  0
 18 19  2  0  0  0
 18 38  1  0  0  0
 19 39  1  0  0  0
 20 21  2  0  0  0
 20 25  1  0  0  0
 21 22  1  0  0  0
 21 40  1  0  0  0
 22 23  2  0  0  0
 22 41  1  0  0  0
 23 24  1  0  0  0
 23 42  1  0  0  0
 24 25  2  0  0  0
 24 43  1  0  0  0
 25 44  1  0  0  0
M  END
> <s_m_entry_id>
28112

> <s_m_entry_name>
dock_pv.273

> <s_m_Source_Path>
/home/csk/Desktop/cluster/DUD-E-result/rock1

> <s_m_Source_File>
dock_pv.maegz

> <i_m_Source_File_Index>
273

> <chembl_id>
CHEMBL2023157

> <chembl_pref_name>
None

> <i_lp_mmshare_version>
53161

> <r_lp_tautomer_probability>
1

> <s_lp_Force_Field>
OPLS_2005

> <r_lp_Energy>
18.279924

> <b_lp_Chiralities_Consistent>
1

> <s_lp_Variant>
CHEMBL3231_lig388-1

> <s_i_glide_gridfile>
glide-grid_2etr

> <i_i_glide_lignum>
547

> <i_i_glide_rotatable_bonds>
8

> <r_i_docking_score>
-7.82829368787696

> <r_i_glide_ligand_efficiency>
-0.313131747515078

> <r_i_glide_ligand_efficiency_sa>
-0.915602783149278

> <r_i_glide_ligand_efficiency_ln>
-1.85554019905801

> <r_i_glide_gscore>
-7.82829368787696

> <r_i_glide_lipo>
-3.21230834752118

> <r_i_glide_hbond>
-0.355044830986496

> <r_i_glide_metal>
0

> <r_i_glide_rewards>
-1.93594417286317

> <r_i_glide_evdw>
-43.2301406860352

> <r_i_glide_ecoul>
-6.69034671783447

> <r_i_glide_erotb>
1.01741997810679

> <r_i_glide_esite>
-0.177357272635979

> <r_i_glide_emodel>
-71.8841467086347

> <r_i_glide_energy>
-49.9204874038696

> <r_i_glide_einternal>
6.93912792205811

> <i_i_glide_confnum>
23

> <i_i_glide_posenum>
100

> <r_i_glide_eff_state_penalty>
0

> <s_user_duplicate_titles>
CHEMBL3231_lig388

> <i_f3d_flags>
0

> <s_m_subgroup_title>
dock_pv

> <s_m_subgroupid>
dock_pv

> <b_m_subgroup_collapsed>
1

$$$$
CHEMBL3231_lig776
                    3D
 Schrodinger Suite 2021-1.
 51 53  0  0  1  0            999 V2000
   51.2432   97.1686   30.3798 C   0  0  0  0  0  0
   51.1980   98.0084   29.2287 O   0  0  0  0  0  0
   51.4581   99.3631   29.3470 C   0  0  0  0  0  0
   51.9341   99.9342   30.5415 C   0  0  0  0  0  0
   52.1454  101.3131   30.6719 C   0  0  0  0  0  0
   51.8970  102.1265   29.5598 C   0  0  0  0  0  0
   51.4316  101.5746   28.3670 C   0  0  0  0  0  0
   51.2062  100.1978   28.2366 C   0  0  0  0  0  0
   50.6778   99.7025   26.9106 C   0  0  0  0  0  0
   50.5636   98.3856   26.4153 C   0  0  0  0  0  0
   50.0431   98.3041   25.2118 N   0  0  0  0  0  0
   49.8188   99.5723   24.8654 N   0  0  0  0  0  0
   50.1705  100.4551   25.8505 C   0  0  0  0  0  0
   52.6512  101.8799   31.9824 C   0  0  0  0  0  0
   53.2415  101.1645   32.7920 O   0  0  0  0  0  0
   52.4029  103.1868   32.2146 N   0  0  0  0  0  0
   52.8939  103.9851   33.3565 C   0  0  1  0  0  0
   52.3611  103.5221   34.7474 C   0  0  0  0  0  0
   50.8598  103.6830   34.9779 C   0  0  0  0  0  0
   50.3397  104.9252   35.3567 C   0  0  0  0  0  0
   48.9879  105.0476   35.6748 C   0  0  0  0  0  0
   48.1590  103.9291   35.6112 C   0  0  0  0  0  0
   48.6664  102.6934   35.2111 C   0  0  0  0  0  0
   50.0174  102.5703   34.8926 C   0  0  0  0  0  0
   54.4445  104.1747   33.2964 C   0  0  2  0  0  0
   55.1387  103.0987   33.9064 O   0  0  0  0  0  0
   54.9774  105.5346   33.8085 C   0  0  0  0  0  0
   54.7891  105.7728   35.1928 O   0  0  0  0  0  0
   50.9485   96.1608   30.0878 H   0  0  0  0  0  0
   52.2444   97.1061   30.8088 H   0  0  0  0  0  0
   50.5434   97.5032   31.1477 H   0  0  0  0  0  0
   52.1352   99.3057   31.3965 H   0  0  0  0  0  0
   52.0695  103.1919   29.5918 H   0  0  0  0  0  0
   51.2433  102.2408   27.5393 H   0  0  0  0  0  0
   50.8594   97.4858   26.9336 H   0  0  0  0  0  0
   49.4179   99.8270   23.9672 H   0  0  0  0  0  0
   50.0290  101.5168   25.7116 H   0  0  0  0  0  0
   52.0333  103.7146   31.4419 H   0  0  0  0  0  0
   52.4631  104.9705   33.1672 H   0  0  0  0  0  0
   52.8616  104.0754   35.5402 H   0  0  0  0  0  0
   52.6421  102.4857   34.9379 H   0  0  0  0  0  0
   50.9861  105.7873   35.4332 H   0  0  0  0  0  0
   48.5867  106.0019   35.9827 H   0  0  0  0  0  0
   47.1114  104.0183   35.8664 H   0  0  0  0  0  0
   48.0157  101.8314   35.1633 H   0  0  0  0  0  0
   50.4151  101.6061   34.6070 H   0  0  0  0  0  0
   54.7376  104.1459   32.2464 H   0  0  0  0  0  0
   54.7679  102.2742   33.5670 H   0  0  0  0  0  0
   56.0431  105.5989   33.6111 H   0  0  0  0  0  0
   54.5141  106.3457   33.2492 H   0  0  0  0  0  0
   53.8733  106.0313   35.3348 H   0  0  0  0  0  0
  1  2  1  0  0  0
  1 29  1  0  0  0
  1 30  1  0  0  0
  1 31  1  0  0  0
  2  3  1  0  0  0
  3  4  2  0  0  0
  3  8  1  0  0  0
  4  5  1  0  0  0
  4 32  1  0  0  0
  5  6  2  0  0  0
  5 14  1  0  0  0
  6  7  1  0  0  0
  6 33  1  0  0  0
  7  8  2  0  0  0
  7 34  1  0  0  0
  8  9  1  0  0  0
  9 10  1  0  0  0
  9 13  2  0  0  0
 10 11  2  0  0  0
 10 35  1  0  0  0
 11 12  1  0  0  0
 12 13  1  0  0  0
 12 36  1  0  0  0
 13 37  1  0  0  0
 14 15  2  0  0  0
 14 16  1  0  0  0
 16 17  1  0  0  0
 16 38  1  0  0  0
 17 18  1  0  0  0
 17 25  1  0  0  0
 17 39  1  0  0  0
 18 19  1  0  0  0
 18 40  1  0  0  0
 18 41  1  0  0  0
 19 20  2  0  0  0
 19 24  1  0  0  0
 20 21  1  0  0  0
 20 42  1  0  0  0
 21 22  2  0  0  0
 21 43  1  0  0  0
 22 23  1  0  0  0
 22 44  1  0  0  0
 23 24  2  0  0  0
 23 45  1  0  0  0
 24 46  1  0  0  0
 25 26  1  0  0  0
 25 27  1  0  0  0
 25 47  1  0  0  0
 26 48  1  0  0  0
 27 28  1  0  0  0
 27 49  1  0  0  0
 27 50  1  0  0  0
 28 51  1  0  0  0
M  END
> <s_m_entry_id>
28113

> <s_m_entry_name>
dock_pv.274

> <s_m_Source_Path>
/home/csk/Desktop/cluster/DUD-E-result/rock1

> <s_m_Source_File>
dock_pv.maegz

> <i_m_Source_File_Index>
274

> <chembl_id>
CHEMBL3928475

> <chembl_pref_name>
None

> <i_lp_mmshare_version>
53161

> <r_lp_tautomer_probability>
0.5

> <s_lp_Force_Field>
OPLS_2005

> <r_lp_Energy>
30.690185

> <b_lp_Chiralities_Consistent>
1

> <s_lp_Variant>
CHEMBL3231_lig776-1

> <s_i_glide_gridfile>
glide-grid_2etr

> <i_i_glide_lignum>
1098

> <i_i_glide_rotatable_bonds>
11

> <r_i_docking_score>
-7.82766209329223

> <r_i_glide_ligand_efficiency>
-0.279559360474722

> <r_i_glide_ligand_efficiency_sa>
-0.848906870059245

> <r_i_glide_ligand_efficiency_ln>
-1.80685424127765

> <r_i_glide_gscore>
-7.82766209329223

> <r_i_glide_lipo>
-2.63048627543543

> <r_i_glide_hbond>
-0.534704116543735

> <r_i_glide_metal>
0

> <r_i_glide_rewards>
-1.79260891571487

> <r_i_glide_evdw>
-47.4231491088867

> <r_i_glide_ecoul>
-7.27744102478027

> <r_i_glide_erotb>
0.653769008978677

> <r_i_glide_esite>
-0.0608581854154972

> <r_i_glide_emodel>
-77.5088194876836

> <r_i_glide_energy>
-54.700590133667

> <r_i_glide_einternal>
5.82954549789429

> <i_i_glide_confnum>
84

> <i_i_glide_posenum>
299

> <r_i_glide_eff_state_penalty>
0

> <s_user_duplicate_titles>
CHEMBL3231_lig776

> <i_f3d_flags>
0

> <s_m_subgroup_title>
dock_pv

> <s_m_subgroupid>
dock_pv

> <b_m_subgroup_collapsed>
1

$$$$
CHEMBL3231_lig791
                    3D
 Schrodinger Suite 2021-1.
 54 57  0  0  1  0            999 V2000
   51.7077   97.7622   30.4108 C   0  0  0  0  0  0
   51.4620   98.4616   29.1906 O   0  0  0  0  0  0
   51.5318   99.8444   29.1622 C   0  0  0  0  0  0
   52.0552  100.5925   30.2318 C   0  0  0  0  0  0
   52.0442  101.9937   30.2184 C   0  0  0  0  0  0
   51.4909  102.6539   29.1250 C   0  0  0  0  0  0
   51.0067  101.9261   28.0427 C   0  0  0  0  0  0
   51.0380  100.5263   28.0293 C   0  0  0  0  0  0
   50.5284   99.8482   26.7899 C   0  0  0  0  0  0
   50.5701   98.4891   26.4179 C   0  0  0  0  0  0
   50.0429   98.2453   25.2417 N   0  0  0  0  0  0
   49.6431   99.4390   24.8110 N   0  0  0  0  0  0
   49.9101  100.4426   25.6936 C   0  0  0  0  0  0
   52.5766  102.7833   31.3804 C   0  0  0  0  0  0
   51.9396  103.7356   31.8342 O   0  0  0  0  0  0
   53.7522  102.3569   31.8713 N   0  0  0  0  0  0
   54.3145  102.7576   33.1580 C   0  0  0  0  0  0
   53.6086  102.0681   34.3187 C   0  0  0  0  0  0
   52.7452  102.7871   35.1480 C   0  0  0  0  0  0
   52.0759  102.1432   36.1877 C   0  0  0  0  0  0
   52.2711  100.7801   36.4056 C   0  0  0  0  0  0
   53.1455  100.0401   35.5968 C   0  0  0  0  0  0
   53.8163  100.7034   34.5551 C   0  0  0  0  0  0
   53.3185   98.5569   35.8374 C   0  0  0  0  0  0
   52.4435   97.9040   36.4108 O   0  0  0  0  0  0
   54.4667   98.0036   35.4061 N   0  0  0  0  0  0
   54.8026   96.5890   35.5475 C   0  0  0  0  0  0
   54.0213   95.6667   34.5939 C   0  0  0  0  0  0
   54.4314   95.5511   33.1508 C   0  0  0  0  0  0
   54.6317   94.3806   34.1009 C   0  0  0  0  0  0
   51.4826   96.7046   30.2796 H   0  0  0  0  0  0
   52.7541   97.8397   30.7121 H   0  0  0  0  0  0
   51.0731   98.1286   31.2192 H   0  0  0  0  0  0
   52.4580  100.0879   31.0982 H   0  0  0  0  0  0
   51.4608  103.7342   29.0916 H   0  0  0  0  0  0
   50.6148  102.4801   27.2046 H   0  0  0  0  0  0
   50.9911   97.6819   26.9986 H   0  0  0  0  0  0
   49.2100   99.5656   23.8996 H   0  0  0  0  0  0
   49.6429  101.4631   25.4645 H   0  0  0  0  0  0
   54.2597  101.6559   31.3500 H   0  0  0  0  0  0
   54.2948  103.8441   33.2724 H   0  0  0  0  0  0
   55.3672  102.4715   33.1696 H   0  0  0  0  0  0
   52.5738  103.8406   34.9739 H   0  0  0  0  0  0
   51.3984  102.7004   36.8181 H   0  0  0  0  0  0
   51.7340  100.3027   37.2117 H   0  0  0  0  0  0
   54.4854  100.1648   33.8978 H   0  0  0  0  0  0
   55.1668   98.5978   34.9870 H   0  0  0  0  0  0
   54.7994   96.2170   36.5727 H   0  0  0  0  0  0
   55.8579   96.5318   35.2705 H   0  0  0  0  0  0
   52.9572   95.6335   34.8342 H   0  0  0  0  0  0
   55.3050   96.1030   32.7996 H   0  0  0  0  0  0
   53.6416   95.5034   32.4045 H   0  0  0  0  0  0
   53.9884   93.5040   34.0108 H   0  0  0  0  0  0
   55.6428   94.1257   34.4204 H   0  0  0  0  0  0
  1  2  1  0  0  0
  1 31  1  0  0  0
  1 32  1  0  0  0
  1 33  1  0  0  0
  2  3  1  0  0  0
  3  4  2  0  0  0
  3  8  1  0  0  0
  4  5  1  0  0  0
  4 34  1  0  0  0
  5  6  2  0  0  0
  5 14  1  0  0  0
  6  7  1  0  0  0
  6 35  1  0  0  0
  7  8  2  0  0  0
  7 36  1  0  0  0
  8  9  1  0  0  0
  9 10  1  0  0  0
  9 13  2  0  0  0
 10 11  2  0  0  0
 10 37  1  0  0  0
 11 12  1  0  0  0
 12 13  1  0  0  0
 12 38  1  0  0  0
 13 39  1  0  0  0
 14 15  2  0  0  0
 14 16  1  0  0  0
 16 17  1  0  0  0
 16 40  1  0  0  0
 17 18  1  0  0  0
 17 41  1  0  0  0
 17 42  1  0  0  0
 18 19  2  0  0  0
 18 23  1  0  0  0
 19 20  1  0  0  0
 19 43  1  0  0  0
 20 21  2  0  0  0
 20 44  1  0  0  0
 21 22  1  0  0  0
 21 45  1  0  0  0
 22 23  2  0  0  0
 22 24  1  0  0  0
 23 46  1  0  0  0
 24 25  2  0  0  0
 24 26  1  0  0  0
 26 27  1  0  0  0
 26 47  1  0  0  0
 27 28  1  0  0  0
 27 48  1  0  0  0
 27 49  1  0  0  0
 28 29  1  0  0  0
 28 30  1  0  0  0
 28 50  1  0  0  0
 29 30  1  0  0  0
 29 51  1  0  0  0
 29 52  1  0  0  0
 30 53  1  0  0  0
 30 54  1  0  0  0
M  END
> <s_m_entry_id>
28114

> <s_m_entry_name>
dock_pv.275

> <s_m_Source_Path>
/home/csk/Desktop/cluster/DUD-E-result/rock1

> <s_m_Source_File>
dock_pv.maegz

> <i_m_Source_File_Index>
275

> <chembl_id>
CHEMBL3910152

> <chembl_pref_name>
None

> <i_lp_mmshare_version>
53161

> <r_lp_tautomer_probability>
0.5

> <s_lp_Force_Field>
OPLS_2005

> <r_lp_Energy>
34.130493

> <b_lp_Chiralities_Consistent>
1

> <s_lp_Variant>
CHEMBL3231_lig791-1

> <s_i_glide_gridfile>
glide-grid_2etr

> <i_i_glide_lignum>
1118

> <i_i_glide_rotatable_bonds>
10

> <r_i_docking_score>
-7.82746821645935

> <r_i_glide_ligand_efficiency>
-0.260915607215312

> <r_i_glide_ligand_efficiency_sa>
-0.81072545513096

> <r_i_glide_ligand_efficiency_ln>
-1.77848606587674

> <r_i_glide_gscore>
-7.82746821645935

> <r_i_glide_lipo>
-2.20078871603142

> <r_i_glide_hbond>
-0.864077084883868

> <r_i_glide_metal>
0

> <r_i_glide_rewards>
-1.57698690571411

> <r_i_glide_evdw>
-44.6396484375

> <r_i_glide_ecoul>
-10.2827415466309

> <r_i_glide_erotb>
0.6724323314696

> <r_i_glide_esite>
-0.0836541874299193

> <r_i_glide_emodel>
-79.0995472223214

> <r_i_glide_energy>
-54.9223899841309

> <r_i_glide_einternal>
5.09516429901123

> <i_i_glide_confnum>
7

> <i_i_glide_posenum>
101

> <r_i_glide_eff_state_penalty>
0

> <s_user_duplicate_titles>
CHEMBL3231_lig791

> <i_f3d_flags>
0

> <s_m_subgroup_title>
dock_pv

> <s_m_subgroupid>
dock_pv

> <b_m_subgroup_collapsed>
1

$$$$
CHEMBL3231_lig209
                    3D
 Schrodinger Suite 2021-1.
 42 45  0  0  1  0            999 V2000
   53.6693  100.7393   32.3478 C   0  0  0  0  0  0
   53.5671  101.8429   33.1876 C   0  0  0  0  0  0
   52.7927  102.9478   32.8409 C   0  0  0  0  0  0
   52.1514  102.9950   31.6032 C   0  0  0  0  0  0
   52.9496  100.7566   31.1458 C   0  0  0  0  0  0
   52.1875  101.8830   30.7370 C   0  0  0  0  0  0
   51.5364  101.6875   29.4707 C   0  0  0  0  0  0
   51.7400  100.3902   28.9692 C   0  0  0  0  0  0
   52.8417   99.4637   29.9862 S   0  0  0  0  0  0
   50.6793  102.7940   28.8675 C   0  0  0  0  0  0
   51.1732   99.6985   27.7458 C   0  0  0  0  0  0
   50.5736  100.4930   26.8157 N   0  0  0  0  0  0
   50.0384   99.8895   25.7256 C   0  0  0  0  0  0
   50.0437   98.5599   25.4692 N   0  0  0  0  0  0
   50.6277   97.7801   26.4114 C   0  0  0  0  0  0
   51.2027   98.3039   27.5702 C   0  0  0  0  0  0
   49.3869  100.7019   24.8110 N   0  0  0  0  0  0
   52.6304  104.1085   33.8178 C   0  0  0  0  0  0
   51.3011  104.1279   34.5784 C   0  0  0  0  0  0
   50.7069  105.3508   34.9115 C   0  0  0  0  0  0
   49.4963  105.3854   35.6088 C   0  0  0  0  0  0
   48.8669  104.1953   35.9781 C   0  0  0  0  0  0
   49.4494  102.9711   35.6508 C   0  0  0  0  0  0
   50.6588  102.9386   34.9561 C   0  0  0  0  0  0
   48.8428  101.7974   36.0111 O   0  0  0  0  0  0
   54.2639   99.8816   32.6318 H   0  0  0  0  0  0
   54.0838  101.8273   34.1372 H   0  0  0  0  0  0
   51.6065  103.8800   31.3314 H   0  0  0  0  0  0
   50.6559  102.7834   27.7789 H   0  0  0  0  0  0
   49.6460  102.7282   29.2145 H   0  0  0  0  0  0
   51.0459  103.7905   29.1243 H   0  0  0  0  0  0
   50.6249   96.7142   26.2285 H   0  0  0  0  0  0
   51.6429   97.6419   28.2981 H   0  0  0  0  0  0
   49.3786  101.6965   24.9732 H   0  0  0  0  0  0
   49.0750  100.3059   23.9266 H   0  0  0  0  0  0
   52.7588  105.0414   33.2656 H   0  0  0  0  0  0
   53.4377  104.0897   34.5507 H   0  0  0  0  0  0
   51.1905  106.2783   34.6344 H   0  0  0  0  0  0
   49.0476  106.3343   35.8654 H   0  0  0  0  0  0
   47.9299  104.2268   36.5155 H   0  0  0  0  0  0
   51.0987  101.9804   34.7209 H   0  0  0  0  0  0
   48.0621  101.9159   36.5614 H   0  0  0  0  0  0
  1  5  2  0  0  0
  1  2  1  0  0  0
  1 26  1  0  0  0
  2  3  2  0  0  0
  2 27  1  0  0  0
  3 18  1  0  0  0
  3  4  1  0  0  0
  4  6  2  0  0  0
  4 28  1  0  0  0
  5  9  1  0  0  0
  5  6  1  0  0  0
  6  7  1  0  0  0
  7  8  2  0  0  0
  7 10  1  0  0  0
  8 11  1  0  0  0
  8  9  1  0  0  0
 10 29  1  0  0  0
 10 30  1  0  0  0
 10 31  1  0  0  0
 11 16  1  0  0  0
 11 12  2  0  0  0
 12 13  1  0  0  0
 13 14  2  0  0  0
 13 17  1  0  0  0
 14 15  1  0  0  0
 15 16  2  0  0  0
 15 32  1  0  0  0
 16 33  1  0  0  0
 17 34  1  0  0  0
 17 35  1  0  0  0
 18 19  1  0  0  0
 18 36  1  0  0  0
 18 37  1  0  0  0
 19 20  2  0  0  0
 19 24  1  0  0  0
 20 21  1  0  0  0
 20 38  1  0  0  0
 21 22  2  0  0  0
 21 39  1  0  0  0
 22 23  1  0  0  0
 22 40  1  0  0  0
 23 24  2  0  0  0
 23 25  1  0  0  0
 24 41  1  0  0  0
 25 42  1  0  0  0
M  END
> <s_m_entry_id>
28115

> <s_m_entry_name>
dock_pv.276

> <s_m_Source_Path>
/home/csk/Desktop/cluster/DUD-E-result/rock1

> <s_m_Source_File>
dock_pv.maegz

> <i_m_Source_File_Index>
276

> <chembl_id>
CHEMBL1082758

> <chembl_pref_name>
None

> <i_lp_mmshare_version>
53161

> <r_lp_tautomer_probability>
0.999999987633365

> <s_lp_Force_Field>
OPLS_2005

> <r_lp_Energy>
8.126138

> <b_lp_Chiralities_Consistent>
1

> <s_lp_Variant>
CHEMBL3231_lig209-1

> <s_i_glide_gridfile>
glide-grid_2etr

> <i_i_glide_lignum>
341

> <i_i_glide_rotatable_bonds>
4

> <r_i_docking_score>
-7.82540061032364

> <r_i_glide_ligand_efficiency>
-0.313016024412945

> <r_i_glide_ligand_efficiency_sa>
-0.915264406746283

> <r_i_glide_ligand_efficiency_ln>
-1.85485445297933

> <r_i_glide_gscore>
-7.82540061032364

> <r_i_glide_lipo>
-2.07128748267373

> <r_i_glide_hbond>
-0.585611262856656

> <r_i_glide_metal>
0

> <r_i_glide_rewards>
-2.59855278787879

> <r_i_glide_evdw>
-43.9381866455078

> <r_i_glide_ecoul>
-5.63898611068726

> <r_i_glide_erotb>
0.472808171964022

> <r_i_glide_esite>
0

> <r_i_glide_emodel>
-70.9500201879862

> <r_i_glide_energy>
-49.5771727561951

> <r_i_glide_einternal>
3.11906814575195

> <i_i_glide_confnum>
12

> <i_i_glide_posenum>
251

> <r_i_glide_eff_state_penalty>
0

> <s_user_duplicate_titles>
CHEMBL3231_lig209,630263

> <i_f3d_flags>
0

> <s_m_subgroup_title>
dock_pv

> <s_m_subgroupid>
dock_pv

> <b_m_subgroup_collapsed>
1

$$$$
CHEMBL3231_lig956 
                    3D
 Schrodinger Suite 2021-1.
 45 47  0  0  1  0            999 V2000
   49.8707   99.6439   25.3314 C   0  0  0  0  0  0
   50.0432   98.3073   25.2109 N   0  0  0  0  0  0
   50.7085   97.6695   26.1996 C   0  0  0  0  0  0
   51.2153   98.3264   27.3205 C   0  0  0  0  0  0
   51.0242   99.7105   27.4649 C   0  0  0  0  0  0
   50.3233  100.3714   26.4321 C   0  0  0  0  0  0
   51.5093  100.4217   28.6936 C   0  0  0  0  0  0
   51.5492   99.7735   29.9363 C   0  0  0  0  0  0
   51.8581  100.4716   31.1019 C   0  0  0  0  0  0
   52.1200  101.8483   31.0524 C   0  0  0  0  0  0
   52.1896  102.4734   29.8039 C   0  0  0  0  0  0
   51.8970  101.7643   28.6457 C   0  0  0  0  0  0
   52.2286  102.6870   32.3052 C   0  0  0  0  0  0
   52.4797  102.0420   33.4604 N   0  0  0  0  0  0
   52.0416  103.9038   32.2511 O   0  0  0  0  0  0
   52.4748  102.6528   34.7946 C   0  0  1  0  0  0
   51.1060  103.2352   35.1906 C   0  0  0  0  0  0
   50.0698  102.4054   35.6383 C   0  0  0  0  0  0
   48.8407  102.9476   36.0071 C   0  0  0  0  0  0
   48.6328  104.3232   35.9305 C   0  0  0  0  0  0
   49.6474  105.1747   35.4904 C   0  0  0  0  0  0
   50.8880  104.6188   35.1312 C   0  0  0  0  0  0
   49.3427  106.5210   35.4273 O   0  0  0  0  0  0
   50.3530  107.4435   35.0273 C   0  0  0  0  0  0
   53.0229  101.6569   35.8338 C   0  0  0  0  0  0
   50.0451  101.6936   26.4824 F   0  0  0  0  0  0
   49.3321  100.1338   24.5320 H   0  0  0  0  0  0
   50.8382   96.6040   26.0777 H   0  0  0  0  0  0
   51.7390   97.7552   28.0705 H   0  0  0  0  0  0
   51.2733   98.7334   30.0241 H   0  0  0  0  0  0
   51.8033   99.9428   32.0427 H   0  0  0  0  0  0
   52.4277  103.5251   29.7228 H   0  0  0  0  0  0
   51.9319  102.2912   27.7088 H   0  0  0  0  0  0
   52.8662  101.1132   33.3981 H   0  0  0  0  0  0
   53.1941  103.4761   34.7700 H   0  0  0  0  0  0
   50.2083  101.3357   35.6955 H   0  0  0  0  0  0
   48.0441  102.3019   36.3479 H   0  0  0  0  0  0
   47.6732  104.7326   36.2107 H   0  0  0  0  0  0
   51.6897  105.2523   34.7804 H   0  0  0  0  0  0
   49.9471  108.4547   35.0477 H   0  0  0  0  0  0
   51.2091  107.4191   35.7032 H   0  0  0  0  0  0
   50.6965  107.2484   34.0108 H   0  0  0  0  0  0
   53.0574  102.1046   36.8274 H   0  0  0  0  0  0
   52.4186  100.7518   35.8967 H   0  0  0  0  0  0
   54.0388  101.3483   35.5831 H   0  0  0  0  0  0
  1  2  2  0  0  0
  1  6  1  0  0  0
  1 27  1  0  0  0
  2  3  1  0  0  0
  3  4  2  0  0  0
  3 28  1  0  0  0
  4  5  1  0  0  0
  4 29  1  0  0  0
  5  6  2  0  0  0
  5  7  1  0  0  0
  6 26  1  0  0  0
  7  8  2  0  0  0
  7 12  1  0  0  0
  8  9  1  0  0  0
  8 30  1  0  0  0
  9 10  2  0  0  0
  9 31  1  0  0  0
 10 11  1  0  0  0
 10 13  1  0  0  0
 11 12  2  0  0  0
 11 32  1  0  0  0
 12 33  1  0  0  0
 13 14  1  0  0  0
 13 15  2  0  0  0
 14 16  1  0  0  0
 14 34  1  0  0  0
 16 17  1  0  0  0
 16 25  1  0  0  0
 16 35  1  0  0  0
 17 18  2  0  0  0
 17 22  1  0  0  0
 18 19  1  0  0  0
 18 36  1  0  0  0
 19 20  2  0  0  0
 19 37  1  0  0  0
 20 21  1  0  0  0
 20 38  1  0  0  0
 21 22  2  0  0  0
 21 23  1  0  0  0
 22 39  1  0  0  0
 23 24  1  0  0  0
 24 40  1  0  0  0
 24 41  1  0  0  0
 24 42  1  0  0  0
 25 43  1  0  0  0
 25 44  1  0  0  0
 25 45  1  0  0  0
M  END
> <s_m_entry_id>
28116

> <s_m_entry_name>
dock_pv.277

> <s_m_Source_Path>
/home/csk/Desktop/cluster/DUD-E-result/rock1

> <s_m_Source_File>
dock_pv.maegz

> <i_m_Source_File_Index>
277

> <chembl_id>
CHEMBL4472858

> <chembl_pref_name>
None

> <i_lp_mmshare_version>
53161

> <r_lp_tautomer_probability>
1

> <s_lp_Force_Field>
OPLS_2005

> <r_lp_Energy>
18.738164

> <b_lp_Chiralities_Consistent>
1

> <s_lp_Variant>
CHEMBL3231_lig956 -1

> <s_i_glide_gridfile>
glide-grid_2etr

> <i_i_glide_lignum>
1370

> <i_i_glide_rotatable_bonds>
6

> <r_i_docking_score>
-7.82517632484689

> <r_i_glide_ligand_efficiency>
-0.300968320186419

> <r_i_glide_ligand_efficiency_sa>
-0.891617464299111

> <r_i_glide_ligand_efficiency_ln>
-1.8377169833925

> <r_i_glide_gscore>
-7.82517632484689

> <r_i_glide_lipo>
-2.93004112921215

> <r_i_glide_hbond>
-0.249571870181544

> <r_i_glide_metal>
0

> <r_i_glide_rewards>
-2.72015706691958

> <r_i_glide_evdw>
-40.3895072937012

> <r_i_glide_ecoul>
-4.28820276260376

> <r_i_glide_erotb>
0.776254448547296

> <r_i_glide_esite>
-0.0389549280052912

> <r_i_glide_emodel>
-61.9067661194462

> <r_i_glide_energy>
-44.6777100563049

> <r_i_glide_einternal>
8.63097763061523

> <i_i_glide_confnum>
65

> <i_i_glide_posenum>
383

> <r_i_glide_eff_state_penalty>
0

> <s_user_duplicate_titles>
CHEMBL3231_lig956 

> <i_f3d_flags>
0

> <s_m_subgroup_title>
dock_pv

> <s_m_subgroupid>
dock_pv

> <b_m_subgroup_collapsed>
1

$$$$
CHEMBL3231_lig225
                    3D
 Schrodinger Suite 2021-1.
 45 47  0  0  1  0            999 V2000
   52.9512  102.9787   31.2436 C   0  0  0  0  0  0
   53.1331  102.8063   32.6111 C   0  0  0  0  0  0
   52.8481  101.5911   33.2368 C   0  0  0  0  0  0
   52.3875  100.5091   32.4827 C   0  0  0  0  0  0
   52.4366  101.9041   30.5060 C   0  0  0  0  0  0
   52.1582  100.6441   31.1000 C   0  0  0  0  0  0
   51.6378   99.6875   30.1631 C   0  0  0  0  0  0
   51.5075  100.2223   28.8735 C   0  0  0  0  0  0
   52.0393  101.9025   28.8106 S   0  0  0  0  0  0
   51.2420   98.2943   30.6316 C   0  0  0  0  0  0
   50.9779   99.5837   27.6056 C   0  0  0  0  0  0
   50.5504  100.4190   26.6115 N   0  0  0  0  0  0
   50.0985   99.8443   25.4679 C   0  0  0  0  0  0
   50.0430   98.5180   25.2111 N   0  0  0  0  0  0
   50.4666   97.7047   26.2068 C   0  0  0  0  0  0
   50.9424   98.1945   27.4221 C   0  0  0  0  0  0
   49.6433  100.6882   24.4702 N   0  0  0  0  0  0
   52.9980  101.4306   34.7525 C   0  0  1  0  0  0
   54.3611  101.7110   35.1708 N   0  0  0  0  0  0
   52.0255  102.3156   35.5745 C   0  0  0  0  0  0
   50.5161  102.1507   35.2548 C   0  0  0  0  0  0
   49.6621  103.1027   36.1129 C   0  0  0  0  0  0
   50.0243  100.7005   35.4135 C   0  0  0  0  0  0
   53.1877  103.9224   30.7714 H   0  0  0  0  0  0
   53.5029  103.6385   33.1930 H   0  0  0  0  0  0
   52.1877   99.5689   32.9719 H   0  0  0  0  0  0
   50.4412   97.8511   30.0462 H   0  0  0  0  0  0
   52.0842   97.6022   30.6237 H   0  0  0  0  0  0
   50.8449   98.3003   31.6424 H   0  0  0  0  0  0
   50.4430   96.6438   26.0124 H   0  0  0  0  0  0
   51.2818   97.5032   28.1683 H   0  0  0  0  0  0
   49.6075  101.6768   24.6601 H   0  0  0  0  0  0
   49.2725  100.3036   23.5973 H   0  0  0  0  0  0
   52.8216  100.3894   35.0246 H   0  0  0  0  0  0
   55.0155  101.1870   34.6057 H   0  0  0  0  0  0
   54.5758  102.6895   35.0564 H   0  0  0  0  0  0
   52.2963  103.3642   35.4424 H   0  0  0  0  0  0
   52.1784  102.1045   36.6344 H   0  0  0  0  0  0
   50.3593  102.4340   34.2127 H   0  0  0  0  0  0
   49.7524  102.8724   37.1749 H   0  0  0  0  0  0
   48.6057  103.0327   35.8510 H   0  0  0  0  0  0
   49.9620  104.1411   35.9720 H   0  0  0  0  0  0
   50.2398  100.3186   36.4108 H   0  0  0  0  0  0
   48.9485  100.6235   35.2511 H   0  0  0  0  0  0
   50.4998  100.0308   34.6972 H   0  0  0  0  0  0
  1  5  2  0  0  0
  1  2  1  0  0  0
  1 24  1  0  0  0
  2  3  2  0  0  0
  2 25  1  0  0  0
  3 18  1  0  0  0
  3  4  1  0  0  0
  4  6  2  0  0  0
  4 26  1  0  0  0
  5  9  1  0  0  0
  5  6  1  0  0  0
  6  7  1  0  0  0
  7  8  2  0  0  0
  7 10  1  0  0  0
  8 11  1  0  0  0
  8  9  1  0  0  0
 10 27  1  0  0  0
 10 28  1  0  0  0
 10 29  1  0  0  0
 11 12  2  0  0  0
 11 16  1  0  0  0
 12 13  1  0  0  0
 13 14  2  0  0  0
 13 17  1  0  0  0
 14 15  1  0  0  0
 15 16  2  0  0  0
 15 30  1  0  0  0
 16 31  1  0  0  0
 17 32  1  0  0  0
 17 33  1  0  0  0
 18 19  1  0  0  0
 18 20  1  0  0  0
 18 34  1  0  0  0
 19 35  1  0  0  0
 19 36  1  0  0  0
 20 21  1  0  0  0
 20 37  1  0  0  0
 20 38  1  0  0  0
 21 22  1  0  0  0
 21 23  1  0  0  0
 21 39  1  0  0  0
 22 40  1  0  0  0
 22 41  1  0  0  0
 22 42  1  0  0  0
 23 43  1  0  0  0
 23 44  1  0  0  0
 23 45  1  0  0  0
M  END
> <s_m_entry_id>
28118

> <s_m_entry_name>
dock_pv.279

> <s_m_Source_Path>
/home/csk/Desktop/cluster/DUD-E-result/rock1

> <s_m_Source_File>
dock_pv.maegz

> <i_m_Source_File_Index>
279

> <chembl_id>
CHEMBL1082439

> <chembl_pref_name>
None

> <i_lp_mmshare_version>
53161

> <r_lp_tautomer_probability>
0.999999987636

> <s_lp_Force_Field>
OPLS_2005

> <r_lp_Energy>
4.263941

> <b_lp_Chiralities_Consistent>
1

> <s_lp_Variant>
CHEMBL3231_lig225-2

> <s_i_glide_gridfile>
glide-grid_2etr

> <i_i_glide_lignum>
368

> <i_i_glide_rotatable_bonds>
4

> <r_i_docking_score>
-7.82120089850808

> <r_i_glide_ligand_efficiency>
-0.340052212978612

> <r_i_glide_ligand_efficiency_sa>
-0.967063258904587

> <r_i_glide_ligand_efficiency_ln>
-1.89123729598805

> <r_i_glide_gscore>
-7.82120089850808

> <r_i_glide_lipo>
-2.30933473474819

> <r_i_glide_hbond>
-0.44919071207666

> <r_i_glide_metal>
0

> <r_i_glide_rewards>
-2.82501875561523

> <r_i_glide_evdw>
-37.4605560302734

> <r_i_glide_ecoul>
-4.89454698562622

> <r_i_glide_erotb>
0.369553153289608

> <r_i_glide_esite>
0

> <r_i_glide_emodel>
-62.2368900189367

> <r_i_glide_energy>
-42.3551030158997

> <r_i_glide_einternal>
0.847434043884277

> <i_i_glide_confnum>
15

> <i_i_glide_posenum>
338

> <r_i_glide_eff_state_penalty>
0

> <s_user_duplicate_titles>
CHEMBL3231_lig225,630402

> <i_f3d_flags>
0

> <s_m_subgroup_title>
dock_pv

> <s_m_subgroupid>
dock_pv

> <b_m_subgroup_collapsed>
1

$$$$
CHEMBL3231_lig894
                    3D
 Schrodinger Suite 2021-1.
 35 37  0  0  1  0            999 V2000
   54.5824  100.3802   31.5816 C   0  0  0  0  0  0
   53.2142  100.3965   32.3215 C   0  0  0  0  0  0
   53.4264  100.0819   33.8238 C   0  0  0  0  0  0
   52.2149   99.4764   31.6718 N   0  0  0  0  0  0
   52.6270  101.7638   32.2982 N   0  0  0  0  0  0
   52.0410  102.3408   31.2233 C   0  0  0  0  0  0
   51.7982   99.9648   30.4317 C   0  0  0  0  0  0
   51.8318  101.3494   30.2011 C   0  0  0  0  0  0
   51.3948  101.7742   28.5945 S   0  0  0  0  0  0
   51.0787  100.1172   28.1963 C   0  0  0  0  0  0
   51.2595   99.2654   29.3081 C   0  0  0  0  0  0
   51.6430  103.5033   31.2560 O   0  0  0  0  0  0
   50.5943   99.8208   26.8367 C   0  0  0  0  0  0
   50.5924   98.6010   26.1374 C   0  0  0  0  0  0
   50.0432   98.6762   24.9478 N   0  0  0  0  0  0
   49.7206   99.9594   24.8110 N   0  0  0  0  0  0
   50.0432  100.7030   25.9127 C   0  0  0  0  0  0
   52.6004   98.0638   31.8128 C   0  0  0  0  0  0
   50.8159   97.8123   29.3274 C   0  0  0  0  0  0
   54.4975  100.6233   30.5222 H   0  0  0  0  0  0
   55.2704  101.1078   32.0139 H   0  0  0  0  0  0
   55.0723   99.4080   31.6491 H   0  0  0  0  0  0
   52.4793   99.9613   34.3514 H   0  0  0  0  0  0
   54.0171   99.1800   33.9840 H   0  0  0  0  0  0
   53.9774  100.8818   34.3217 H   0  0  0  0  0  0
   52.3188  102.1470   33.1771 H   0  0  0  0  0  0
   50.9808   97.6615   26.4997 H   0  0  0  0  0  0
   49.2859  100.3082   23.9620 H   0  0  0  0  0  0
   49.8455  101.7639   25.9504 H   0  0  0  0  0  0
   53.3776   97.7937   31.0963 H   0  0  0  0  0  0
   52.9618   97.8086   32.8058 H   0  0  0  0  0  0
   51.7518   97.4023   31.6658 H   0  0  0  0  0  0
   50.2442   97.6030   30.2306 H   0  0  0  0  0  0
   50.1294   97.5415   28.5291 H   0  0  0  0  0  0
   51.6429   97.1131   29.3362 H   0  0  0  0  0  0
  1  2  1  0  0  0
  1 20  1  0  0  0
  1 21  1  0  0  0
  1 22  1  0  0  0
  2  3  1  0  0  0
  2  4  1  0  0  0
  2  5  1  0  0  0
  3 23  1  0  0  0
  3 24  1  0  0  0
  3 25  1  0  0  0
  4  7  1  0  0  0
  4 18  1  0  0  0
  5  6  1  0  0  0
  5 26  1  0  0  0
  6  8  1  0  0  0
  6 12  2  0  0  0
  7  8  2  0  0  0
  7 11  1  0  0  0
  8  9  1  0  0  0
  9 10  1  0  0  0
 10 11  2  0  0  0
 10 13  1  0  0  0
 11 19  1  0  0  0
 13 14  1  0  0  0
 13 17  2  0  0  0
 14 15  2  0  0  0
 14 27  1  0  0  0
 15 16  1  0  0  0
 16 17  1  0  0  0
 16 28  1  0  0  0
 17 29  1  0  0  0
 18 30  1  0  0  0
 18 31  1  0  0  0
 18 32  1  0  0  0
 19 33  1  0  0  0
 19 34  1  0  0  0
 19 35  1  0  0  0
M  END
> <s_m_entry_id>
28119

> <s_m_entry_name>
dock_pv.280

> <s_m_Source_Path>
/home/csk/Desktop/cluster/DUD-E-result/rock1

> <s_m_Source_File>
dock_pv.maegz

> <i_m_Source_File_Index>
280

> <chembl_id>
CHEMBL4204540

> <chembl_pref_name>
None

> <i_lp_mmshare_version>
53161

> <r_lp_tautomer_probability>
0.5

> <s_lp_Force_Field>
OPLS_2005

> <r_lp_Energy>
24.783238

> <b_lp_Chiralities_Consistent>
1

> <s_lp_Variant>
CHEMBL3231_lig894-1

> <s_i_glide_gridfile>
glide-grid_2etr

> <i_i_glide_lignum>
1278

> <i_i_glide_rotatable_bonds>
1

> <r_i_docking_score>
-7.81836887565874

> <r_i_glide_ligand_efficiency>
-0.411493098718881

> <r_i_glide_ligand_efficiency_sa>
-1.09802886198147

> <r_i_glide_ligand_efficiency_ln>
-1.98212443314587

> <r_i_glide_gscore>
-7.81836887565874

> <r_i_glide_lipo>
-1.95235839479076

> <r_i_glide_hbond>
-0.604975138723113

> <r_i_glide_metal>
0

> <r_i_glide_rewards>
-2.83622768118139

> <r_i_glide_evdw>
-32.3401222229004

> <r_i_glide_ecoul>
-6.07568502426147

> <r_i_glide_erotb>
0.164888362363618

> <r_i_glide_esite>
-0.0613371585428442

> <r_i_glide_emodel>
-55.3727464217323

> <r_i_glide_energy>
-38.4158072471619

> <r_i_glide_einternal>
0.116369098424911

> <i_i_glide_confnum>
4

> <i_i_glide_posenum>
144

> <r_i_glide_eff_state_penalty>
0

> <s_user_duplicate_titles>
CHEMBL3231_lig894

> <i_f3d_flags>
0

> <s_m_subgroup_title>
dock_pv

> <s_m_subgroupid>
dock_pv

> <b_m_subgroup_collapsed>
1

$$$$
CHEMBL3231_lig456
                    3D
 Schrodinger Suite 2021-1.
 40 42  0  0  1  0            999 V2000
   54.1499  101.9271   35.4753 N   0  0  0  0  0  0
   52.9897  102.4744   35.8496 C   0  0  0  0  0  0
   52.7724  102.7452   37.0290 O   0  0  0  0  0  0
   51.8929  102.7242   34.7777 C   0  0  2  0  0  0
   52.4070  102.7812   33.3853 N   0  0  0  0  0  0
   51.6412  102.8117   32.2807 C   0  0  0  0  0  0
   50.4429  103.0955   32.3133 O   0  0  0  0  0  0
   52.3033  102.4748   31.1555 N   0  0  0  0  0  0
   51.6752  102.3716   29.9241 C   0  0  0  0  0  0
   51.6720  101.2777   29.2039 N   0  0  0  0  0  0
   50.9703  101.4094   28.0839 C   0  0  0  0  0  0
   50.4437  102.6878   27.8901 C   0  0  0  0  0  0
   50.8454  103.7207   29.2108 S   0  0  0  0  0  0
   50.7574  100.2562   27.1549 C   0  0  0  0  0  0
   50.2939  100.4764   25.8478 C   0  0  0  0  0  0
   50.0429   99.3811   25.0227 C   0  0  0  0  0  0
   50.2238   98.1004   25.4267 N   0  0  0  0  0  0
   50.6935   97.8971   26.6819 C   0  0  0  0  0  0
   50.9752   98.9345   27.5687 C   0  0  0  0  0  0
   50.9802  103.8953   35.1249 C   0  0  0  0  0  0
   49.7548  103.6514   35.7614 C   0  0  0  0  0  0
   48.8982  104.7061   36.0706 C   0  0  0  0  0  0
   49.2691  106.0105   35.7529 C   0  0  0  0  0  0
   50.4883  106.2687   35.1312 C   0  0  0  0  0  0
   51.3416  105.2141   34.8146 C   0  0  0  0  0  0
   54.3170  101.6268   34.5279 H   0  0  0  0  0  0
   54.8546  101.7641   36.1789 H   0  0  0  0  0  0
   51.2980  101.8074   34.8101 H   0  0  0  0  0  0
   53.4092  102.7679   33.2801 H   0  0  0  0  0  0
   53.2655  102.1756   31.2142 H   0  0  0  0  0  0
   49.8525  103.0600   27.0687 H   0  0  0  0  0  0
   50.1194  101.4733   25.4726 H   0  0  0  0  0  0
   49.6768   99.5232   24.0162 H   0  0  0  0  0  0
   50.8430   96.8695   26.9777 H   0  0  0  0  0  0
   51.3339   98.7102   28.5632 H   0  0  0  0  0  0
   49.4584  102.6421   36.0119 H   0  0  0  0  0  0
   47.9528  104.5065   36.5533 H   0  0  0  0  0  0
   48.6109  106.8321   35.9937 H   0  0  0  0  0  0
   50.7778  107.2818   34.8905 H   0  0  0  0  0  0
   52.2830  105.4252   34.3276 H   0  0  0  0  0  0
  1  2  1  0  0  0
  1 26  1  0  0  0
  1 27  1  0  0  0
  2  3  2  0  0  0
  2  4  1  0  0  0
  4  5  1  0  0  0
  4 20  1  0  0  0
  4 28  1  0  0  0
  5  6  1  0  0  0
  5 29  1  0  0  0
  6  7  2  0  0  0
  6  8  1  0  0  0
  8  9  1  0  0  0
  8 30  1  0  0  0
  9 10  2  0  0  0
  9 13  1  0  0  0
 10 11  1  0  0  0
 11 12  2  0  0  0
 11 14  1  0  0  0
 12 13  1  0  0  0
 12 31  1  0  0  0
 14 15  2  0  0  0
 14 19  1  0  0  0
 15 16  1  0  0  0
 15 32  1  0  0  0
 16 17  2  0  0  0
 16 33  1  0  0  0
 17 18  1  0  0  0
 18 19  2  0  0  0
 18 34  1  0  0  0
 19 35  1  0  0  0
 20 21  2  0  0  0
 20 25  1  0  0  0
 21 22  1  0  0  0
 21 36  1  0  0  0
 22 23  2  0  0  0
 22 37  1  0  0  0
 23 24  1  0  0  0
 23 38  1  0  0  0
 24 25  2  0  0  0
 24 39  1  0  0  0
 25 40  1  0  0  0
M  END
> <s_m_entry_id>
28120

> <s_m_entry_name>
dock_pv.281

> <s_m_Source_Path>
/home/csk/Desktop/cluster/DUD-E-result/rock1

> <s_m_Source_File>
dock_pv.maegz

> <i_m_Source_File_Index>
281

> <chembl_id>
CHEMBL3218288

> <chembl_pref_name>
None

> <i_lp_mmshare_version>
53161

> <r_lp_tautomer_probability>
0.999000488399163

> <s_lp_Force_Field>
OPLS_2005

> <r_lp_Energy>
1.374288

> <b_lp_Chiralities_Consistent>
1

> <s_lp_Variant>
CHEMBL3231_lig456-1

> <s_i_glide_gridfile>
glide-grid_2etr

> <i_i_glide_lignum>
640

> <i_i_glide_rotatable_bonds>
7

> <r_i_docking_score>
-7.8140016516196

> <r_i_glide_ligand_efficiency>
-0.312560066064784

> <r_i_glide_ligand_efficiency_sa>
-0.913931176449804

> <r_i_glide_ligand_efficiency_ln>
-1.85215255816725

> <r_i_glide_gscore>
-7.8140016516196

> <r_i_glide_lipo>
-2.66827747246354

> <r_i_glide_hbond>
-0.298422816612802

> <r_i_glide_metal>
0

> <r_i_glide_rewards>
-2.2880583932402

> <r_i_glide_evdw>
-38.9543914794922

> <r_i_glide_ecoul>
-8.53561782836914

> <r_i_glide_erotb>
0.764521245194416

> <r_i_glide_esite>
-0.0957019662674999

> <r_i_glide_emodel>
-66.9403654075432

> <r_i_glide_energy>
-47.4900093078613

> <r_i_glide_einternal>
7.81766223907471

> <i_i_glide_confnum>
6

> <i_i_glide_posenum>
395

> <r_i_glide_eff_state_penalty>
0

> <s_user_duplicate_titles>
CHEMBL3231_lig456

> <i_f3d_flags>
0

> <s_m_subgroup_title>
dock_pv

> <s_m_subgroupid>
dock_pv

> <b_m_subgroup_collapsed>
1

$$$$
CHEMBL3231_lig1853
                    3D
 Schrodinger Suite 2021-1.
 51 53  0  0  1  0            999 V2000
   52.0715  104.2657   32.0108 O   0  0  0  0  0  0
   50.2885  102.3303   36.0546 O   0  0  0  0  0  0
   54.0234  103.0938   32.1563 N   0  0  0  0  0  0
   50.0430   98.3035   25.2098 N   0  0  0  0  0  0
   52.4238  102.5545   30.4049 C   0  0  0  0  0  0
   51.4656  100.9065   28.3299 C   0  0  0  0  0  0
   52.8404  103.4025   31.5835 C   0  0  0  0  0  0
   53.7013  102.5575   34.5737 C   0  0  0  0  0  0
   54.4704  103.3787   33.5298 C   0  0  2  0  0  0
   50.9576  100.0139   27.2498 C   0  0  0  0  0  0
   52.9188  101.2546   30.2412 C   0  0  0  0  0  0
   51.4587  103.0282   29.5064 C   0  0  0  0  0  0
   52.4439  100.4465   29.2162 C   0  0  0  0  0  0
   50.9812  102.2107   28.4849 C   0  0  0  0  0  0
   52.3677  102.8608   34.8651 C   0  0  0  0  0  0
   51.6241  102.1045   35.7813 C   0  0  0  0  0  0
   54.3193  101.5082   35.2630 C   0  0  0  0  0  0
   50.5919  100.5205   25.9925 C   0  0  0  0  0  0
   50.8448   98.6292   27.4572 C   0  0  0  0  0  0
   52.2652  101.0694   36.4634 C   0  0  0  0  0  0
   53.6047  100.7711   36.2084 C   0  0  0  0  0  0
   54.5363  104.8771   33.8958 C   0  0  0  0  0  0
   50.1362   99.6412   25.0094 C   0  0  0  0  0  0
   50.3990   97.8151   26.4191 C   0  0  0  0  0  0
   49.4914  102.9529   35.0455 C   0  0  0  0  0  0
   48.0798  103.2171   35.5762 C   0  0  0  0  0  0
   48.0430  104.3513   36.6066 C   0  0  0  0  0  0
   54.6281  102.4801   31.6301 H   0  0  0  0  0  0
   55.5053  103.0309   33.5510 H   0  0  0  0  0  0
   53.6563  100.8405   30.9150 H   0  0  0  0  0  0
   51.0596  104.0271   29.6023 H   0  0  0  0  0  0
   52.8522   99.4514   29.1199 H   0  0  0  0  0  0
   50.2234  102.5965   27.8188 H   0  0  0  0  0  0
   51.9209  103.6973   34.3604 H   0  0  0  0  0  0
   55.3528  101.2569   35.0687 H   0  0  0  0  0  0
   50.6676  101.5747   25.7712 H   0  0  0  0  0  0
   51.1026   98.1812   28.4060 H   0  0  0  0  0  0
   51.7166  100.4837   37.1864 H   0  0  0  0  0  0
   54.0881   99.9623   36.7374 H   0  0  0  0  0  0
   54.9430  105.0166   34.8974 H   0  0  0  0  0  0
   55.1793  105.4275   33.2110 H   0  0  0  0  0  0
   53.5574  105.3560   33.8722 H   0  0  0  0  0  0
   49.8512  100.0026   24.0302 H   0  0  0  0  0  0
   50.3219   96.7453   26.5477 H   0  0  0  0  0  0
   49.4457  102.3035   34.1702 H   0  0  0  0  0  0
   49.8989  103.9082   34.7160 H   0  0  0  0  0  0
   47.6682  102.3047   36.0084 H   0  0  0  0  0  0
   47.4252  103.4765   34.7438 H   0  0  0  0  0  0
   47.0110  104.6348   36.8110 H   0  0  0  0  0  0
   48.5525  105.2448   36.2437 H   0  0  0  0  0  0
   48.5119  104.0518   37.5452 H   0  0  0  0  0  0
  1  7  2  0  0  0
  2 16  1  0  0  0
  2 25  1  0  0  0
  3  7  1  0  0  0
  3  9  1  0  0  0
  3 28  1  0  0  0
  4 23  2  0  0  0
  4 24  1  0  0  0
  5  7  1  0  0  0
  5 11  2  0  0  0
  5 12  1  0  0  0
  6 10  1  0  0  0
  6 13  2  0  0  0
  6 14  1  0  0  0
  8  9  1  0  0  0
  8 15  2  0  0  0
  8 17  1  0  0  0
  9 22  1  0  0  0
  9 29  1  0  0  0
 10 18  2  0  0  0
 10 19  1  0  0  0
 11 13  1  0  0  0
 11 30  1  0  0  0
 12 14  2  0  0  0
 12 31  1  0  0  0
 13 32  1  0  0  0
 14 33  1  0  0  0
 15 16  1  0  0  0
 15 34  1  0  0  0
 16 20  2  0  0  0
 17 21  2  0  0  0
 17 35  1  0  0  0
 18 23  1  0  0  0
 18 36  1  0  0  0
 19 24  2  0  0  0
 19 37  1  0  0  0
 20 21  1  0  0  0
 20 38  1  0  0  0
 21 39  1  0  0  0
 22 40  1  0  0  0
 22 41  1  0  0  0
 22 42  1  0  0  0
 23 43  1  0  0  0
 24 44  1  0  0  0
 25 26  1  0  0  0
 25 45  1  0  0  0
 25 46  1  0  0  0
 26 27  1  0  0  0
 26 47  1  0  0  0
 26 48  1  0  0  0
 27 49  1  0  0  0
 27 50  1  0  0  0
 27 51  1  0  0  0
M  END
> <s_m_entry_id>
28121

> <s_m_entry_name>
dock_pv.282

> <s_m_Source_Path>
/home/csk/Desktop/cluster/DUD-E-result/rock1

> <s_m_Source_File>
dock_pv.maegz

> <i_m_Source_File_Index>
282

> <chembl_id>
CHEMBL2007296

> <chembl_pref_name>
None

> <i_lp_mmshare_version>
53161

> <r_lp_tautomer_probability>
1

> <s_lp_Force_Field>
OPLS_2005

> <r_lp_Energy>
16.166094

> <b_lp_Chiralities_Consistent>
1

> <s_lp_Variant>
CHEMBL3231_lig1853-1

> <s_i_glide_gridfile>
glide-grid_2etr

> <i_i_glide_lignum>
2675

> <i_i_glide_rotatable_bonds>
8

> <r_i_docking_score>
-7.81354616792847

> <r_i_glide_ligand_efficiency>
-0.289390598812166

> <r_i_glide_ligand_efficiency_sa>
-0.868171795482713

> <r_i_glide_ligand_efficiency_ln>
-1.81886473151762

> <r_i_glide_gscore>
-7.81354616792847

> <r_i_glide_lipo>
-3.18126747468571

> <r_i_glide_hbond>
-0.293262289754983

> <r_i_glide_metal>
0

> <r_i_glide_rewards>
-2.17811688291489

> <r_i_glide_evdw>
-47.7548294067383

> <r_i_glide_ecoul>
-4.86063671112061

> <r_i_glide_erotb>
1.03333006625611

> <r_i_glide_esite>
-0.0773926098240013

> <r_i_glide_emodel>
-74.3364382319985

> <r_i_glide_energy>
-52.6154661178589

> <r_i_glide_einternal>
6.29971075057983

> <i_i_glide_confnum>
83

> <i_i_glide_posenum>
256

> <r_i_glide_eff_state_penalty>
0

> <s_user_duplicate_titles>
CHEMBL3231_lig1853

> <i_f3d_flags>
0

> <s_m_subgroup_title>
dock_pv

> <s_m_subgroupid>
dock_pv

> <b_m_subgroup_collapsed>
1

$$$$
CHEMBL3231_lig698
                    3D
 Schrodinger Suite 2021-1.
 44 46  0  0  1  0            999 V2000
   50.3270  103.8361   28.2998 C   0  0  0  0  0  0
   50.4430  102.4877   27.8523 O   0  0  0  0  0  0
   51.2218  101.5900   28.5654 C   0  0  0  0  0  0
   51.9204  101.9539   29.7300 C   0  0  0  0  0  0
   52.6924  101.0276   30.4487 C   0  0  0  0  0  0
   52.7265   99.7042   30.0091 C   0  0  0  0  0  0
   52.0430   99.3294   28.8591 C   0  0  0  0  0  0
   51.3136  100.2598   28.1096 C   0  0  0  0  0  0
   50.7010   99.7731   26.8302 C   0  0  0  0  0  0
   50.2280  100.5056   25.7486 C   0  0  0  0  0  0
   49.8242   99.5962   24.8110 N   0  0  0  0  0  0
   49.9984   98.3346   25.2109 N   0  0  0  0  0  0
   50.5017   98.4419   26.4145 C   0  0  0  0  0  0
   53.4332  101.4239   31.7024 C   0  0  0  0  0  0
   53.6688  100.6018   32.5881 O   0  0  0  0  0  0
   53.7635  102.7224   31.7932 N   0  0  0  0  0  0
   54.0852  103.4390   33.0287 C   0  0  0  0  0  0
   52.8285  103.9231   33.8162 C   0  0  1  0  0  0
   52.0431  104.7030   32.9262 O   0  0  0  0  0  0
   52.0068  102.8025   34.4781 C   0  0  0  0  0  0
   50.6091  102.7591   34.3501 C   0  0  0  0  0  0
   49.8789  101.7246   34.9195 C   0  0  0  0  0  0
   50.5433  100.7216   35.6110 C   0  0  0  0  0  0
   51.9223  100.7671   35.7897 C   0  0  0  0  0  0
   52.6507  101.8157   35.2360 C   0  0  0  0  0  0
   49.7022  104.4021   27.6110 H   0  0  0  0  0  0
   49.8529  103.8842   29.2791 H   0  0  0  0  0  0
   51.2951  104.3364   28.3493 H   0  0  0  0  0  0
   51.8607  102.9672   30.0944 H   0  0  0  0  0  0
   53.2978   98.9594   30.5474 H   0  0  0  0  0  0
   52.1246   98.3029   28.5404 H   0  0  0  0  0  0
   50.1573  101.5671   25.5648 H   0  0  0  0  0  0
   49.4312   99.8290   23.9036 H   0  0  0  0  0  0
   50.7393   97.5549   26.9829 H   0  0  0  0  0  0
   53.7465  103.2743   30.9492 H   0  0  0  0  0  0
   54.6688  104.3125   32.7331 H   0  0  0  0  0  0
   54.7597  102.8555   33.6573 H   0  0  0  0  0  0
   53.1507  104.5813   34.6243 H   0  0  0  0  0  0
   52.4431  105.5871   32.8111 H   0  0  0  0  0  0
   50.0759  103.5167   33.7981 H   0  0  0  0  0  0
   48.8048  101.6880   34.8110 H   0  0  0  0  0  0
   49.9729   99.9030   36.0111 H   0  0  0  0  0  0
   52.4261   99.9883   36.3437 H   0  0  0  0  0  0
   53.7219  101.8315   35.3712 H   0  0  0  0  0  0
  1  2  1  0  0  0
  1 26  1  0  0  0
  1 27  1  0  0  0
  1 28  1  0  0  0
  2  3  1  0  0  0
  3  4  2  0  0  0
  3  8  1  0  0  0
  4  5  1  0  0  0
  4 29  1  0  0  0
  5  6  2  0  0  0
  5 14  1  0  0  0
  6  7  1  0  0  0
  6 30  1  0  0  0
  7  8  2  0  0  0
  7 31  1  0  0  0
  8  9  1  0  0  0
  9 10  2  0  0  0
  9 13  1  0  0  0
 10 11  1  0  0  0
 10 32  1  0  0  0
 11 12  1  0  0  0
 11 33  1  0  0  0
 12 13  2  0  0  0
 13 34  1  0  0  0
 14 15  2  0  0  0
 14 16  1  0  0  0
 16 17  1  0  0  0
 16 35  1  0  0  0
 17 18  1  0  0  0
 17 36  1  0  0  0
 17 37  1  0  0  0
 18 19  1  0  0  0
 18 20  1  0  0  0
 18 38  1  0  0  0
 19 39  1  0  0  0
 20 21  2  0  0  0
 20 25  1  0  0  0
 21 22  1  0  0  0
 21 40  1  0  0  0
 22 23  2  0  0  0
 22 41  1  0  0  0
 23 24  1  0  0  0
 23 42  1  0  0  0
 24 25  2  0  0  0
 24 43  1  0  0  0
 25 44  1  0  0  0
M  END
> <s_m_entry_id>
28122

> <s_m_entry_name>
dock_pv.283

> <s_m_Source_Path>
/home/csk/Desktop/cluster/DUD-E-result/rock1

> <s_m_Source_File>
dock_pv.maegz

> <i_m_Source_File_Index>
283

> <chembl_id>
CHEMBL4113575

> <chembl_pref_name>
None

> <i_lp_mmshare_version>
53161

> <r_lp_tautomer_probability>
0.5

> <s_lp_Force_Field>
OPLS_2005

> <r_lp_Energy>
20.334501

> <b_lp_Chiralities_Consistent>
1

> <s_lp_Variant>
CHEMBL3231_lig698-1

> <s_i_glide_gridfile>
glide-grid_2etr

> <i_i_glide_lignum>
994

> <i_i_glide_rotatable_bonds>
8

> <r_i_docking_score>
-7.80729672428044

> <r_i_glide_ligand_efficiency>
-0.312291868971218

> <r_i_glide_ligand_efficiency_sa>
-0.91314696339172

> <r_i_glide_ligand_efficiency_ln>
-1.85056328945741

> <r_i_glide_gscore>
-7.80729672428044

> <r_i_glide_lipo>
-2.48068098008394

> <r_i_glide_hbond>
-0.638034331525431

> <r_i_glide_metal>
0

> <r_i_glide_rewards>
-1.95084182541264

> <r_i_glide_evdw>
-38.8117599487305

> <r_i_glide_ecoul>
-8.79225730895996

> <r_i_glide_erotb>
0.581129694408677

> <r_i_glide_esite>
-0.0594426878865886

> <r_i_glide_emodel>
-68.0097753771125

> <r_i_glide_energy>
-47.6040172576904

> <r_i_glide_einternal>
2.68663096427917

> <i_i_glide_confnum>
4

> <i_i_glide_posenum>
351

> <r_i_glide_eff_state_penalty>
0

> <s_user_duplicate_titles>
CHEMBL3231_lig698

> <i_f3d_flags>
0

> <s_m_subgroup_title>
dock_pv

> <s_m_subgroupid>
dock_pv

> <b_m_subgroup_collapsed>
1

$$$$
CHEMBL3231_lig1405
                    3D
 Schrodinger Suite 2021-1.
 33 35  0  0  1  0            999 V2000
   51.8182  103.7973   30.8110 O   0  0  0  0  0  0
   53.4841  101.0108   32.7985 N   0  0  0  0  0  0
   54.0423  103.4337   30.8643 N   0  0  0  0  0  0
   49.5194  100.7030   24.8112 N   0  0  0  0  0  0
   52.8812  100.6067   31.6364 C   0  0  0  0  0  0
   52.5612  101.5464   30.6061 C   0  0  0  0  0  0
   52.5382   99.2344   31.4340 C   0  0  0  0  0  0
   51.6435   99.7451   29.2004 C   0  0  0  0  0  0
   51.9771  101.0894   29.4213 C   0  0  0  0  0  0
   51.9062   98.8356   30.2343 C   0  0  0  0  0  0
   51.0386   99.2944   27.8926 C   0  0  0  0  0  0
   52.7759  103.0270   30.7709 C   0  0  0  0  0  0
   52.8436   98.3016   32.4564 C   0  0  0  0  0  0
   50.5348  100.2136   26.9525 C   0  0  0  0  0  0
   50.9624   97.9310   27.5518 C   0  0  0  0  0  0
   53.7713  100.0886   33.7480 C   0  0  0  0  0  0
   53.4669   98.7381   33.6209 C   0  0  0  0  0  0
   50.0392   99.7900   25.7196 C   0  0  0  0  0  0
   50.4723   97.5076   26.3192 C   0  0  0  0  0  0
   50.0388   98.4433   25.3917 C   0  0  0  0  0  0
   54.7976  102.7634   30.8160 H   0  0  0  0  0  0
   54.2663  104.4162   30.9748 H   0  0  0  0  0  0
   49.2091  100.3831   23.8944 H   0  0  0  0  0  0
   49.4640  101.6779   25.0607 H   0  0  0  0  0  0
   51.7971  101.8208   28.6507 H   0  0  0  0  0  0
   51.6493   97.7921   30.1435 H   0  0  0  0  0  0
   52.5949   97.2567   32.3265 H   0  0  0  0  0  0
   50.5117  101.2693   27.1601 H   0  0  0  0  0  0
   51.2939   97.1609   28.2271 H   0  0  0  0  0  0
   54.2672  100.4592   34.6356 H   0  0  0  0  0  0
   53.7169   98.0407   34.4050 H   0  0  0  0  0  0
   50.4435   96.4530   26.0821 H   0  0  0  0  0  0
   49.6447   98.1256   24.4413 H   0  0  0  0  0  0
  1 12  2  0  0  0
  2  5  2  0  0  0
  2 16  1  0  0  0
  3 12  1  0  0  0
  3 21  1  0  0  0
  3 22  1  0  0  0
  4 18  1  0  0  0
  4 23  1  0  0  0
  4 24  1  0  0  0
  5  6  1  0  0  0
  5  7  1  0  0  0
  6  9  2  0  0  0
  6 12  1  0  0  0
  7 10  1  0  0  0
  7 13  2  0  0  0
  8  9  1  0  0  0
  8 10  2  0  0  0
  8 11  1  0  0  0
  9 25  1  0  0  0
 10 26  1  0  0  0
 11 14  1  0  0  0
 11 15  2  0  0  0
 13 17  1  0  0  0
 13 27  1  0  0  0
 14 18  2  0  0  0
 14 28  1  0  0  0
 15 19  1  0  0  0
 15 29  1  0  0  0
 16 17  2  0  0  0
 16 30  1  0  0  0
 17 31  1  0  0  0
 18 20  1  0  0  0
 19 20  2  0  0  0
 19 32  1  0  0  0
 20 33  1  0  0  0
M  END
> <s_m_entry_id>
28123

> <s_m_entry_name>
dock_pv.284

> <s_m_Source_Path>
/home/csk/Desktop/cluster/DUD-E-result/rock1

> <s_m_Source_File>
dock_pv.maegz

> <i_m_Source_File_Index>
284

> <chembl_id>
CHEMBL1970314

> <chembl_pref_name>
None

> <i_lp_mmshare_version>
53161

> <r_lp_tautomer_probability>
1

> <s_lp_Force_Field>
OPLS_2005

> <r_lp_Energy>
23.802917

> <b_lp_Chiralities_Consistent>
1

> <s_lp_Variant>
CHEMBL3231_lig1405-1

> <s_i_glide_gridfile>
glide-grid_2etr

> <i_i_glide_lignum>
1968

> <i_i_glide_rotatable_bonds>
2

> <r_i_docking_score>
-7.80629146522169

> <r_i_glide_ligand_efficiency>
-0.390314573261085

> <r_i_glide_ligand_efficiency_sa>
-1.05947675261564

> <r_i_glide_ligand_efficiency_ln>
-1.95365728502085

> <r_i_glide_gscore>
-7.80629146522169

> <r_i_glide_lipo>
-2.36244631989171

> <r_i_glide_hbond>
-0.674794560215441

> <r_i_glide_metal>
0

> <r_i_glide_rewards>
-1.98890509090909

> <r_i_glide_evdw>
-33.3591613769531

> <r_i_glide_ecoul>
-8.67571544647217

> <r_i_glide_erotb>
0.256133936522098

> <r_i_glide_esite>
-0.0669640449090715

> <r_i_glide_emodel>
-59.8362288885345

> <r_i_glide_energy>
-42.0348768234253

> <r_i_glide_einternal>
4.43397283554077

> <i_i_glide_confnum>
3

> <i_i_glide_posenum>
384

> <r_i_glide_eff_state_penalty>
0

> <s_user_duplicate_titles>
CHEMBL3231_lig1405

> <i_f3d_flags>
0

> <s_m_subgroup_title>
dock_pv

> <s_m_subgroupid>
dock_pv

> <b_m_subgroup_collapsed>
1

$$$$
CHEMBL3231_lig109
                    3D
 Schrodinger Suite 2021-1.
 48 51  0  0  1  0            999 V2000
   50.5307   98.2414   26.3921 C   0  0  0  0  0  0
   50.0451   98.6950   25.2121 N   0  0  0  0  0  0
   50.0020  100.0370   25.0314 C   0  0  0  0  0  0
   50.3953  100.9614   26.0020 C   0  0  0  0  0  0
   50.9834   99.0765   27.4412 C   0  0  0  0  0  0
   50.8921  100.4836   27.2427 C   0  0  0  0  0  0
   51.3016  101.3507   28.2836 C   0  0  0  0  0  0
   51.8354  100.8513   29.4789 C   0  0  0  0  0  0
   51.9845   99.4598   29.6326 C   0  0  0  0  0  0
   51.5241   98.5831   28.6477 C   0  0  0  0  0  0
   52.2475  101.8002   30.5565 C   0  0  0  0  0  0
   51.8835  101.5630   31.8875 C   0  0  0  0  0  0
   52.3155  102.4069   32.9050 C   0  0  0  0  0  0
   53.1131  103.5104   32.6023 C   0  0  0  0  0  0
   53.4438  103.7858   31.2753 C   0  0  0  0  0  0
   53.0156  102.9343   30.2604 C   0  0  0  0  0  0
   52.5842   98.9383   30.7594 O   0  0  0  0  0  0
   53.9046   98.4143   30.5683 C   0  0  0  0  0  0
   54.9648   99.5361   30.6346 C   0  0  0  0  0  0
   55.2439  100.0247   32.0675 C   0  0  0  0  0  0
   55.6335   98.8998   32.9105 N   0  0  1  0  0  0
   54.5385   97.9391   33.0228 C   0  0  0  0  0  0
   54.2012   97.3439   31.6410 C   0  0  0  0  0  0
   53.6657  104.3744   33.7246 C   0  0  0  0  0  0
   52.6161  105.1035   34.4106 N   0  0  0  0  0  0
   50.5759   97.1678   26.5079 H   0  0  0  0  0  0
   49.6414  100.3738   24.0671 H   0  0  0  0  0  0
   50.3294  102.0233   25.8153 H   0  0  0  0  0  0
   51.1980  102.4156   28.1371 H   0  0  0  0  0  0
   51.5985   97.5163   28.7921 H   0  0  0  0  0  0
   51.2863  100.6996   32.1419 H   0  0  0  0  0  0
   52.0551  102.1888   33.9307 H   0  0  0  0  0  0
   54.0426  104.6539   31.0297 H   0  0  0  0  0  0
   53.3139  103.1460   29.2438 H   0  0  0  0  0  0
   54.0405   97.9195   29.6097 H   0  0  0  0  0  0
   55.9089   99.1994   30.2074 H   0  0  0  0  0  0
   54.6619  100.3754   30.0133 H   0  0  0  0  0  0
   56.0439  100.7607   32.0635 H   0  0  0  0  0  0
   54.3678  100.5093   32.4948 H   0  0  0  0  0  0
   56.4172   98.4483   32.4358 H   0  0  0  0  0  0
   54.8327   97.1497   33.7156 H   0  0  0  0  0  0
   53.6666   98.4327   33.4526 H   0  0  0  0  0  0
   53.3468   96.6720   31.7319 H   0  0  0  0  0  0
   55.0405   96.7174   31.3334 H   0  0  0  0  0  0
   54.4084  105.0784   33.3415 H   0  0  0  0  0  0
   54.1893  103.7303   34.4333 H   0  0  0  0  0  0
   52.9842  105.4730   35.2751 H   0  0  0  0  0  0
   52.4419  105.9307   33.8377 H   0  0  0  0  0  0
  1  2  1  0  0  0
  1  5  2  0  0  0
  1 26  1  0  0  0
  2  3  2  0  0  0
  3  4  1  0  0  0
  3 27  1  0  0  0
  4  6  2  0  0  0
  4 28  1  0  0  0
  5  6  1  0  0  0
  5 10  1  0  0  0
  6  7  1  0  0  0
  7  8  2  0  0  0
  7 29  1  0  0  0
  8 11  1  0  0  0
  8  9  1  0  0  0
  9 17  1  0  0  0
  9 10  2  0  0  0
 10 30  1  0  0  0
 11 16  1  0  0  0
 11 12  2  0  0  0
 12 13  1  0  0  0
 12 31  1  0  0  0
 13 14  2  0  0  0
 13 32  1  0  0  0
 14 15  1  0  0  0
 14 24  1  0  0  0
 15 16  2  0  0  0
 15 33  1  0  0  0
 16 34  1  0  0  0
 17 18  1  0  0  0
 18 19  1  0  0  0
 18 23  1  0  0  0
 18 35  1  0  0  0
 19 20  1  0  0  0
 19 36  1  0  0  0
 19 37  1  0  0  0
 20 21  1  0  0  0
 20 38  1  0  0  0
 20 39  1  0  0  0
 21 22  1  0  0  0
 21 40  1  0  0  0
 22 23  1  0  0  0
 22 41  1  0  0  0
 22 42  1  0  0  0
 23 43  1  0  0  0
 23 44  1  0  0  0
 24 25  1  0  0  0
 24 45  1  0  0  0
 24 46  1  0  0  0
 25 47  1  0  0  0
 25 48  1  0  0  0
M  END
> <s_m_entry_id>
28124

> <s_m_entry_name>
dock_pv.285

> <s_m_Source_Path>
/home/csk/Desktop/cluster/DUD-E-result/rock1

> <s_m_Source_File>
dock_pv.maegz

> <i_m_Source_File_Index>
285

> <chembl_id>
CHEMBL484967

> <chembl_pref_name>
None

> <i_lp_mmshare_version>
53161

> <r_lp_tautomer_probability>
1

> <s_lp_Force_Field>
OPLS_2005

> <r_lp_Energy>
28.485684

> <b_lp_Chiralities_Consistent>
1

> <s_lp_Variant>
CHEMBL3231_lig109-1

> <s_i_glide_gridfile>
glide-grid_2etr

> <i_i_glide_lignum>
211

> <i_i_glide_rotatable_bonds>
4

> <r_i_docking_score>
-7.80291564216522

> <r_i_glide_ligand_efficiency>
-0.312116625686609

> <r_i_glide_ligand_efficiency_sa>
-0.91263454891957

> <r_i_glide_ligand_efficiency_ln>
-1.84952484170567

> <r_i_glide_gscore>
-7.80291564216522

> <r_i_glide_lipo>
-2.35620877219352

> <r_i_glide_hbond>
-0.338961599825575

> <r_i_glide_metal>
0

> <r_i_glide_rewards>
-2.51072622727273

> <r_i_glide_evdw>
-38.5695762634277

> <r_i_glide_ecoul>
-7.84755992889404

> <r_i_glide_erotb>
0.508593759632097

> <r_i_glide_esite>
0

> <r_i_glide_emodel>
-65.7414215311022

> <r_i_glide_energy>
-46.4171361923218

> <r_i_glide_einternal>
5.54971599578857

> <i_i_glide_confnum>
8

> <i_i_glide_posenum>
360

> <r_i_glide_eff_state_penalty>
0

> <s_user_duplicate_titles>
CHEMBL3231_lig109,520383

> <i_f3d_flags>
0

> <s_m_subgroup_title>
dock_pv

> <s_m_subgroupid>
dock_pv

> <b_m_subgroup_collapsed>
1

$$$$
CHEMBL3231_lig1771
                    3D
 Schrodinger Suite 2021-1.
 34 37  0  0  1  0            999 V2000
   51.1580   98.1534   27.6482 C   0  0  0  0  0  0
   50.9556  100.9630   27.8948 C   0  0  0  0  0  0
   51.5486  100.2104   28.9204 C   0  0  0  0  0  0
   51.6391   98.8158   28.7802 C   0  0  0  0  0  0
   52.0601  100.9180   30.1218 C   0  0  0  0  0  0
   53.0357  100.2806   30.9936 C   0  0  0  0  0  0
   53.5032  100.9307   32.0914 C   0  0  0  0  0  0
   53.0389  102.1972   32.3629 N   0  0  0  0  0  0
   52.0927  102.8051   31.5976 C   0  0  0  0  0  0
   51.6584  102.1122   30.4486 N   0  0  0  0  0  0
   51.7032  103.8938   32.0105 O   0  0  0  0  0  0
   54.5017  100.3523   33.0505 C   0  0  0  0  0  0
   55.2290   99.1941   32.7252 C   0  0  0  0  0  0
   56.1249   98.6279   33.6270 C   0  0  0  0  0  0
   56.3268   99.2217   34.8654 C   0  0  0  0  0  0
   55.6335  100.3746   35.2127 C   0  0  0  0  0  0
   54.7237  100.9291   34.3151 C   0  0  0  0  0  0
   50.4719  100.3164   26.7489 C   0  0  0  0  0  0
   50.5779   98.9020   26.6164 C   0  0  0  0  0  0
   50.0638   98.4471   25.4286 N   0  0  0  0  0  0
   49.6458   99.5750   24.8262 N   0  0  0  0  0  0
   49.8262  100.7196   25.5608 C   0  0  0  0  0  0
   51.2386   97.0819   27.5771 H   0  0  0  0  0  0
   50.8706  102.0365   27.9728 H   0  0  0  0  0  0
   52.0597   98.1994   29.5616 H   0  0  0  0  0  0
   53.3990   99.2939   30.7692 H   0  0  0  0  0  0
   53.3513  102.7240   33.1646 H   0  0  0  0  0  0
   55.1351   98.7122   31.7647 H   0  0  0  0  0  0
   56.6811   97.7426   33.3478 H   0  0  0  0  0  0
   57.0391   98.7933   35.5539 H   0  0  0  0  0  0
   55.8076  100.8387   36.1719 H   0  0  0  0  0  0
   54.1994  101.8203   34.6220 H   0  0  0  0  0  0
   49.2188   99.5590   23.9062 H   0  0  0  0  0  0
   49.4891  101.6783   25.2050 H   0  0  0  0  0  0
  1 19  1  0  0  0
  1 23  1  0  0  0
  1  4  2  0  0  0
  2  3  2  0  0  0
  2 24  1  0  0  0
  2 18  1  0  0  0
  3  4  1  0  0  0
  3  5  1  0  0  0
  4 25  1  0  0  0
  5  6  1  0  0  0
  5 10  2  0  0  0
  6  7  2  0  0  0
  6 26  1  0  0  0
  7  8  1  0  0  0
  7 12  1  0  0  0
  8  9  1  0  0  0
  8 27  1  0  0  0
  9 11  2  0  0  0
  9 10  1  0  0  0
 12 13  2  0  0  0
 12 17  1  0  0  0
 13 14  1  0  0  0
 13 28  1  0  0  0
 14 15  2  0  0  0
 14 29  1  0  0  0
 15 16  1  0  0  0
 15 30  1  0  0  0
 16 17  2  0  0  0
 16 31  1  0  0  0
 17 32  1  0  0  0
 18 19  1  0  0  0
 18 22  2  0  0  0
 19 20  2  0  0  0
 20 21  1  0  0  0
 21 33  1  0  0  0
 21 22  1  0  0  0
 22 34  1  0  0  0
M  END
> <s_m_entry_id>
28125

> <s_m_entry_name>
dock_pv.286

> <s_m_Source_Path>
/home/csk/Desktop/cluster/DUD-E-result/rock1

> <s_m_Source_File>
dock_pv.maegz

> <i_m_Source_File_Index>
286

> <chembl_id>
CHEMBL526133

> <chembl_pref_name>
None

> <i_lp_mmshare_version>
53161

> <r_lp_tautomer_probability>
0.0101967087850852

> <s_lp_Force_Field>
OPLS_2005

> <r_lp_Energy>
33.694567

> <b_lp_Chiralities_Consistent>
1

> <s_lp_Variant>
CHEMBL3231_lig1771-3

> <s_i_glide_gridfile>
glide-grid_2etr

> <i_i_glide_lignum>
2535

> <i_i_glide_rotatable_bonds>
2

> <r_i_docking_score>
-7.8022357596009

> <r_i_glide_ligand_efficiency>
-0.354647079981859

> <r_i_glide_ligand_efficiency_sa>
-0.993735065587364

> <r_i_glide_ligand_efficiency_ln>
-1.90715101311063

> <r_i_glide_gscore>
-7.8022357596009

> <r_i_glide_lipo>
-2.00007195451559

> <r_i_glide_hbond>
-0.479092918557527

> <r_i_glide_metal>
0

> <r_i_glide_rewards>
-2.73005271212121

> <r_i_glide_evdw>
-33.9974098205566

> <r_i_glide_ecoul>
-7.59188175201416

> <r_i_glide_erotb>
0.306389032450747

> <r_i_glide_esite>
-0.060754453027366

> <r_i_glide_emodel>
-62.5370708947701

> <r_i_glide_energy>
-41.5892915725708

> <r_i_glide_einternal>
0.940376460552216

> <i_i_glide_confnum>
8

> <i_i_glide_posenum>
331

> <r_i_glide_eff_state_penalty>
0

> <s_user_duplicate_titles>
CHEMBL3231_lig1771,CHEMBL3231_lig1771

> <i_f3d_flags>
0

> <s_m_subgroup_title>
dock_pv

> <s_m_subgroupid>
dock_pv

> <b_m_subgroup_collapsed>
1

$$$$
CHEMBL3231_lig1670
                    3D
 Schrodinger Suite 2021-1.
 72 78  0  0  1  0            999 V2000
   55.7900  104.4992   36.4663 Cl  0  0  0  0  0  0
   54.8301   95.1342   37.7960 S   0  0  0  0  0  0
   52.1888  102.0103   33.6703 O   0  0  0  0  0  0
   50.0440   98.2994   24.8188 O   0  0  0  0  0  0
   54.4857   96.4397   35.5771 N   0  0  0  0  0  0
   55.0827   97.8850   37.1787 N   0  0  0  0  0  0
   53.8444   99.0599   33.1022 N   0  0  0  0  0  0
   54.0582   98.3904   30.7962 N   0  0  0  0  0  0
   53.0660  100.4723   31.4415 N   0  0  0  0  0  0
   53.4787  103.2413   35.1064 N   0  0  0  0  0  0
   50.8159   99.9001   27.0991 N   0  0  0  0  0  0
   54.5685   97.6906   34.9762 C   0  0  0  0  0  0
   54.9139   98.5469   36.0479 C   0  0  0  0  0  0
   54.8260   96.6376   36.8998 C   0  0  0  0  0  0
   54.4131   97.8913   33.4984 C   0  0  0  0  0  0
   55.1367  100.0236   36.0789 C   0  0  0  0  0  0
   54.1612   95.1295   35.2618 C   0  0  0  0  0  0
   54.1927  100.9086   35.5535 C   0  0  0  0  0  0
   54.2633   94.3030   36.3594 C   0  0  0  0  0  0
   54.8392   96.9384   32.5632 C   0  0  0  0  0  0
   56.2753  100.5423   36.7048 C   0  0  0  0  0  0
   54.3828  102.2997   35.6292 C   0  0  0  0  0  0
   53.6756   99.2573   31.7702 C   0  0  0  0  0  0
   55.5229  102.7971   36.2795 C   0  0  0  0  0  0
   56.4639  101.9175   36.8089 C   0  0  0  0  0  0
   54.6472   97.2381   31.2119 C   0  0  0  0  0  0
   52.4175  100.9694   30.3013 C   0  0  0  0  0  0
   52.4792  103.0715   34.2235 C   0  0  0  0  0  0
   52.0002  100.1625   29.2360 C   0  0  0  0  0  0
   51.2720  100.6934   28.1553 C   0  0  0  0  0  0
   52.1203  102.3317   30.2794 C   0  0  0  0  0  0
   50.9504  102.0588   28.1926 C   0  0  0  0  0  0
   51.6470  104.3172   33.9123 C   0  0  0  0  0  0
   51.3849  102.8766   29.2326 C   0  0  0  0  0  0
   50.3843  104.4242   34.7714 C   0  0  0  0  0  0
   50.9185  100.3884   25.7094 C   0  0  0  0  0  0
   51.0001   98.4371   27.0723 C   0  0  0  0  0  0
   49.8818   99.7094   24.7960 C   0  0  0  0  0  0
   49.9940   97.7477   26.1270 C   0  0  0  0  0  0
   50.0158  105.6745   35.2752 C   0  0  0  0  0  0
   49.5548  103.3143   34.9977 C   0  0  0  0  0  0
   48.8433  105.8134   36.0099 C   0  0  0  0  0  0
   48.3908  103.4506   35.7462 C   0  0  0  0  0  0
   48.0400  104.6996   36.2476 C   0  0  0  0  0  0
   52.9153  101.0470   32.2640 H   0  0  0  0  0  0
   53.6461  104.1886   35.4136 H   0  0  0  0  0  0
   53.8506   94.8625   34.2612 H   0  0  0  0  0  0
   53.2961  100.4934   35.1203 H   0  0  0  0  0  0
   54.0537   93.2441   36.4109 H   0  0  0  0  0  0
   55.3356   96.0245   32.8565 H   0  0  0  0  0  0
   57.0173   99.8783   37.1220 H   0  0  0  0  0  0
   57.3494  102.2967   37.3011 H   0  0  0  0  0  0
   54.9840   96.5556   30.4436 H   0  0  0  0  0  0
   52.2267   99.1094   29.2603 H   0  0  0  0  0  0
   52.4450  102.9713   31.0867 H   0  0  0  0  0  0
   50.3545  102.5073   27.4130 H   0  0  0  0  0  0
   51.3696  104.2925   32.8583 H   0  0  0  0  0  0
   52.2647  105.2112   34.0259 H   0  0  0  0  0  0
   51.1494  103.9308   29.2277 H   0  0  0  0  0  0
   50.7474  101.4628   25.6459 H   0  0  0  0  0  0
   51.9319  100.2225   25.3318 H   0  0  0  0  0  0
   52.0308   98.1895   26.8114 H   0  0  0  0  0  0
   50.8167   98.0323   28.0682 H   0  0  0  0  0  0
   50.0433  100.0540   23.7746 H   0  0  0  0  0  0
   48.8634   99.9879   25.0713 H   0  0  0  0  0  0
   50.2330   96.6865   26.0602 H   0  0  0  0  0  0
   48.9833   97.8120   26.5293 H   0  0  0  0  0  0
   50.6352  106.5427   35.0936 H   0  0  0  0  0  0
   49.7985  102.3418   34.5949 H   0  0  0  0  0  0
   48.5535  106.7782   36.3918 H   0  0  0  0  0  0
   47.7549  102.5954   35.9285 H   0  0  0  0  0  0
   47.1237  104.8063   36.8106 H   0  0  0  0  0  0
  1 24  1  0  0  0
  2 14  1  0  0  0
  2 19  1  0  0  0
  3 28  2  0  0  0
  4 38  1  0  0  0
  4 39  1  0  0  0
  5 12  1  0  0  0
  5 14  1  0  0  0
  5 17  1  0  0  0
  6 13  1  0  0  0
  6 14  2  0  0  0
  7 15  1  0  0  0
  7 23  2  0  0  0
  8 23  1  0  0  0
  8 26  2  0  0  0
  9 23  1  0  0  0
  9 27  1  0  0  0
  9 45  1  0  0  0
 10 22  1  0  0  0
 10 28  1  0  0  0
 10 46  1  0  0  0
 11 30  1  0  0  0
 11 36  1  0  0  0
 11 37  1  0  0  0
 12 13  2  0  0  0
 12 15  1  0  0  0
 13 16  1  0  0  0
 15 20  2  0  0  0
 16 18  1  0  0  0
 16 21  2  0  0  0
 17 19  2  0  0  0
 17 47  1  0  0  0
 18 22  2  0  0  0
 18 48  1  0  0  0
 19 49  1  0  0  0
 20 26  1  0  0  0
 20 50  1  0  0  0
 21 25  1  0  0  0
 21 51  1  0  0  0
 22 24  1  0  0  0
 24 25  2  0  0  0
 25 52  1  0  0  0
 26 53  1  0  0  0
 27 29  1  0  0  0
 27 31  2  0  0  0
 28 33  1  0  0  0
 29 30  2  0  0  0
 29 54  1  0  0  0
 30 32  1  0  0  0
 31 34  1  0  0  0
 31 55  1  0  0  0
 32 34  2  0  0  0
 32 56  1  0  0  0
 33 35  1  0  0  0
 33 57  1  0  0  0
 33 58  1  0  0  0
 34 59  1  0  0  0
 35 40  2  0  0  0
 35 41  1  0  0  0
 36 38  1  0  0  0
 36 60  1  0  0  0
 36 61  1  0  0  0
 37 39  1  0  0  0
 37 62  1  0  0  0
 37 63  1  0  0  0
 38 64  1  0  0  0
 38 65  1  0  0  0
 39 66  1  0  0  0
 39 67  1  0  0  0
 40 42  1  0  0  0
 40 68  1  0  0  0
 41 43  2  0  0  0
 41 69  1  0  0  0
 42 44  2  0  0  0
 42 70  1  0  0  0
 43 44  1  0  0  0
 43 71  1  0  0  0
 44 72  1  0  0  0
M  END
> <s_m_entry_id>
28126

> <s_m_entry_name>
dock_pv.287

> <s_m_Source_Path>
/home/csk/Desktop/cluster/DUD-E-result/rock1

> <s_m_Source_File>
dock_pv.maegz

> <i_m_Source_File_Index>
287

> <chembl_id>
CHEMBL2005482

> <chembl_pref_name>
None

> <i_lp_mmshare_version>
53161

> <r_lp_tautomer_probability>
0.999999987636

> <s_lp_Force_Field>
OPLS_2005

> <r_lp_Energy>
44.474959

> <b_lp_Chiralities_Consistent>
1

> <s_lp_Variant>
CHEMBL3231_lig1670-1

> <s_i_glide_gridfile>
glide-grid_2etr

> <i_i_glide_lignum>
2382

> <i_i_glide_rotatable_bonds>
9

> <r_i_docking_score>
-7.80029407542352

> <r_i_glide_ligand_efficiency>
-0.17727941080508

> <r_i_glide_ligand_efficiency_sa>
-0.625858072033844

> <r_i_glide_ligand_efficiency_ln>
-1.6304316242237

> <r_i_glide_gscore>
-7.80029407542352

> <r_i_glide_lipo>
-3.2355958286864

> <r_i_glide_hbond>
-0.295458614686174

> <r_i_glide_metal>
0

> <r_i_glide_rewards>
-1.05103846313211

> <r_i_glide_evdw>
-57.4114837646484

> <r_i_glide_ecoul>
-3.96282458305359

> <r_i_glide_erotb>
0.30304917088376

> <r_i_glide_esite>
-0.0562524641121351

> <r_i_glide_emodel>
-89.4616201872033

> <r_i_glide_energy>
-61.374308347702

> <r_i_glide_einternal>
5.5583667755127

> <i_i_glide_confnum>
13

> <i_i_glide_posenum>
27

> <r_i_glide_eff_state_penalty>
0

> <s_user_duplicate_titles>
CHEMBL3231_lig1670

> <i_f3d_flags>
0

> <s_m_subgroup_title>
dock_pv

> <s_m_subgroupid>
dock_pv

> <b_m_subgroup_collapsed>
1

$$$$
CHEMBL3231_lig529
                    3D
 Schrodinger Suite 2021-1.
 69 73  0  0  1  0            999 V2000
   52.0086  102.7524   33.3060 C   0  0  2  0  0  0
   52.4746  102.5794   31.8350 C   0  0  0  0  0  0
   53.4797  103.3806   31.3967 C   0  0  0  0  0  0
   54.0429  104.3032   32.2212 N   0  0  0  0  0  0
   53.6830  104.5725   33.4955 C   0  0  0  0  0  0
   52.4672  104.0696   33.8165 N   0  0  0  0  0  0
   54.4223  105.1031   34.3191 O   0  0  0  0  0  0
   54.0560  103.4752   29.9861 C   0  0  0  0  0  0
   51.9465  101.4316   31.1030 C   0  0  0  0  0  0
   51.7377  101.6284   29.7855 N   0  0  0  0  0  0
   51.6490  100.3829   31.6763 O   0  0  0  0  0  0
   51.3233  100.7201   28.7989 C   0  0  0  0  0  0
   50.7557  101.2898   27.6586 C   0  0  0  0  0  0
   51.1085   98.4811   27.8508 C   0  0  0  0  0  0
   51.5049   99.3314   28.8852 C   0  0  0  0  0  0
   50.5326   99.0415   26.7024 C   0  0  0  0  0  0
   50.3518  100.4570   26.6102 C   0  0  0  0  0  0
   49.7380  100.6445   25.3498 C   0  0  0  0  0  0
   49.6431   99.3912   24.8109 N   0  0  0  0  0  0
   50.0919   98.3875   25.5835 N   0  0  0  0  0  0
   52.3627  101.6410   34.2806 C   0  0  0  0  0  0
   53.6956  101.2671   34.4917 C   0  0  0  0  0  0
   54.0108  100.2603   35.4068 C   0  0  0  0  0  0
   52.9765   99.6435   36.1275 C   0  0  0  0  0  0
   51.6532  100.0030   35.8945 C   0  0  0  0  0  0
   51.3421  100.9925   34.9756 C   0  0  0  0  0  0
   53.2451   98.6683   37.0278 F   0  0  0  0  0  0
   55.4570   99.7787   35.5407 C   0  0  0  0  0  0
   55.5539   98.3076   35.1226 C   0  0  0  0  0  0
   56.2487   97.4842   35.9314 N   0  0  0  0  0  0
   54.9467   97.9372   34.1181 O   0  0  0  0  0  0
   56.2058   96.0132   35.9281 C   0  0  0  0  0  0
   56.0035   95.3440   34.5626 C   0  0  0  0  0  0
   57.0629   95.3011   33.6325 C   0  0  0  0  0  0
   56.8502   94.7488   32.3713 C   0  0  0  0  0  0
   55.6003   94.2790   32.0108 C   0  0  0  0  0  0
   54.5543   94.2882   32.9263 C   0  0  0  0  0  0
   54.7478   94.7946   34.2114 C   0  0  0  0  0  0
   58.4506   95.8376   33.9532 C   0  0  0  0  0  0
   53.5574   94.7862   35.1637 C   0  0  0  0  0  0
   50.9180  102.8001   33.3049 H   0  0  0  0  0  0
   54.8026  104.8789   31.8737 H   0  0  0  0  0  0
   52.1566  104.3336   34.7384 H   0  0  0  0  0  0
   53.3259  103.3411   29.1963 H   0  0  0  0  0  0
   54.4428  104.4727   29.7824 H   0  0  0  0  0  0
   54.8430  102.7406   29.8464 H   0  0  0  0  0  0
   51.8739  102.5711   29.4620 H   0  0  0  0  0  0
   50.6196  102.3587   27.5819 H   0  0  0  0  0  0
   51.2440   97.4122   27.9363 H   0  0  0  0  0  0
   51.9690   98.8891   29.7547 H   0  0  0  0  0  0
   49.3689  101.5026   24.8109 H   0  0  0  0  0  0
   49.2443   99.2208   23.8943 H   0  0  0  0  0  0
   54.4837  101.7456   33.9282 H   0  0  0  0  0  0
   50.8561   99.5043   36.4109 H   0  0  0  0  0  0
   50.3066  101.2528   34.8130 H   0  0  0  0  0  0
   55.7969   99.9251   36.5655 H   0  0  0  0  0  0
   56.1268  100.3528   34.9012 H   0  0  0  0  0  0
   56.7336   97.9025   36.7090 H   0  0  0  0  0  0
   55.4244   95.7211   36.6275 H   0  0  0  0  0  0
   57.1105   95.6235   36.3938 H   0  0  0  0  0  0
   57.6434   94.7042   31.6405 H   0  0  0  0  0  0
   55.4558   93.9068   31.0110 H   0  0  0  0  0  0
   53.5885   93.9031   32.6319 H   0  0  0  0  0  0
   58.7951   95.4800   34.9220 H   0  0  0  0  0  0
   59.1878   95.5028   33.2219 H   0  0  0  0  0  0
   58.4424   96.9273   33.9700 H   0  0  0  0  0  0
   53.7637   94.1472   36.0219 H   0  0  0  0  0  0
   52.6458   94.4298   34.6827 H   0  0  0  0  0  0
   53.3566   95.7916   35.5319 H   0  0  0  0  0  0
  1  2  1  0  0  0
  1  6  1  0  0  0
  1 21  1  0  0  0
  1 41  1  0  0  0
  2  3  2  0  0  0
  2  9  1  0  0  0
  3  4  1  0  0  0
  3  8  1  0  0  0
  4  5  1  0  0  0
  4 42  1  0  0  0
  5  6  1  0  0  0
  5  7  2  0  0  0
  6 43  1  0  0  0
  8 44  1  0  0  0
  8 45  1  0  0  0
  8 46  1  0  0  0
  9 10  1  0  0  0
  9 11  2  0  0  0
 10 47  1  0  0  0
 10 12  1  0  0  0
 12 15  1  0  0  0
 12 13  2  0  0  0
 13 48  1  0  0  0
 13 17  1  0  0  0
 14 16  1  0  0  0
 14 49  1  0  0  0
 14 15  2  0  0  0
 15 50  1  0  0  0
 16 20  2  0  0  0
 16 17  1  0  0  0
 17 18  2  0  0  0
 18 19  1  0  0  0
 18 51  1  0  0  0
 19 52  1  0  0  0
 19 20  1  0  0  0
 21 22  2  0  0  0
 21 26  1  0  0  0
 22 23  1  0  0  0
 22 53  1  0  0  0
 23 24  2  0  0  0
 23 28  1  0  0  0
 24 25  1  0  0  0
 24 27  1  0  0  0
 25 26  2  0  0  0
 25 54  1  0  0  0
 26 55  1  0  0  0
 28 29  1  0  0  0
 28 56  1  0  0  0
 28 57  1  0  0  0
 29 30  1  0  0  0
 29 31  2  0  0  0
 30 32  1  0  0  0
 30 58  1  0  0  0
 32 33  1  0  0  0
 32 59  1  0  0  0
 32 60  1  0  0  0
 33 34  2  0  0  0
 33 38  1  0  0  0
 34 35  1  0  0  0
 34 39  1  0  0  0
 35 36  2  0  0  0
 35 61  1  0  0  0
 36 37  1  0  0  0
 36 62  1  0  0  0
 37 38  2  0  0  0
 37 63  1  0  0  0
 38 40  1  0  0  0
 39 64  1  0  0  0
 39 65  1  0  0  0
 39 66  1  0  0  0
 40 67  1  0  0  0
 40 68  1  0  0  0
 40 69  1  0  0  0
M  END
> <s_m_entry_id>
28127

> <s_m_entry_name>
dock_pv.288

> <s_m_Source_Path>
/home/csk/Desktop/cluster/DUD-E-result/rock1

> <s_m_Source_File>
dock_pv.maegz

> <i_m_Source_File_Index>
288

> <chembl_id>
CHEMBL3808499

> <chembl_pref_name>
None

> <i_lp_mmshare_version>
53161

> <r_lp_tautomer_probability>
0.019607843137214

> <s_lp_Force_Field>
OPLS_2005

> <r_lp_Energy>
54.557377

> <b_lp_Chiralities_Consistent>
1

> <s_lp_Variant>
CHEMBL3231_lig529-3

> <s_i_glide_gridfile>
glide-grid_2etr

> <i_i_glide_lignum>
795

> <i_i_glide_rotatable_bonds>
9

> <r_i_docking_score>
-7.79889189690679

> <r_i_glide_ligand_efficiency>
-0.19497229742267

> <r_i_glide_ligand_efficiency_sa>
-0.666795876902211

> <r_i_glide_ligand_efficiency_ln>
-1.66327413046718

> <r_i_glide_gscore>
-7.79889189690679

> <r_i_glide_lipo>
-2.83269811315042

> <r_i_glide_hbond>
-0.606522916098471

> <r_i_glide_metal>
0

> <r_i_glide_rewards>
-1.12961510453515

> <r_i_glide_evdw>
-52.9426727294922

> <r_i_glide_ecoul>
-6.85335969924927

> <r_i_glide_erotb>
0.636741711801219

> <r_i_glide_esite>
-0.191659883561968

> <r_i_glide_emodel>
-80.1329536648932

> <r_i_glide_energy>
-59.7960324287415

> <r_i_glide_einternal>
5.11373519897461

> <i_i_glide_confnum>
11

> <i_i_glide_posenum>
231

> <r_i_glide_eff_state_penalty>
0

> <s_user_duplicate_titles>
CHEMBL3231_lig529

> <i_f3d_flags>
0

> <s_m_subgroup_title>
dock_pv

> <s_m_subgroupid>
dock_pv

> <b_m_subgroup_collapsed>
1

$$$$
CHEMBL3231_lig265
                    3D
 Schrodinger Suite 2021-1.
 34 36  0  0  1  0            999 V2000
   49.8533   99.3627   24.9928 N   0  0  0  0  0  0
   49.7492  100.7022   25.2095 C   0  0  0  0  0  0
   50.1508  101.3328   26.3248 C   0  0  0  0  0  0
   50.3555   98.4838   25.8994 C   0  0  0  0  0  0
   50.7712   99.1191   27.2236 C   0  0  0  0  0  0
   50.6797  100.5107   27.4183 C   0  0  0  0  0  0
   51.0230  101.0649   28.6484 C   0  0  0  0  0  0
   51.4855  100.2587   29.6880 C   0  0  0  0  0  0
   51.6200   98.8752   29.4772 C   0  0  0  0  0  0
   51.2432   98.3069   28.2577 C   0  0  0  0  0  0
   51.7115  100.9009   30.8888 O   0  0  0  0  0  0
   52.5600  100.3164   31.8804 C   0  0  1  0  0  0
   54.0469  100.3883   31.4490 C   0  0  0  0  0  0
   54.4424  101.7788   31.2096 N   0  0  1  0  0  0
   54.3340  102.5992   32.4163 C   0  0  0  0  0  0
   52.9053  102.5535   33.0086 C   0  0  0  0  0  0
   52.3829  101.1124   33.1880 C   0  0  0  0  0  0
   50.4432   97.2935   25.6118 O   0  0  0  0  0  0
   49.5508   98.9699   24.1154 H   0  0  0  0  0  0
   49.2949  101.1843   24.3571 H   0  0  0  0  0  0
   50.0487  102.4039   26.4227 H   0  0  0  0  0  0
   50.9226  102.1280   28.8111 H   0  0  0  0  0  0
   51.9635   98.2160   30.2584 H   0  0  0  0  0  0
   51.2994   97.2350   28.1300 H   0  0  0  0  0  0
   52.2630   99.2863   32.0754 H   0  0  0  0  0  0
   54.6925   99.9296   32.1996 H   0  0  0  0  0  0
   54.1998   99.8223   30.5294 H   0  0  0  0  0  0
   55.3979  101.8167   30.8325 H   0  0  0  0  0  0
   54.5941  103.6248   32.1504 H   0  0  0  0  0  0
   55.0681  102.2600   33.1502 H   0  0  0  0  0  0
   52.2347  103.1373   32.3760 H   0  0  0  0  0  0
   52.9014  103.0629   33.9718 H   0  0  0  0  0  0
   51.3451  101.0915   33.5220 H   0  0  0  0  0  0
   52.9710  100.6366   33.9746 H   0  0  0  0  0  0
  1  4  1  0  0  0
  1  2  1  0  0  0
  1 19  1  0  0  0
  2  3  2  0  0  0
  2 20  1  0  0  0
  3  6  1  0  0  0
  3 21  1  0  0  0
  4  5  1  0  0  0
  4 18  2  0  0  0
  5 10  1  0  0  0
  5  6  2  0  0  0
  6  7  1  0  0  0
  7  8  2  0  0  0
  7 22  1  0  0  0
  8  9  1  0  0  0
  8 11  1  0  0  0
  9 10  2  0  0  0
  9 23  1  0  0  0
 10 24  1  0  0  0
 11 12  1  0  0  0
 12 13  1  0  0  0
 12 17  1  0  0  0
 12 25  1  0  0  0
 13 14  1  0  0  0
 13 26  1  0  0  0
 13 27  1  0  0  0
 14 15  1  0  0  0
 14 28  1  0  0  0
 15 16  1  0  0  0
 15 29  1  0  0  0
 15 30  1  0  0  0
 16 17  1  0  0  0
 16 31  1  0  0  0
 16 32  1  0  0  0
 17 33  1  0  0  0
 17 34  1  0  0  0
M  END
> <s_m_entry_id>
28128

> <s_m_entry_name>
dock_pv.289

> <s_m_Source_Path>
/home/csk/Desktop/cluster/DUD-E-result/rock1

> <s_m_Source_File>
dock_pv.maegz

> <i_m_Source_File_Index>
289

> <chembl_id>
CHEMBL1667968

> <chembl_pref_name>
None

> <i_lp_mmshare_version>
53161

> <r_lp_tautomer_probability>
1

> <s_lp_Force_Field>
OPLS_2005

> <r_lp_Energy>
30.30519

> <b_lp_Chiralities_Consistent>
1

> <s_lp_Variant>
CHEMBL3231_lig265-1

> <s_i_glide_gridfile>
glide-grid_2etr

> <i_i_glide_lignum>
410

> <i_i_glide_rotatable_bonds>
2

> <r_i_docking_score>
-7.79542347287469

> <r_i_glide_ligand_efficiency>
-0.433079081826371

> <r_i_glide_ligand_efficiency_sa>
-1.13498827561484

> <r_i_glide_ligand_efficiency_ln>
-2.00377340727208

> <r_i_glide_gscore>
-7.79542347287469

> <r_i_glide_lipo>
-2.32895174462087

> <r_i_glide_hbond>
-0.540239008022242

> <r_i_glide_metal>
0

> <r_i_glide_rewards>
-2.88532908420158

> <r_i_glide_evdw>
-29.4308261871338

> <r_i_glide_ecoul>
-7.67973470687866

> <r_i_glide_erotb>
0.582597879358495

> <r_i_glide_esite>
0

> <r_i_glide_emodel>
-56.075812635515

> <r_i_glide_energy>
-37.1105608940125

> <r_i_glide_einternal>
0.693891942501068

> <i_i_glide_confnum>
13

> <i_i_glide_posenum>
350

> <r_i_glide_eff_state_penalty>
0

> <s_user_duplicate_titles>
CHEMBL3231_lig265

> <i_f3d_flags>
0

> <s_m_subgroup_title>
dock_pv

> <s_m_subgroupid>
dock_pv

> <b_m_subgroup_collapsed>
1

$$$$
CHEMBL3231_lig793
                    3D
 Schrodinger Suite 2021-1.
 51 54  0  0  1  0            999 V2000
   50.3670  104.1774   27.9558 C   0  0  0  0  0  0
   50.4429  102.7913   27.6210 O   0  0  0  0  0  0
   51.0733  101.9056   28.4766 C   0  0  0  0  0  0
   51.5284  102.2994   29.7444 C   0  0  0  0  0  0
   52.1980  101.4129   30.5878 C   0  0  0  0  0  0
   52.4500  100.1144   30.1458 C   0  0  0  0  0  0
   51.9677   99.6951   28.9076 C   0  0  0  0  0  0
   51.2560  100.5665   28.0693 C   0  0  0  0  0  0
   50.6989  100.0090   26.7871 C   0  0  0  0  0  0
   50.1088  100.6764   25.7193 C   0  0  0  0  0  0
   49.7425   99.7228   24.8111 N   0  0  0  0  0  0
   50.0430   98.4870   25.2120 N   0  0  0  0  0  0
   50.6108   98.6597   26.3827 C   0  0  0  0  0  0
   52.5454  101.8463   31.9806 C   0  0  0  0  0  0
   51.6589  102.3309   32.6851 O   0  0  0  0  0  0
   53.8317  101.6789   32.3545 N   0  0  0  0  0  0
   54.4132  101.9109   33.6876 C   0  0  0  0  0  0
   53.9426  103.1661   34.4229 C   0  0  0  0  0  0
   54.6290  104.3784   34.3064 C   0  0  0  0  0  0
   54.1470  105.5172   34.9539 C   0  0  0  0  0  0
   52.9637  105.4575   35.6948 C   0  0  0  0  0  0
   52.2585  104.2509   35.8130 C   0  0  0  0  0  0
   52.8046  103.0977   35.2286 C   0  0  0  0  0  0
   50.9008  104.2123   36.4720 C   0  0  0  0  0  0
   50.6049  104.9713   37.3983 O   0  0  0  0  0  0
   50.0336  103.3537   35.9048 N   0  0  0  0  0  0
   48.6270  103.2068   36.2394 C   0  0  0  0  0  0
   47.6698  104.3068   35.8363 C   0  0  0  0  0  0
   47.6725  102.9938   35.0880 C   0  0  0  0  0  0
   50.0430  104.7407   27.0819 H   0  0  0  0  0  0
   49.6409  104.3461   28.7521 H   0  0  0  0  0  0
   51.3304  104.5924   28.2551 H   0  0  0  0  0  0
   51.3533  103.3015   30.1028 H   0  0  0  0  0  0
   52.9666   99.4059   30.7788 H   0  0  0  0  0  0
   52.1418   98.6696   28.6188 H   0  0  0  0  0  0
   49.9113  101.7210   25.5366 H   0  0  0  0  0  0
   49.2877   99.9025   23.9197 H   0  0  0  0  0  0
   50.9488   97.8037   26.9487 H   0  0  0  0  0  0
   54.4585  101.2719   31.6721 H   0  0  0  0  0  0
   54.2280  101.0325   34.3082 H   0  0  0  0  0  0
   55.4986  101.9487   33.5806 H   0  0  0  0  0  0
   55.5140  104.4475   33.6885 H   0  0  0  0  0  0
   54.6593  106.4616   34.8360 H   0  0  0  0  0  0
   52.5743  106.3650   36.1365 H   0  0  0  0  0  0
   52.2970  102.1457   35.3119 H   0  0  0  0  0  0
   50.4193  102.6556   35.2852 H   0  0  0  0  0  0
   48.4431  102.6954   37.1862 H   0  0  0  0  0  0
   46.8436  104.5405   36.5067 H   0  0  0  0  0  0
   48.0741  105.1978   35.3574 H   0  0  0  0  0  0
   48.0895  102.9391   34.0835 H   0  0  0  0  0  0
   46.8436  102.3021   35.2106 H   0  0  0  0  0  0
  1  2  1  0  0  0
  1 30  1  0  0  0
  1 31  1  0  0  0
  1 32  1  0  0  0
  2  3  1  0  0  0
  3  4  2  0  0  0
  3  8  1  0  0  0
  4  5  1  0  0  0
  4 33  1  0  0  0
  5  6  2  0  0  0
  5 14  1  0  0  0
  6  7  1  0  0  0
  6 34  1  0  0  0
  7  8  2  0  0  0
  7 35  1  0  0  0
  8  9  1  0  0  0
  9 10  2  0  0  0
  9 13  1  0  0  0
 10 11  1  0  0  0
 10 36  1  0  0  0
 11 12  1  0  0  0
 11 37  1  0  0  0
 12 13  2  0  0  0
 13 38  1  0  0  0
 14 15  2  0  0  0
 14 16  1  0  0  0
 16 17  1  0  0  0
 16 39  1  0  0  0
 17 18  1  0  0  0
 17 40  1  0  0  0
 17 41  1  0  0  0
 18 19  2  0  0  0
 18 23  1  0  0  0
 19 20  1  0  0  0
 19 42  1  0  0  0
 20 21  2  0  0  0
 20 43  1  0  0  0
 21 22  1  0  0  0
 21 44  1  0  0  0
 22 23  2  0  0  0
 22 24  1  0  0  0
 23 45  1  0  0  0
 24 25  2  0  0  0
 24 26  1  0  0  0
 26 27  1  0  0  0
 26 46  1  0  0  0
 27 28  1  0  0  0
 27 29  1  0  0  0
 27 47  1  0  0  0
 28 29  1  0  0  0
 28 48  1  0  0  0
 28 49  1  0  0  0
 29 50  1  0  0  0
 29 51  1  0  0  0
M  END
> <s_m_entry_id>
28130

> <s_m_entry_name>
dock_pv.291

> <s_m_Source_Path>
/home/csk/Desktop/cluster/DUD-E-result/rock1

> <s_m_Source_File>
dock_pv.maegz

> <i_m_Source_File_Index>
291

> <chembl_id>
CHEMBL3947008

> <chembl_pref_name>
None

> <i_lp_mmshare_version>
53161

> <r_lp_tautomer_probability>
0.5

> <s_lp_Force_Field>
OPLS_2005

> <r_lp_Energy>
36.966737

> <b_lp_Chiralities_Consistent>
1

> <s_lp_Variant>
CHEMBL3231_lig793-1

> <s_i_glide_gridfile>
glide-grid_2etr

> <i_i_glide_lignum>
1120

> <i_i_glide_rotatable_bonds>
9

> <r_i_docking_score>
-7.79373223135304

> <r_i_glide_ligand_efficiency>
-0.268749387288036

> <r_i_glide_ligand_efficiency_sa>
-0.825683263531021

> <r_i_glide_ligand_efficiency_ln>
-1.78456704898261

> <r_i_glide_gscore>
-7.79373223135304

> <r_i_glide_lipo>
-2.88230112326554

> <r_i_glide_hbond>
-0.465040926411231

> <r_i_glide_metal>
0

> <r_i_glide_rewards>
-1.70445327231736

> <r_i_glide_evdw>
-48.0712585449219

> <r_i_glide_ecoul>
-6.76528024673462

> <r_i_glide_erotb>
0.716512469660858

> <r_i_glide_esite>
-0.0400944147634777

> <r_i_glide_emodel>
-79.8719614761934

> <r_i_glide_energy>
-54.8365387916565

> <r_i_glide_einternal>
3.06376028060913

> <i_i_glide_confnum>
97

> <i_i_glide_posenum>
152

> <r_i_glide_eff_state_penalty>
0

> <s_user_duplicate_titles>
CHEMBL3231_lig793

> <i_f3d_flags>
0

> <s_m_subgroup_title>
dock_pv

> <s_m_subgroupid>
dock_pv

> <b_m_subgroup_collapsed>
1

$$$$
CHEMBL3231_lig756
                    3D
 Schrodinger Suite 2021-1.
 47 49  0  0  1  0            999 V2000
   50.8428   97.8984   31.2107 C   0  0  0  0  0  0
   51.8394   97.8630   30.0628 C   0  0  0  0  0  0
   51.6241   98.7780   28.9984 O   0  0  0  0  0  0
   51.5683  100.1411   29.1923 C   0  0  0  0  0  0
   51.9943  100.7581   30.3787 C   0  0  0  0  0  0
   51.7972  102.1292   30.6022 C   0  0  0  0  0  0
   51.2572  102.8954   29.5623 C   0  0  0  0  0  0
   50.8821  102.3016   28.3621 C   0  0  0  0  0  0
   51.0269  100.9234   28.1577 C   0  0  0  0  0  0
   50.5696  100.3441   26.8446 C   0  0  0  0  0  0
   50.5461   99.0089   26.3817 C   0  0  0  0  0  0
   50.0430   98.8642   25.1790 N   0  0  0  0  0  0
   49.7313  100.1039   24.8110 N   0  0  0  0  0  0
   50.0429  101.0344   25.7626 C   0  0  0  0  0  0
   52.0551  102.7658   31.9507 C   0  0  0  0  0  0
   51.6438  103.9020   32.1926 O   0  0  0  0  0  0
   52.6676  102.0076   32.8801 N   0  0  0  0  0  0
   52.8041  102.3384   34.3058 C   0  0  2  0  0  0
   53.7034  101.3054   35.0250 C   0  0  0  0  0  0
   54.0056  101.7076   36.3492 O   0  0  0  0  0  0
   51.4544  102.5410   35.0216 C   0  0  0  0  0  0
   50.4603  101.5495   34.9834 C   0  0  0  0  0  0
   50.6738  100.3822   34.3327 F   0  0  0  0  0  0
   49.2323  101.7567   35.6123 C   0  0  0  0  0  0
   48.9871  102.9438   36.3003 C   0  0  0  0  0  0
   49.9715  103.9278   36.3563 C   0  0  0  0  0  0
   51.1971  103.7299   35.7206 C   0  0  0  0  0  0
   52.1315  104.7062   35.7905 F   0  0  0  0  0  0
   51.1079   97.1048   31.9096 H   0  0  0  0  0  0
   50.8052   98.8392   31.7567 H   0  0  0  0  0  0
   49.8585   97.6739   30.8117 H   0  0  0  0  0  0
   51.6429   96.8905   29.6187 H   0  0  0  0  0  0
   52.8741   97.8955   30.4117 H   0  0  0  0  0  0
   52.4323  100.1471   31.1512 H   0  0  0  0  0  0
   51.1086  103.9586   29.6775 H   0  0  0  0  0  0
   50.4587  102.9327   27.5964 H   0  0  0  0  0  0
   50.8815   98.1339   26.9165 H   0  0  0  0  0  0
   49.3101  100.3034   23.9076 H   0  0  0  0  0  0
   49.8295  102.0819   25.6114 H   0  0  0  0  0  0
   53.1789  101.2002   32.5565 H   0  0  0  0  0  0
   53.3615  103.2788   34.3312 H   0  0  0  0  0  0
   53.2174  100.3295   35.0652 H   0  0  0  0  0  0
   54.6394  101.1654   34.4809 H   0  0  0  0  0  0
   54.6246  101.0784   36.7311 H   0  0  0  0  0  0
   48.4672  100.9945   35.5726 H   0  0  0  0  0  0
   48.0389  103.0973   36.7939 H   0  0  0  0  0  0
   49.7888  104.8497   36.8878 H   0  0  0  0  0  0
  1  2  1  0  0  0
  1 29  1  0  0  0
  1 30  1  0  0  0
  1 31  1  0  0  0
  2  3  1  0  0  0
  2 32  1  0  0  0
  2 33  1  0  0  0
  3  4  1  0  0  0
  4  5  2  0  0  0
  4  9  1  0  0  0
  5  6  1  0  0  0
  5 34  1  0  0  0
  6  7  2  0  0  0
  6 15  1  0  0  0
  7  8  1  0  0  0
  7 35  1  0  0  0
  8  9  2  0  0  0
  8 36  1  0  0  0
  9 10  1  0  0  0
 10 11  1  0  0  0
 10 14  2  0  0  0
 11 12  2  0  0  0
 11 37  1  0  0  0
 12 13  1  0  0  0
 13 14  1  0  0  0
 13 38  1  0  0  0
 14 39  1  0  0  0
 15 16  2  0  0  0
 15 17  1  0  0  0
 17 18  1  0  0  0
 17 40  1  0  0  0
 18 19  1  0  0  0
 18 21  1  0  0  0
 18 41  1  0  0  0
 19 20  1  0  0  0
 19 42  1  0  0  0
 19 43  1  0  0  0
 20 44  1  0  0  0
 21 22  2  0  0  0
 21 27  1  0  0  0
 22 23  1  0  0  0
 22 24  1  0  0  0
 24 25  2  0  0  0
 24 45  1  0  0  0
 25 26  1  0  0  0
 25 46  1  0  0  0
 26 27  2  0  0  0
 26 47  1  0  0  0
 27 28  1  0  0  0
M  END
> <s_m_entry_id>
28131

> <s_m_entry_name>
dock_pv.292

> <s_m_Source_Path>
/home/csk/Desktop/cluster/DUD-E-result/rock1

> <s_m_Source_File>
dock_pv.maegz

> <i_m_Source_File_Index>
292

> <chembl_id>
CHEMBL4106845

> <chembl_pref_name>
None

> <i_lp_mmshare_version>
53161

> <r_lp_tautomer_probability>
0.5

> <s_lp_Force_Field>
OPLS_2005

> <r_lp_Energy>
20.772737

> <b_lp_Chiralities_Consistent>
1

> <s_lp_Variant>
CHEMBL3231_lig756-1

> <s_i_glide_gridfile>
glide-grid_2etr

> <i_i_glide_lignum>
1074

> <i_i_glide_rotatable_bonds>
9

> <r_i_docking_score>
-7.79344076329376

> <r_i_glide_ligand_efficiency>
-0.278337170117634

> <r_i_glide_ligand_efficiency_sa>
-0.845195580303501

> <r_i_glide_ligand_efficiency_ln>
-1.79895495353209

> <r_i_glide_gscore>
-7.79344076329376

> <r_i_glide_lipo>
-2.98832674168274

> <r_i_glide_hbond>
-0.435999411175811

> <r_i_glide_metal>
0

> <r_i_glide_rewards>
-2.16896430396347

> <r_i_glide_evdw>
-40.099723815918

> <r_i_glide_ecoul>
-6.09983968734741

> <r_i_glide_erotb>
0.778596603280452

> <r_i_glide_esite>
-0.0587847658541904

> <r_i_glide_emodel>
-68.8700636980402

> <r_i_glide_energy>
-46.1995635032654

> <r_i_glide_einternal>
3.01071333885193

> <i_i_glide_confnum>
32

> <i_i_glide_posenum>
49

> <r_i_glide_eff_state_penalty>
0

> <s_user_duplicate_titles>
CHEMBL3231_lig756

> <i_f3d_flags>
0

> <s_m_subgroup_title>
dock_pv

> <s_m_subgroupid>
dock_pv

> <b_m_subgroup_collapsed>
1

$$$$
CHEMBL3231_lig541
                    3D
 Schrodinger Suite 2021-1.
 48 51  0  0  1  0            999 V2000
   53.7394  100.3455   34.9467 C   0  0  0  0  0  0
   53.2510  101.6124   34.3627 N   0  0  0  0  0  0
   54.0660  102.1221   33.3839 C   0  0  0  0  0  0
   55.0927  101.5791   32.9686 O   0  0  0  0  0  0
   53.6430  103.4851   32.7844 C   0  0  1  0  0  0
   52.4782  103.4283   31.7476 C   0  0  0  0  0  0
   52.7714  102.7340   30.3891 C   0  0  1  0  0  0
   52.9683  101.1782   30.4955 C   0  0  0  0  0  0
   52.3723  100.3633   29.3495 C   0  0  0  0  0  0
   51.5194  100.8536   28.4220 C   0  0  0  0  0  0
   51.1364  102.2550   28.5129 C   0  0  0  0  0  0
   51.6807  103.1182   29.3861 C   0  0  0  0  0  0
   50.9905   99.9931   27.3196 C   0  0  0  0  0  0
   50.9680   98.5899   27.4235 C   0  0  0  0  0  0
   50.4844   97.8284   26.3616 C   0  0  0  0  0  0
   50.0387   98.3781   25.2119 N   0  0  0  0  0  0
   50.0452   99.7291   25.1074 C   0  0  0  0  0  0
   50.5046  100.5599   26.1285 C   0  0  0  0  0  0
   53.4511  104.4885   33.8368 N   0  0  0  0  0  0
   52.4891  104.5536   34.7674 C   0  0  0  0  0  0
   52.3842  105.5027   35.5470 O   0  0  0  0  0  0
   51.5396  103.3727   34.8340 C   0  0  0  0  0  0
   50.2196  103.7100   35.1733 C   0  0  0  0  0  0
   49.2505  102.7271   35.3177 C   0  0  0  0  0  0
   47.6148  103.1742   35.6130 Cl  0  0  0  0  0  0
   49.6056  101.3911   35.2123 C   0  0  0  0  0  0
   50.9154  101.0467   34.8935 C   0  0  0  0  0  0
   51.9050  102.0107   34.6217 C   0  0  0  0  0  0
   54.8029  100.3904   35.1893 H   0  0  0  0  0  0
   53.2160  100.1104   35.8745 H   0  0  0  0  0  0
   53.5836   99.5260   34.2439 H   0  0  0  0  0  0
   54.5138  103.8515   32.2358 H   0  0  0  0  0  0
   51.5718  103.0007   32.1728 H   0  0  0  0  0  0
   52.2251  104.4668   31.5347 H   0  0  0  0  0  0
   53.6930  103.1593   29.9802 H   0  0  0  0  0  0
   54.0351  100.9567   30.5592 H   0  0  0  0  0  0
   52.5220  100.7908   31.4112 H   0  0  0  0  0  0
   52.6859   99.3333   29.2908 H   0  0  0  0  0  0
   50.3636  102.6351   27.8611 H   0  0  0  0  0  0
   51.3319  104.1393   29.3512 H   0  0  0  0  0  0
   51.2993   98.0760   28.3114 H   0  0  0  0  0  0
   50.4544   96.7504   26.4199 H   0  0  0  0  0  0
   49.6828  100.1441   24.1779 H   0  0  0  0  0  0
   50.5113  101.6256   25.9643 H   0  0  0  0  0  0
   54.1109  105.2530   33.8715 H   0  0  0  0  0  0
   49.9261  104.7416   35.3170 H   0  0  0  0  0  0
   48.8651  100.6193   35.3635 H   0  0  0  0  0  0
   51.1530   99.9952   34.8197 H   0  0  0  0  0  0
  1  2  1  0  0  0
  1 29  1  0  0  0
  1 30  1  0  0  0
  1 31  1  0  0  0
  2  3  1  0  0  0
  2 28  1  0  0  0
  3  4  2  0  0  0
  3  5  1  0  0  0
  5  6  1  0  0  0
  5 19  1  0  0  0
  5 32  1  0  0  0
  6  7  1  0  0  0
  6 33  1  0  0  0
  6 34  1  0  0  0
  7  8  1  0  0  0
  7 12  1  0  0  0
  7 35  1  0  0  0
  8  9  1  0  0  0
  8 36  1  0  0  0
  8 37  1  0  0  0
  9 10  2  0  0  0
  9 38  1  0  0  0
 10 11  1  0  0  0
 10 13  1  0  0  0
 11 12  2  0  0  0
 11 39  1  0  0  0
 12 40  1  0  0  0
 13 14  2  0  0  0
 13 18  1  0  0  0
 14 15  1  0  0  0
 14 41  1  0  0  0
 15 16  2  0  0  0
 15 42  1  0  0  0
 16 17  1  0  0  0
 17 18  2  0  0  0
 17 43  1  0  0  0
 18 44  1  0  0  0
 19 20  1  0  0  0
 19 45  1  0  0  0
 20 21  2  0  0  0
 20 22  1  0  0  0
 22 23  2  0  0  0
 22 28  1  0  0  0
 23 24  1  0  0  0
 23 46  1  0  0  0
 24 25  1  0  0  0
 24 26  2  0  0  0
 26 27  1  0  0  0
 26 47  1  0  0  0
 27 28  2  0  0  0
 27 48  1  0  0  0
M  END
> <s_m_entry_id>
28133

> <s_m_entry_name>
dock_pv.294

> <s_m_Source_Path>
/home/csk/Desktop/cluster/DUD-E-result/rock1

> <s_m_Source_File>
dock_pv.maegz

> <i_m_Source_File_Index>
294

> <chembl_id>
CHEMBL4112110

> <chembl_pref_name>
None

> <i_lp_mmshare_version>
53161

> <r_lp_tautomer_probability>
1

> <s_lp_Force_Field>
OPLS_2005

> <r_lp_Energy>
48.301833

> <b_lp_Chiralities_Consistent>
1

> <s_lp_Variant>
CHEMBL3231_lig541-2

> <s_i_glide_gridfile>
glide-grid_2etr

> <i_i_glide_lignum>
819

> <i_i_glide_rotatable_bonds>
3

> <r_i_docking_score>
-7.79071321057147

> <r_i_glide_ligand_efficiency>
-0.27823975752041

> <r_i_glide_ligand_efficiency_sa>
-0.844899778285374

> <r_i_glide_ligand_efficiency_ln>
-1.79832535427936

> <r_i_glide_gscore>
-7.79071321057147

> <r_i_glide_lipo>
-3.31194271812717

> <r_i_glide_hbond>
-0.200853251558081

> <r_i_glide_metal>
0

> <r_i_glide_rewards>
-2.08197560606061

> <r_i_glide_evdw>
-45.7627372741699

> <r_i_glide_ecoul>
-1.40339040756226

> <r_i_glide_erotb>
0.37785929908351

> <r_i_glide_esite>
-0.0751555090662855

> <r_i_glide_emodel>
-68.4715332691229

> <r_i_glide_energy>
-47.1661276817322

> <r_i_glide_einternal>
0.963165163993835

> <i_i_glide_confnum>
40

> <i_i_glide_posenum>
374

> <r_i_glide_eff_state_penalty>
0

> <s_user_duplicate_titles>
CHEMBL3231_lig541

> <i_f3d_flags>
0

> <s_m_subgroup_title>
dock_pv

> <s_m_subgroupid>
dock_pv

> <b_m_subgroup_collapsed>
1

$$$$
CHEMBL3231_lig192
                    3D
 Schrodinger Suite 2021-1.
 40 42  0  0  1  0            999 V2000
   52.2474  102.7890   32.7388 C   0  0  2  0  0  0
   51.6931  102.3734   31.3416 C   0  0  0  0  0  0
   52.1264  101.2100   30.8051 N   0  0  0  0  0  0
   50.8427  103.1024   30.8263 O   0  0  0  0  0  0
   51.6896  100.5784   29.6278 C   0  0  0  0  0  0
   51.3159  101.3104   28.4889 C   0  0  0  0  0  0
   51.2430   98.5117   28.4276 C   0  0  0  0  0  0
   51.6429   99.1734   29.5915 C   0  0  0  0  0  0
   50.8621   99.2424   27.2982 C   0  0  0  0  0  0
   50.8902  100.6505   27.3383 C   0  0  0  0  0  0
   50.4429  101.3874   26.1482 C   0  0  0  0  0  0
   50.0422  100.6694   25.0853 C   0  0  0  0  0  0
   50.0423   99.3113   25.0167 N   0  0  0  0  0  0
   50.4401   98.4995   26.0302 C   0  0  0  0  0  0
   50.4432   97.2822   25.8729 O   0  0  0  0  0  0
   52.0686   98.2150   30.9680 Cl  0  0  0  0  0  0
   53.6261  102.2699   32.9782 N   0  0  2  0  0  0
   51.2190  102.4904   33.8089 C   0  0  0  0  0  0
   51.0142  101.1802   34.2658 C   0  0  0  0  0  0
   50.0276  100.9126   35.2107 C   0  0  0  0  0  0
   49.2342  101.9486   35.6972 C   0  0  0  0  0  0
   49.4416  103.2572   35.2687 C   0  0  0  0  0  0
   50.4369  103.5278   34.3346 C   0  0  0  0  0  0
   54.6821  102.7605   32.0967 C   0  0  0  0  0  0
   52.3551  103.8750   32.6785 H   0  0  0  0  0  0
   52.8088  100.6941   31.3384 H   0  0  0  0  0  0
   51.3520  102.3889   28.4925 H   0  0  0  0  0  0
   51.2230   97.4311   28.4161 H   0  0  0  0  0  0
   50.4105  102.4668   26.1318 H   0  0  0  0  0  0
   49.6667  101.1005   24.1680 H   0  0  0  0  0  0
   49.7310   98.8495   24.1768 H   0  0  0  0  0  0
   53.6921  101.2825   33.1879 H   0  0  0  0  0  0
   51.6083  100.3671   33.8755 H   0  0  0  0  0  0
   49.8652   99.9031   35.5503 H   0  0  0  0  0  0
   48.4480  101.7406   36.4109 H   0  0  0  0  0  0
   48.8304  104.0566   35.6601 H   0  0  0  0  0  0
   50.5961  104.5445   34.0094 H   0  0  0  0  0  0
   55.6433  102.3800   32.4380 H   0  0  0  0  0  0
   54.5461  102.4322   31.0663 H   0  0  0  0  0  0
   54.7310  103.8510   32.1034 H   0  0  0  0  0  0
  1  2  1  0  0  0
  1 17  1  0  0  0
  1 18  1  0  0  0
  1 25  1  0  0  0
  2  4  2  0  0  0
  2  3  1  0  0  0
  3  5  1  0  0  0
  3 26  1  0  0  0
  5  8  1  0  0  0
  5  6  2  0  0  0
  6 10  1  0  0  0
  6 27  1  0  0  0
  7  9  1  0  0  0
  7  8  2  0  0  0
  7 28  1  0  0  0
  8 16  1  0  0  0
  9 14  1  0  0  0
  9 10  2  0  0  0
 10 11  1  0  0  0
 11 12  2  0  0  0
 11 29  1  0  0  0
 12 13  1  0  0  0
 12 30  1  0  0  0
 13 14  1  0  0  0
 13 31  1  0  0  0
 14 15  2  0  0  0
 17 24  1  0  0  0
 17 32  1  0  0  0
 18 19  2  0  0  0
 18 23  1  0  0  0
 19 20  1  0  0  0
 19 33  1  0  0  0
 20 21  2  0  0  0
 20 34  1  0  0  0
 21 22  1  0  0  0
 21 35  1  0  0  0
 22 23  2  0  0  0
 22 36  1  0  0  0
 23 37  1  0  0  0
 24 38  1  0  0  0
 24 39  1  0  0  0
 24 40  1  0  0  0
M  END
> <s_m_entry_id>
28134

> <s_m_entry_name>
dock_pv.295

> <s_m_Source_Path>
/home/csk/Desktop/cluster/DUD-E-result/rock1

> <s_m_Source_File>
dock_pv.maegz

> <i_m_Source_File_Index>
295

> <chembl_id>
CHEMBL1084892

> <chembl_pref_name>
None

> <i_lp_mmshare_version>
53161

> <r_lp_tautomer_probability>
1

> <s_lp_Force_Field>
OPLS_2005

> <r_lp_Energy>
29.237794

> <b_lp_Chiralities_Consistent>
1

> <s_lp_Variant>
CHEMBL3231_lig192-1

> <s_i_glide_gridfile>
glide-grid_2etr

> <i_i_glide_lignum>
321

> <i_i_glide_rotatable_bonds>
5

> <r_i_docking_score>
-7.78736631408866

> <r_i_glide_ligand_efficiency>
-0.324473596420361

> <r_i_glide_ligand_efficiency_sa>
-0.935943809035237

> <r_i_glide_ligand_efficiency_ln>
-1.86387409791705

> <r_i_glide_gscore>
-7.78736631408866

> <r_i_glide_lipo>
-3.47266997852943

> <r_i_glide_hbond>
-0.179353111781657

> <r_i_glide_metal>
0

> <r_i_glide_rewards>
-1.52034213770281

> <r_i_glide_evdw>
-44.4907493591309

> <r_i_glide_ecoul>
-4.47618818283081

> <r_i_glide_erotb>
0.324502503782714

> <r_i_glide_esite>
-0.0435378944763093

> <r_i_glide_emodel>
-70.924117119252

> <r_i_glide_energy>
-48.9669375419617

> <r_i_glide_einternal>
2.84086632728577

> <i_i_glide_confnum>
3

> <i_i_glide_posenum>
13

> <r_i_glide_eff_state_penalty>
0

> <s_user_duplicate_titles>
CHEMBL3231_lig192,631576

> <i_f3d_flags>
0

> <s_m_subgroup_title>
dock_pv

> <s_m_subgroupid>
dock_pv

> <b_m_subgroup_collapsed>
1

$$$$
CHEMBL3231_lig946 
                    3D
 Schrodinger Suite 2021-1.
 47 50  0  0  1  0            999 V2000
   50.1294   99.8307   24.9481 C   0  0  0  0  0  0
   50.0426   98.4798   25.0188 N   0  0  0  0  0  0
   50.4025   97.8793   26.1781 C   0  0  0  0  0  0
   50.8372   98.5907   27.2931 C   0  0  0  0  0  0
   50.9212   99.9907   27.2225 C   0  0  0  0  0  0
   50.5667  100.6143   26.0140 C   0  0  0  0  0  0
   51.3516  100.7906   28.4009 C   0  0  0  0  0  0
   52.3077  100.2978   29.2964 C   0  0  0  0  0  0
   52.6736  101.0286   30.4225 C   0  0  0  0  0  0
   52.0852  102.2737   30.6697 C   0  0  0  0  0  0
   51.1636  102.7884   29.7549 C   0  0  0  0  0  0
   50.7902  102.0484   28.6409 C   0  0  0  0  0  0
   52.4345  103.0761   31.8957 C   0  0  0  0  0  0
   52.7101  102.3743   33.0108 N   0  0  0  0  0  0
   52.3796  104.3018   31.8630 O   0  0  0  0  0  0
   53.0900  102.9220   34.3196 C   0  0  0  0  0  0
   52.3127  104.1401   34.8373 C   0  0  0  0  0  0
   53.0389  105.2399   35.3065 C   0  0  0  0  0  0
   52.3840  106.3862   35.7428 C   0  0  0  0  0  0
   50.9952  106.4456   35.7090 C   0  0  0  0  0  0
   50.2489  105.3601   35.2531 C   0  0  0  0  0  0
   50.9060  104.1898   34.8155 C   0  0  0  0  0  0
   50.1909  103.1217   34.3195 O   0  0  0  0  0  0
   48.8813  105.4850   35.2225 O   0  0  0  0  0  0
   49.3180  102.4583   35.2240 C   0  0  0  0  0  0
   48.1555  104.5826   36.0425 C   0  0  0  0  0  0
   47.9917  103.2030   35.4007 C   0  0  0  0  0  0
   49.8394  100.2852   24.0111 H   0  0  0  0  0  0
   50.3322   96.8007   26.2067 H   0  0  0  0  0  0
   51.0892   98.0588   28.1991 H   0  0  0  0  0  0
   50.6229  101.6867   25.8975 H   0  0  0  0  0  0
   52.7774   99.3403   29.1245 H   0  0  0  0  0  0
   53.4191  100.6146   31.0863 H   0  0  0  0  0  0
   50.7148  103.7578   29.9050 H   0  0  0  0  0  0
   50.0473  102.4561   27.9710 H   0  0  0  0  0  0
   52.7903  101.3747   32.9112 H   0  0  0  0  0  0
   52.9694  102.1222   35.0506 H   0  0  0  0  0  0
   54.1605  103.1365   34.2874 H   0  0  0  0  0  0
   54.1194  105.2201   35.3121 H   0  0  0  0  0  0
   52.9543  107.2355   36.0888 H   0  0  0  0  0  0
   50.4912  107.3434   36.0322 H   0  0  0  0  0  0
   49.8091  102.2729   36.1823 H   0  0  0  0  0  0
   49.1189  101.4688   34.8121 H   0  0  0  0  0  0
   48.5970  104.5141   37.0379 H   0  0  0  0  0  0
   47.1769  105.0250   36.2080 H   0  0  0  0  0  0
   47.3166  102.6086   36.0109 H   0  0  0  0  0  0
   47.4930  103.2996   34.4365 H   0  0  0  0  0  0
  1  2  2  0  0  0
  1  6  1  0  0  0
  1 28  1  0  0  0
  2  3  1  0  0  0
  3  4  2  0  0  0
  3 29  1  0  0  0
  4  5  1  0  0  0
  4 30  1  0  0  0
  5  6  2  0  0  0
  5  7  1  0  0  0
  6 31  1  0  0  0
  7  8  2  0  0  0
  7 12  1  0  0  0
  8  9  1  0  0  0
  8 32  1  0  0  0
  9 10  2  0  0  0
  9 33  1  0  0  0
 10 11  1  0  0  0
 10 13  1  0  0  0
 11 12  2  0  0  0
 11 34  1  0  0  0
 12 35  1  0  0  0
 13 14  1  0  0  0
 13 15  2  0  0  0
 14 16  1  0  0  0
 14 36  1  0  0  0
 16 17  1  0  0  0
 16 37  1  0  0  0
 16 38  1  0  0  0
 17 18  2  0  0  0
 17 22  1  0  0  0
 18 19  1  0  0  0
 18 39  1  0  0  0
 19 20  2  0  0  0
 19 40  1  0  0  0
 20 21  1  0  0  0
 20 41  1  0  0  0
 21 22  2  0  0  0
 21 24  1  0  0  0
 22 23  1  0  0  0
 23 25  1  0  0  0
 24 26  1  0  0  0
 25 27  1  0  0  0
 25 42  1  0  0  0
 25 43  1  0  0  0
 26 27  1  0  0  0
 26 44  1  0  0  0
 26 45  1  0  0  0
 27 46  1  0  0  0
 27 47  1  0  0  0
M  END
> <s_m_entry_id>
28136

> <s_m_entry_name>
dock_pv.297

> <s_m_Source_Path>
/home/csk/Desktop/cluster/DUD-E-result/rock1

> <s_m_Source_File>
dock_pv.maegz

> <i_m_Source_File_Index>
297

> <chembl_id>
CHEMBL4463301

> <chembl_pref_name>
None

> <i_lp_mmshare_version>
53161

> <r_lp_tautomer_probability>
1

> <s_lp_Force_Field>
OPLS_2005

> <r_lp_Energy>
27.491714

> <b_lp_Chiralities_Consistent>
1

> <s_lp_Variant>
CHEMBL3231_lig946 -1

> <s_i_glide_gridfile>
glide-grid_2etr

> <i_i_glide_lignum>
1360

> <i_i_glide_rotatable_bonds>
5

> <r_i_docking_score>
-7.77553176496311

> <r_i_glide_ligand_efficiency>
-0.287982657961596

> <r_i_glide_ligand_efficiency_sa>
-0.863947972935646

> <r_i_glide_ligand_efficiency_ln>
-1.8100156052237

> <r_i_glide_gscore>
-7.77553176496311

> <r_i_glide_lipo>
-3.11304418620899

> <r_i_glide_hbond>
-0.248076092402298

> <r_i_glide_metal>
0

> <r_i_glide_rewards>
-2.30977715411672

> <r_i_glide_evdw>
-45.057258605957

> <r_i_glide_ecoul>
-2.58168339729309

> <r_i_glide_erotb>
0.590600102753257

> <r_i_glide_esite>
-0.0551189950965409

> <r_i_glide_emodel>
-68.5803761609314

> <r_i_glide_energy>
-47.6389420032501

> <r_i_glide_einternal>
6.01897096633911

> <i_i_glide_confnum>
3

> <i_i_glide_posenum>
49

> <r_i_glide_eff_state_penalty>
0

> <s_user_duplicate_titles>
CHEMBL3231_lig946 

> <i_f3d_flags>
0

> <s_m_subgroup_title>
dock_pv

> <s_m_subgroupid>
dock_pv

> <b_m_subgroup_collapsed>
1

$$$$
CHEMBL3231_lig882
                    3D
 Schrodinger Suite 2021-1.
 49 53  0  0  1  0            999 V2000
   52.0787   99.8316   31.4731 N   0  0  0  0  0  0
   52.2838  100.6400   32.4661 C   0  0  0  0  0  0
   52.2231  102.0089   32.2822 N   0  0  0  0  0  0
   51.8257  102.6927   31.1735 C   0  0  0  0  0  0
   51.7545  100.3879   30.2634 C   0  0  0  0  0  0
   51.6118  101.7661   30.0821 C   0  0  0  0  0  0
   51.0647  102.1851   28.5068 S   0  0  0  0  0  0
   51.0827  100.5101   28.0201 C   0  0  0  0  0  0
   51.4908   99.6901   29.0808 C   0  0  0  0  0  0
   50.6757  100.1623   26.6615 C   0  0  0  0  0  0
   50.4233  101.0559   25.6368 C   0  0  0  0  0  0
   50.0431  100.3029   24.5646 N   0  0  0  0  0  0
   50.0423   98.9991   24.8254 N   0  0  0  0  0  0
   50.4070   98.9043   26.0869 C   0  0  0  0  0  0
   51.6560  103.9029   31.2016 O   0  0  0  0  0  0
   50.4429   97.5517   26.7380 C   0  0  0  0  0  0
   52.5496  100.1303   33.8975 C   0  0  1  0  0  0
   53.9871  100.0797   34.2515 N   0  0  0  0  0  0
   54.2726   99.4033   35.5165 C   0  0  0  0  0  0
   55.7875   99.1925   35.5341 C   0  0  0  0  0  0
   56.1698   99.1184   34.0558 C   0  0  0  0  0  0
   54.8474   99.3400   33.3232 C   0  0  0  0  0  0
   51.6945  100.9562   34.8902 C   0  0  0  0  0  0
   52.2319  102.0498   35.5846 C   0  0  0  0  0  0
   51.4066  102.8756   36.3438 C   0  0  0  0  0  0
   50.0398  102.6146   36.4109 C   0  0  0  0  0  0
   49.4941  101.5256   35.7373 C   0  0  0  0  0  0
   50.3210  100.7029   34.9788 C   0  0  0  0  0  0
   52.4180  102.5918   33.0808 H   0  0  0  0  0  0
   51.5624   98.6162   29.0260 H   0  0  0  0  0  0
   50.4613  102.1333   25.6111 H   0  0  0  0  0  0
   49.7536  100.6605   23.6618 H   0  0  0  0  0  0
   51.4034   97.3696   27.2121 H   0  0  0  0  0  0
   49.6790   97.5027   27.5156 H   0  0  0  0  0  0
   50.2640   96.7255   26.0468 H   0  0  0  0  0  0
   52.1815   99.1037   33.9559 H   0  0  0  0  0  0
   53.9382  100.0276   36.3477 H   0  0  0  0  0  0
   53.7121   98.4693   35.6218 H   0  0  0  0  0  0
   56.2934  100.0206   36.0353 H   0  0  0  0  0  0
   56.0521   98.2793   36.0689 H   0  0  0  0  0  0
   56.6040   98.1537   33.7920 H   0  0  0  0  0  0
   56.9024   99.8851   33.7939 H   0  0  0  0  0  0
   54.3869   98.4043   32.9956 H   0  0  0  0  0  0
   54.9866   99.9251   32.4111 H   0  0  0  0  0  0
   53.2848  102.2828   35.5092 H   0  0  0  0  0  0
   51.8250  103.7239   36.8652 H   0  0  0  0  0  0
   49.3984  103.2568   36.9956 H   0  0  0  0  0  0
   48.4348  101.3264   35.7987 H   0  0  0  0  0  0
   49.8833   99.8853   34.4263 H   0  0  0  0  0  0
  1  5  1  0  0  0
  1  2  2  0  0  0
  2  3  1  0  0  0
  2 17  1  0  0  0
  3  4  1  0  0  0
  3 29  1  0  0  0
  4  6  1  0  0  0
  4 15  2  0  0  0
  5  6  2  0  0  0
  5  9  1  0  0  0
  6  7  1  0  0  0
  7  8  1  0  0  0
  8  9  2  0  0  0
  8 10  1  0  0  0
  9 30  1  0  0  0
 10 11  2  0  0  0
 10 14  1  0  0  0
 11 12  1  0  0  0
 11 31  1  0  0  0
 12 13  1  0  0  0
 12 32  1  0  0  0
 13 14  2  0  0  0
 14 16  1  0  0  0
 16 33  1  0  0  0
 16 34  1  0  0  0
 16 35  1  0  0  0
 17 18  1  0  0  0
 17 23  1  0  0  0
 17 36  1  0  0  0
 18 19  1  0  0  0
 18 22  1  0  0  0
 19 20  1  0  0  0
 19 37  1  0  0  0
 19 38  1  0  0  0
 20 21  1  0  0  0
 20 39  1  0  0  0
 20 40  1  0  0  0
 21 22  1  0  0  0
 21 41  1  0  0  0
 21 42  1  0  0  0
 22 43  1  0  0  0
 22 44  1  0  0  0
 23 24  2  0  0  0
 23 28  1  0  0  0
 24 25  1  0  0  0
 24 45  1  0  0  0
 25 26  2  0  0  0
 25 46  1  0  0  0
 26 27  1  0  0  0
 26 47  1  0  0  0
 27 28  2  0  0  0
 27 48  1  0  0  0
 28 49  1  0  0  0
M  END
> <s_m_entry_id>
28137

> <s_m_entry_name>
dock_pv.298

> <s_m_Source_Path>
/home/csk/Desktop/cluster/DUD-E-result/rock1

> <s_m_Source_File>
dock_pv.maegz

> <i_m_Source_File_Index>
298

> <chembl_id>
CHEMBL4065361

> <chembl_pref_name>
None

> <i_lp_mmshare_version>
53161

> <r_lp_tautomer_probability>
0.5

> <s_lp_Force_Field>
OPLS_2005

> <r_lp_Energy>
48.001819

> <b_lp_Chiralities_Consistent>
1

> <s_lp_Variant>
CHEMBL3231_lig882-2

> <s_i_glide_gridfile>
glide-grid_2etr

> <i_i_glide_lignum>
1255

> <i_i_glide_rotatable_bonds>
4

> <r_i_docking_score>
-7.77490964222442

> <r_i_glide_ligand_efficiency>
-0.277675344365158

> <r_i_glide_ligand_efficiency_sa>
-0.843185887524459

> <r_i_glide_ligand_efficiency_ln>
-1.79467742669193

> <r_i_glide_gscore>
-7.77490964222442

> <r_i_glide_lipo>
-2.90038025234388

> <r_i_glide_hbond>
-0.399924843272616

> <r_i_glide_metal>
0

> <r_i_glide_rewards>
-1.88004818178534

> <r_i_glide_evdw>
-44.1205291748047

> <r_i_glide_ecoul>
-4.831298828125

> <r_i_glide_erotb>
0.356523432363844

> <r_i_glide_esite>
-0.0203585142274404

> <r_i_glide_emodel>
-68.800370396181

> <r_i_glide_energy>
-48.9518280029297

> <r_i_glide_einternal>
7.08079147338867

> <i_i_glide_confnum>
32

> <i_i_glide_posenum>
152

> <r_i_glide_eff_state_penalty>
0

> <s_user_duplicate_titles>
CHEMBL3231_lig882

> <i_f3d_flags>
0

> <s_m_subgroup_title>
dock_pv

> <s_m_subgroupid>
dock_pv

> <b_m_subgroup_collapsed>
1

$$$$
CHEMBL3231_lig668
                    3D
 Schrodinger Suite 2021-1.
 40 42  0  0  1  0            999 V2000
   50.9255  103.6055   28.7659 C   0  0  0  0  0  0
   50.8437  102.3110   28.1774 O   0  0  0  0  0  0
   51.2607  101.1954   28.8830 C   0  0  0  0  0  0
   51.6738  101.2600   30.2266 C   0  0  0  0  0  0
   52.0433  100.1077   30.9442 C   0  0  0  0  0  0
   52.0357   98.8831   30.2691 C   0  0  0  0  0  0
   51.6428   98.8050   28.9393 C   0  0  0  0  0  0
   51.2384   99.9443   28.2333 C   0  0  0  0  0  0
   50.7608   99.7545   26.8199 C   0  0  0  0  0  0
   50.4645   98.5457   26.1547 C   0  0  0  0  0  0
   50.0429   98.7039   24.9233 N   0  0  0  0  0  0
   50.0432  100.0213   24.7461 N   0  0  0  0  0  0
   50.4804  100.7055   25.8443 C   0  0  0  0  0  0
   52.3883  100.1452   32.4191 C   0  0  0  0  0  0
   52.4427   99.1068   33.0792 O   0  0  0  0  0  0
   52.5755  101.3569   32.9697 N   0  0  0  0  0  0
   52.6539  101.6260   34.4040 C   0  0  0  0  0  0
   51.3910  102.3239   34.9029 C   0  0  0  0  0  0
   50.3898  101.5689   35.5297 C   0  0  0  0  0  0
   49.2306  102.1877   35.9983 C   0  0  0  0  0  0
   49.0714  103.5666   35.8709 C   0  0  0  0  0  0
   47.6430  104.3397   36.4530 Cl  0  0  0  0  0  0
   50.0719  104.3267   35.2684 C   0  0  0  0  0  0
   51.2256  103.7129   34.7778 C   0  0  0  0  0  0
   52.4150  104.7029   34.0057 Cl  0  0  0  0  0  0
   50.6251  104.3533   28.0314 H   0  0  0  0  0  0
   50.2536  103.6946   29.6199 H   0  0  0  0  0  0
   51.9445  103.8439   29.0759 H   0  0  0  0  0  0
   51.6712  102.2120   30.7345 H   0  0  0  0  0  0
   52.3119   97.9710   30.7824 H   0  0  0  0  0  0
   51.6429   97.8336   28.4694 H   0  0  0  0  0  0
   50.5462   97.5545   26.5772 H   0  0  0  0  0  0
   49.7347  100.4356   23.8749 H   0  0  0  0  0  0
   50.5338  101.7851   25.8353 H   0  0  0  0  0  0
   52.6763  102.1498   32.3575 H   0  0  0  0  0  0
   53.5357  102.2389   34.6047 H   0  0  0  0  0  0
   52.8078  100.7129   34.9850 H   0  0  0  0  0  0
   50.5015  100.4987   35.6415 H   0  0  0  0  0  0
   48.4503  101.5988   36.4597 H   0  0  0  0  0  0
   49.9548  105.3965   35.1780 H   0  0  0  0  0  0
  1  2  1  0  0  0
  1 26  1  0  0  0
  1 27  1  0  0  0
  1 28  1  0  0  0
  2  3  1  0  0  0
  3  4  2  0  0  0
  3  8  1  0  0  0
  4  5  1  0  0  0
  4 29  1  0  0  0
  5  6  2  0  0  0
  5 14  1  0  0  0
  6  7  1  0  0  0
  6 30  1  0  0  0
  7  8  2  0  0  0
  7 31  1  0  0  0
  8  9  1  0  0  0
  9 10  1  0  0  0
  9 13  2  0  0  0
 10 11  2  0  0  0
 10 32  1  0  0  0
 11 12  1  0  0  0
 12 13  1  0  0  0
 12 33  1  0  0  0
 13 34  1  0  0  0
 14 15  2  0  0  0
 14 16  1  0  0  0
 16 17  1  0  0  0
 16 35  1  0  0  0
 17 18  1  0  0  0
 17 36  1  0  0  0
 17 37  1  0  0  0
 18 19  2  0  0  0
 18 24  1  0  0  0
 19 20  1  0  0  0
 19 38  1  0  0  0
 20 21  2  0  0  0
 20 39  1  0  0  0
 21 22  1  0  0  0
 21 23  1  0  0  0
 23 24  2  0  0  0
 23 40  1  0  0  0
 24 25  1  0  0  0
M  END
> <s_m_entry_id>
28138

> <s_m_entry_name>
dock_pv.299

> <s_m_Source_Path>
/home/csk/Desktop/cluster/DUD-E-result/rock1

> <s_m_Source_File>
dock_pv.maegz

> <i_m_Source_File_Index>
299

> <chembl_id>
CHEMBL3914458

> <chembl_pref_name>
None

> <i_lp_mmshare_version>
53161

> <r_lp_tautomer_probability>
0.5

> <s_lp_Force_Field>
OPLS_2005

> <r_lp_Energy>
20.611158

> <b_lp_Chiralities_Consistent>
1

> <s_lp_Variant>
CHEMBL3231_lig668-1

> <s_i_glide_gridfile>
glide-grid_2etr

> <i_i_glide_lignum>
959

> <i_i_glide_rotatable_bonds>
6

> <r_i_docking_score>
-7.77080148766858

> <r_i_glide_ligand_efficiency>
-0.310832059506743

> <r_i_glide_ligand_efficiency_sa>
-0.908878454627766

> <r_i_glide_ligand_efficiency_ln>
-1.84191282470641

> <r_i_glide_gscore>
-7.77080148766858

> <r_i_glide_lipo>
-3.25000653953523

> <r_i_glide_hbond>
-0.33252846749845

> <r_i_glide_metal>
0

> <r_i_glide_rewards>
-2.00090041422311

> <r_i_glide_evdw>
-44.4206390380859

> <r_i_glide_ecoul>
-2.26822066307068

> <r_i_glide_erotb>
0.382861366749833

> <r_i_glide_esite>
-0.00896238179672273

> <r_i_glide_emodel>
-66.4161029459439

> <r_i_glide_energy>
-46.6888597011566

> <r_i_glide_einternal>
2.78409790992737

> <i_i_glide_confnum>
3

> <i_i_glide_posenum>
304

> <r_i_glide_eff_state_penalty>
0

> <s_user_duplicate_titles>
CHEMBL3231_lig668

> <i_f3d_flags>
0

> <s_m_subgroup_title>
dock_pv

> <s_m_subgroupid>
dock_pv

> <b_m_subgroup_collapsed>
1

$$$$
CHEMBL3231_lig246
                    3D
 Schrodinger Suite 2021-1.
 35 37  0  0  1  0            999 V2000
   49.9292   98.5498   25.2111 N   0  0  0  0  0  0
   50.4732   97.6115   26.0126 C   0  0  0  0  0  0
   51.0327   97.9030   27.2540 C   0  0  0  0  0  0
   49.9063   99.8255   25.6552 C   0  0  0  0  0  0
   50.4728  100.2530   26.8887 C   0  0  0  0  0  0
   51.0685   99.2437   27.6999 C   0  0  0  0  0  0
   51.6730   99.6007   28.9270 C   0  0  0  0  0  0
   51.6879  100.9345   29.3587 C   0  0  0  0  0  0
   51.0795  101.9084   28.5721 C   0  0  0  0  0  0
   50.4818  101.5943   27.3554 C   0  0  0  0  0  0
   49.2433  100.7030   24.8110 N   0  0  0  0  0  0
   52.2796  101.3747   30.5267 O   0  0  0  0  0  0
   53.0684  100.4840   31.3176 C   0  0  0  0  0  0
   54.0497  101.2953   32.1748 C   0  0  0  0  0  0
   53.1213   98.6864   33.0943 C   0  0  0  0  0  0
   52.2147   99.6098   32.2556 C   0  0  0  0  0  0
   54.9241  100.3580   33.0335 C   0  0  0  0  0  0
   54.1077   99.4589   33.8543 N   0  0  2  0  0  0
   50.4617   96.5960   25.6462 H   0  0  0  0  0  0
   51.4452   97.1198   27.8702 H   0  0  0  0  0  0
   52.1259   98.8137   29.5088 H   0  0  0  0  0  0
   51.0943  102.9359   28.9050 H   0  0  0  0  0  0
   50.0405  102.3787   26.7590 H   0  0  0  0  0  0
   49.2765  101.6927   24.9955 H   0  0  0  0  0  0
   48.9433  100.3557   23.9016 H   0  0  0  0  0  0
   53.6765   99.8544   30.6628 H   0  0  0  0  0  0
   54.7078  101.8830   31.5340 H   0  0  0  0  0  0
   53.5301  101.9881   32.8390 H   0  0  0  0  0  0
   53.6557   97.9887   32.4461 H   0  0  0  0  0  0
   52.5245   98.0909   33.7848 H   0  0  0  0  0  0
   51.6246  100.2238   32.9369 H   0  0  0  0  0  0
   51.5165   98.9931   31.6925 H   0  0  0  0  0  0
   55.5770   99.7581   32.3957 H   0  0  0  0  0  0
   55.5700  100.9429   33.6911 H   0  0  0  0  0  0
   54.7130   98.8355   34.3730 H   0  0  0  0  0  0
  1  4  1  0  0  0
  1  2  2  0  0  0
  2  3  1  0  0  0
  2 19  1  0  0  0
  3  6  2  0  0  0
  3 20  1  0  0  0
  4 11  1  0  0  0
  4  5  2  0  0  0
  5 10  1  0  0  0
  5  6  1  0  0  0
  6  7  1  0  0  0
  7  8  2  0  0  0
  7 21  1  0  0  0
  8  9  1  0  0  0
  8 12  1  0  0  0
  9 10  2  0  0  0
  9 22  1  0  0  0
 10 23  1  0  0  0
 11 24  1  0  0  0
 11 25  1  0  0  0
 12 13  1  0  0  0
 13 14  1  0  0  0
 13 16  1  0  0  0
 13 26  1  0  0  0
 14 17  1  0  0  0
 14 27  1  0  0  0
 14 28  1  0  0  0
 15 18  1  0  0  0
 15 16  1  0  0  0
 15 29  1  0  0  0
 15 30  1  0  0  0
 16 31  1  0  0  0
 16 32  1  0  0  0
 17 18  1  0  0  0
 17 33  1  0  0  0
 17 34  1  0  0  0
 18 35  1  0  0  0
M  END
> <s_m_entry_id>
28139

> <s_m_entry_name>
dock_pv.300

> <s_m_Source_Path>
/home/csk/Desktop/cluster/DUD-E-result/rock1

> <s_m_Source_File>
dock_pv.maegz

> <i_m_Source_File_Index>
300

> <chembl_id>
CHEMBL1643572

> <chembl_pref_name>
None

> <i_lp_mmshare_version>
53161

> <r_lp_tautomer_probability>
1

> <s_lp_Force_Field>
OPLS_2005

> <r_lp_Energy>
24.097486

> <b_lp_Chiralities_Consistent>
1

> <s_lp_Variant>
CHEMBL3231_lig246-1

> <s_i_glide_gridfile>
glide-grid_2etr

> <i_i_glide_lignum>
390

> <i_i_glide_rotatable_bonds>
2

> <r_i_docking_score>
-7.7684075064889

> <r_i_glide_ligand_efficiency>
-0.431578194804939

> <r_i_glide_ligand_efficiency_sa>
-1.13105483887353

> <r_i_glide_ligand_efficiency_ln>
-1.99682909241812

> <r_i_glide_gscore>
-7.7684075064889

> <r_i_glide_lipo>
-2.33218308371645

> <r_i_glide_hbond>
-0.42010064203032

> <r_i_glide_metal>
0

> <r_i_glide_rewards>
-3.11126072604938

> <r_i_glide_evdw>
-30.8240184783936

> <r_i_glide_ecoul>
-5.16203880310059

> <r_i_glide_erotb>
0.410643689692012

> <r_i_glide_esite>
0

> <r_i_glide_emodel>
-54.0056995806763

> <r_i_glide_energy>
-35.9860572814941

> <r_i_glide_einternal>
0.275876343250275

> <i_i_glide_confnum>
4

> <i_i_glide_posenum>
381

> <r_i_glide_eff_state_penalty>
0

> <s_user_duplicate_titles>
CHEMBL3231_lig246

> <i_f3d_flags>
0

> <s_m_subgroup_title>
dock_pv

> <s_m_subgroupid>
dock_pv

> <b_m_subgroup_collapsed>
1

$$$$
CHEMBL3231_lig287
                    3D
 Schrodinger Suite 2021-1.
 59 62  0  0  1  0            999 V2000
   53.8021  100.3277   32.7100 C   0  0  0  0  0  0
   53.8541   99.0801   33.2513 N   0  0  0  0  0  0
   53.1783   98.0977   32.6175 C   0  0  0  0  0  0
   52.4366   98.2484   31.4938 N   0  0  0  0  0  0
   52.3735   99.4962   30.9414 C   0  0  0  0  0  0
   53.0275  100.5695   31.5628 C   0  0  0  0  0  0
   51.6643   99.6315   29.6159 C   0  0  0  0  0  0
   51.3059   98.4771   28.8949 C   0  0  0  0  0  0
   50.8408  101.0401   27.7761 C   0  0  0  0  0  0
   51.3940  100.8918   29.0509 C   0  0  0  0  0  0
   50.5674   99.8906   27.0243 C   0  0  0  0  0  0
   50.8075   98.6258   27.5990 C   0  0  0  0  0  0
   50.4536   97.7061   26.6301 N   0  0  0  0  0  0
   50.0395   98.3034   25.5005 N   0  0  0  0  0  0
   50.0583   99.5907   25.7226 C   0  0  0  0  0  0
   49.6431  100.5134   24.8115 N   0  0  0  0  0  0
   53.2464   96.8299   33.1772 N   0  0  0  0  0  0
   54.4106  101.3567   33.4301 N   0  0  0  0  0  0
   55.1815  101.1870   34.6856 C   0  0  0  0  0  0
   54.9137  102.2955   35.7427 C   0  0  0  0  0  0
   54.8936  103.7223   35.1501 C   0  0  0  0  0  0
   53.9832  103.7458   33.9079 C   0  0  1  0  0  0
   54.6138  102.7292   32.9223 C   0  0  0  0  0  0
   52.5768  103.4674   34.2456 N   0  0  0  0  0  0
   51.5372  103.4445   33.3277 C   0  0  0  0  0  0
   50.3053  103.1409   33.8786 O   0  0  0  0  0  0
   51.6426  103.6885   32.1285 O   0  0  0  0  0  0
   49.9842  102.6745   35.2084 C   0  0  0  0  0  0
   50.3970  103.6704   36.3197 C   0  0  0  0  0  0
   50.5843  101.2698   35.4474 C   0  0  0  0  0  0
   48.4448  102.5742   35.2085 C   0  0  0  0  0  0
   52.9722  101.5568   31.1417 H   0  0  0  0  0  0
   51.4566   97.4999   29.3157 H   0  0  0  0  0  0
   50.6577  102.0237   27.3666 H   0  0  0  0  0  0
   51.6222  101.7975   29.5927 H   0  0  0  0  0  0
   50.5123   96.7000   26.6904 H   0  0  0  0  0  0
   49.8733  101.4881   24.9177 H   0  0  0  0  0  0
   49.2636  100.2421   23.9088 H   0  0  0  0  0  0
   52.6492   96.0909   32.8104 H   0  0  0  0  0  0
   53.8803   96.6667   33.9438 H   0  0  0  0  0  0
   56.2469  101.1099   34.4590 H   0  0  0  0  0  0
   54.9097  100.2419   35.1575 H   0  0  0  0  0  0
   55.6797  102.2381   36.5178 H   0  0  0  0  0  0
   53.9823  102.0740   36.2645 H   0  0  0  0  0  0
   55.9064  104.0280   34.8816 H   0  0  0  0  0  0
   54.5453  104.4379   35.8961 H   0  0  0  0  0  0
   53.9868  104.7375   33.4452 H   0  0  0  0  0  0
   54.2309  102.8926   31.9197 H   0  0  0  0  0  0
   55.6897  102.8920   32.8364 H   0  0  0  0  0  0
   52.3655  103.2372   35.2028 H   0  0  0  0  0  0
   49.8867  103.4495   37.2567 H   0  0  0  0  0  0
   50.1388  104.6918   36.0440 H   0  0  0  0  0  0
   51.4633  103.6472   36.5391 H   0  0  0  0  0  0
   50.2684  100.5697   34.6741 H   0  0  0  0  0  0
   51.6726  101.2717   35.4431 H   0  0  0  0  0  0
   50.2693  100.8617   36.4086 H   0  0  0  0  0  0
   48.0803  101.9079   34.4279 H   0  0  0  0  0  0
   48.0620  102.1999   36.1575 H   0  0  0  0  0  0
   47.9821  103.5476   35.0338 H   0  0  0  0  0  0
  1 18  1  0  0  0
  1  6  1  0  0  0
  1  2  2  0  0  0
  2  3  1  0  0  0
  3 17  1  0  0  0
  3  4  2  0  0  0
  4  5  1  0  0  0
  5  7  1  0  0  0
  5  6  2  0  0  0
  6 32  1  0  0  0
  7  8  2  0  0  0
  7 10  1  0  0  0
  8 12  1  0  0  0
  8 33  1  0  0  0
  9 11  1  0  0  0
  9 10  2  0  0  0
  9 34  1  0  0  0
 10 35  1  0  0  0
 11 15  1  0  0  0
 11 12  2  0  0  0
 12 13  1  0  0  0
 13 14  1  0  0  0
 13 36  1  0  0  0
 14 15  2  0  0  0
 15 16  1  0  0  0
 16 37  1  0  0  0
 16 38  1  0  0  0
 17 39  1  0  0  0
 17 40  1  0  0  0
 18 19  1  0  0  0
 18 23  1  0  0  0
 19 20  1  0  0  0
 19 41  1  0  0  0
 19 42  1  0  0  0
 20 21  1  0  0  0
 20 43  1  0  0  0
 20 44  1  0  0  0
 21 22  1  0  0  0
 21 45  1  0  0  0
 21 46  1  0  0  0
 22 23  1  0  0  0
 22 24  1  0  0  0
 22 47  1  0  0  0
 23 48  1  0  0  0
 23 49  1  0  0  0
 24 25  1  0  0  0
 24 50  1  0  0  0
 25 26  1  0  0  0
 25 27  2  0  0  0
 26 28  1  0  0  0
 28 29  1  0  0  0
 28 30  1  0  0  0
 28 31  1  0  0  0
 29 51  1  0  0  0
 29 52  1  0  0  0
 29 53  1  0  0  0
 30 54  1  0  0  0
 30 55  1  0  0  0
 30 56  1  0  0  0
 31 57  1  0  0  0
 31 58  1  0  0  0
 31 59  1  0  0  0
M  END
> <s_m_entry_id>
28140

> <s_m_entry_name>
dock_pv.301

> <s_m_Source_Path>
/home/csk/Desktop/cluster/DUD-E-result/rock1

> <s_m_Source_File>
dock_pv.maegz

> <i_m_Source_File_Index>
301

> <chembl_id>
CHEMBL1765746

> <chembl_pref_name>
None

> <i_lp_mmshare_version>
53161

> <r_lp_tautomer_probability>
0.999999648617923

> <s_lp_Force_Field>
OPLS_2005

> <r_lp_Energy>
13.044829

> <b_lp_Chiralities_Consistent>
1

> <s_lp_Variant>
CHEMBL3231_lig287-2

> <s_i_glide_gridfile>
glide-grid_2etr

> <i_i_glide_lignum>
435

> <i_i_glide_rotatable_bonds>
6

> <r_i_docking_score>
-7.75617261245626

> <r_i_glide_ligand_efficiency>
-0.250199116530847

> <r_i_glide_ligand_efficiency_sa>
-0.785970663015751

> <r_i_glide_ligand_efficiency_ln>
-1.74925462225299

> <r_i_glide_gscore>
-7.75617261245626

> <r_i_glide_lipo>
-2.73545176937809

> <r_i_glide_hbond>
-0.74295640567603

> <r_i_glide_metal>
0

> <r_i_glide_rewards>
-0.878003641911705

> <r_i_glide_evdw>
-49.4776458740234

> <r_i_glide_ecoul>
-8.25678634643555

> <r_i_glide_erotb>
0.385134137443826

> <r_i_glide_esite>
-0.0724946872677512

> <r_i_glide_emodel>
-79.4494154931821

> <r_i_glide_energy>
-57.734432220459

> <r_i_glide_einternal>
3.3774631023407

> <i_i_glide_confnum>
41

> <i_i_glide_posenum>
9

> <r_i_glide_eff_state_penalty>
0

> <s_user_duplicate_titles>
CHEMBL3231_lig287,CHEMBL3231_lig288

> <i_f3d_flags>
0

> <s_m_subgroup_title>
dock_pv

> <s_m_subgroupid>
dock_pv

> <b_m_subgroup_collapsed>
1

$$$$
CHEMBL3231_lig214
                    3D
 Schrodinger Suite 2021-1.
 47 50  0  0  1  0            999 V2000
   52.3687   99.6501   32.9585 C   0  0  0  0  0  0
   52.5507  100.7760   33.7544 C   0  0  0  0  0  0
   52.4197  102.0660   33.2404 C   0  0  0  0  0  0
   52.1477  102.2426   31.8775 C   0  0  0  0  0  0
   52.0434   99.8384   31.6094 C   0  0  0  0  0  0
   51.9506  101.1324   31.0297 C   0  0  0  0  0  0
   51.6283  101.0848   29.6292 C   0  0  0  0  0  0
   51.4047   99.7766   29.1721 C   0  0  0  0  0  0
   51.6922   98.5898   30.4427 S   0  0  0  0  0  0
   51.5385  102.3500   28.7981 C   0  0  0  0  0  0
   50.9457   99.2681   27.8159 C   0  0  0  0  0  0
   50.5149  100.2022   26.9179 N   0  0  0  0  0  0
   50.0788   99.7558   25.7108 C   0  0  0  0  0  0
   50.0430   98.4642   25.3067 N   0  0  0  0  0  0
   50.4604   97.5475   26.2127 C   0  0  0  0  0  0
   50.9179   97.9035   27.4815 C   0  0  0  0  0  0
   49.6038  100.6981   24.8111 N   0  0  0  0  0  0
   52.5984  103.2710   34.1808 C   0  0  2  0  0  0
   51.2677  103.8087   34.7552 C   0  0  0  0  0  0
   50.3916  102.9205   35.3952 C   0  0  0  0  0  0
   49.1789  103.3622   35.9223 C   0  0  0  0  0  0
   48.8272  104.7065   35.8246 C   0  0  0  0  0  0
   49.6809  105.6238   35.2109 C   0  0  0  0  0  0
   50.8993  105.1641   34.6804 C   0  0  0  0  0  0
   53.4176  104.2996   33.5451 N   0  0  0  0  0  0
   49.2475  106.9349   35.1541 O   0  0  0  0  0  0
   50.1324  107.9391   34.6630 C   0  0  0  0  0  0
   52.4613   98.6573   33.3765 H   0  0  0  0  0  0
   52.7892  100.6388   34.7993 H   0  0  0  0  0  0
   52.0841  103.2468   31.4916 H   0  0  0  0  0  0
   50.5616  102.4726   28.3303 H   0  0  0  0  0  0
   51.7389  103.2698   29.3442 H   0  0  0  0  0  0
   52.2835  102.3032   28.0091 H   0  0  0  0  0  0
   50.4425   96.5112   25.9078 H   0  0  0  0  0  0
   51.2424   97.1332   28.1639 H   0  0  0  0  0  0
   49.5735  101.6661   25.0910 H   0  0  0  0  0  0
   49.2502  100.3914   23.9085 H   0  0  0  0  0  0
   53.1771  102.9281   35.0403 H   0  0  0  0  0  0
   50.6458  101.8745   35.4840 H   0  0  0  0  0  0
   48.5117  102.6625   36.4053 H   0  0  0  0  0  0
   47.8840  105.0420   36.2306 H   0  0  0  0  0  0
   51.5644  105.8630   34.1960 H   0  0  0  0  0  0
   53.6429  105.0431   34.1898 H   0  0  0  0  0  0
   54.2949  103.9117   33.2249 H   0  0  0  0  0  0
   49.6555  108.9149   34.7538 H   0  0  0  0  0  0
   51.0602  107.9735   35.2363 H   0  0  0  0  0  0
   50.3722  107.7889   33.6102 H   0  0  0  0  0  0
  1  5  2  0  0  0
  1  2  1  0  0  0
  1 28  1  0  0  0
  2  3  2  0  0  0
  2 29  1  0  0  0
  3 18  1  0  0  0
  3  4  1  0  0  0
  4  6  2  0  0  0
  4 30  1  0  0  0
  5  9  1  0  0  0
  5  6  1  0  0  0
  6  7  1  0  0  0
  7  8  2  0  0  0
  7 10  1  0  0  0
  8 11  1  0  0  0
  8  9  1  0  0  0
 10 31  1  0  0  0
 10 32  1  0  0  0
 10 33  1  0  0  0
 11 16  1  0  0  0
 11 12  2  0  0  0
 12 13  1  0  0  0
 13 14  2  0  0  0
 13 17  1  0  0  0
 14 15  1  0  0  0
 15 16  2  0  0  0
 15 34  1  0  0  0
 16 35  1  0  0  0
 17 36  1  0  0  0
 17 37  1  0  0  0
 18 19  1  0  0  0
 18 25  1  0  0  0
 18 38  1  0  0  0
 19 20  2  0  0  0
 19 24  1  0  0  0
 20 21  1  0  0  0
 20 39  1  0  0  0
 21 22  2  0  0  0
 21 40  1  0  0  0
 22 23  1  0  0  0
 22 41  1  0  0  0
 23 24  2  0  0  0
 23 26  1  0  0  0
 24 42  1  0  0  0
 25 43  1  0  0  0
 25 44  1  0  0  0
 26 27  1  0  0  0
 27 45  1  0  0  0
 27 46  1  0  0  0
 27 47  1  0  0  0
M  END
> <s_m_entry_id>
28142

> <s_m_entry_name>
dock_pv.303

> <s_m_Source_Path>
/home/csk/Desktop/cluster/DUD-E-result/rock1

> <s_m_Source_File>
dock_pv.maegz

> <i_m_Source_File_Index>
303

> <chembl_id>
CHEMBL1083073

> <chembl_pref_name>
None

> <i_lp_mmshare_version>
53161

> <r_lp_tautomer_probability>
0.999999987636

> <s_lp_Force_Field>
OPLS_2005

> <r_lp_Energy>
6.117649

> <b_lp_Chiralities_Consistent>
1

> <s_lp_Variant>
CHEMBL3231_lig214-1

> <s_i_glide_gridfile>
glide-grid_2etr

> <i_i_glide_lignum>
346

> <i_i_glide_rotatable_bonds>
4

> <r_i_docking_score>
-7.75589327639752

> <r_i_glide_ligand_efficiency>
-0.287255306533241

> <r_i_glide_ligand_efficiency_sa>
-0.861765918652978

> <r_i_glide_ligand_efficiency_ln>
-1.80544408885142

> <r_i_glide_gscore>
-7.75589327639752

> <r_i_glide_lipo>
-2.13183633452589

> <r_i_glide_hbond>
-0.42055684649954

> <r_i_glide_metal>
0

> <r_i_glide_rewards>
-2.47845269821461

> <r_i_glide_evdw>
-44.7023506164551

> <r_i_glide_ecoul>
-5.17832469940186

> <r_i_glide_erotb>
0.28681883857555

> <r_i_glide_esite>
0

> <r_i_glide_emodel>
-71.2937739925395

> <r_i_glide_energy>
-49.8806753158569

> <r_i_glide_einternal>
4.14337491989136

> <i_i_glide_confnum>
11

> <i_i_glide_posenum>
42

> <r_i_glide_eff_state_penalty>
0

> <s_user_duplicate_titles>
CHEMBL3231_lig214

> <i_f3d_flags>
0

> <s_m_subgroup_title>
dock_pv

> <s_m_subgroupid>
dock_pv

> <b_m_subgroup_collapsed>
1

$$$$
CHEMBL3231_lig630
                    3D
 Schrodinger Suite 2021-1.
 47 49  0  0  1  0            999 V2000
   52.0615  100.0277   35.8181 C   0  0  0  0  0  0
   51.7631  101.2624   36.4594 O   0  0  0  0  0  0
   52.2079  102.4392   35.8906 C   0  0  0  0  0  0
   51.9071  103.6198   36.5709 C   0  0  0  0  0  0
   52.3065  104.8571   36.0650 C   0  0  0  0  0  0
   53.0082  104.9240   34.8634 C   0  0  0  0  0  0
   53.3197  103.7551   34.1613 C   0  0  0  0  0  0
   52.9219  102.5171   34.6834 C   0  0  0  0  0  0
   54.0425  103.8386   32.8083 C   0  0  1  0  0  0
   55.5258  103.4832   32.9709 C   0  0  0  0  0  0
   53.4614  103.0254   31.7305 N   0  0  0  0  0  0
   52.1622  102.9768   31.3878 C   0  0  0  0  0  0
   51.2510  103.5029   32.0313 O   0  0  0  0  0  0
   51.8437  102.2336   30.1237 C   0  0  0  0  0  0
   52.2647  100.9048   29.9657 C   0  0  0  0  0  0
   51.8757  100.1710   28.8483 C   0  0  0  0  0  0
   51.0635  100.7498   27.8726 C   0  0  0  0  0  0
   50.6801  102.0861   28.0123 C   0  0  0  0  0  0
   51.0727  102.8484   29.1197 C   0  0  0  0  0  0
   50.7555  104.1885   29.2625 O   0  0  0  0  0  0
   49.9187  104.8379   28.3155 C   0  0  0  0  0  0
   50.5767   99.9700   26.7014 C   0  0  0  0  0  0
   49.9790  100.4641   25.5512 C   0  0  0  0  0  0
   49.6643   99.3754   24.7952 N   0  0  0  0  0  0
   50.0434   98.2250   25.3512 N   0  0  0  0  0  0
   50.5876   98.5809   26.4892 C   0  0  0  0  0  0
   51.6487   99.2087   36.4081 H   0  0  0  0  0  0
   51.6143   99.9744   34.8239 H   0  0  0  0  0  0
   53.1379   99.8640   35.7398 H   0  0  0  0  0  0
   51.3497  103.5737   37.4933 H   0  0  0  0  0  0
   52.0623  105.7646   36.5977 H   0  0  0  0  0  0
   53.2933  105.8903   34.4665 H   0  0  0  0  0  0
   53.1639  101.6258   34.1253 H   0  0  0  0  0  0
   53.9905  104.8734   32.4558 H   0  0  0  0  0  0
   56.0336  104.1844   33.6327 H   0  0  0  0  0  0
   55.6425  102.4829   33.3859 H   0  0  0  0  0  0
   56.0423  103.5011   32.0120 H   0  0  0  0  0  0
   54.1251  102.6685   31.0557 H   0  0  0  0  0  0
   52.8686  100.4240   30.7240 H   0  0  0  0  0  0
   52.1976   99.1419   28.7577 H   0  0  0  0  0  0
   50.0648  102.5267   27.2459 H   0  0  0  0  0  0
   49.8986  105.9066   28.5337 H   0  0  0  0  0  0
   50.2752  104.7270   27.2915 H   0  0  0  0  0  0
   48.8979  104.4648   28.3992 H   0  0  0  0  0  0
   49.7379  101.4635   25.2169 H   0  0  0  0  0  0
   49.2132   99.4271   23.8868 H   0  0  0  0  0  0
   50.9798   97.8360   27.1689 H   0  0  0  0  0  0
  1  2  1  0  0  0
  1 27  1  0  0  0
  1 28  1  0  0  0
  1 29  1  0  0  0
  2  3  1  0  0  0
  3  4  2  0  0  0
  3  8  1  0  0  0
  4  5  1  0  0  0
  4 30  1  0  0  0
  5  6  2  0  0  0
  5 31  1  0  0  0
  6  7  1  0  0  0
  6 32  1  0  0  0
  7  8  2  0  0  0
  7  9  1  0  0  0
  8 33  1  0  0  0
  9 10  1  0  0  0
  9 11  1  0  0  0
  9 34  1  0  0  0
 10 35  1  0  0  0
 10 36  1  0  0  0
 10 37  1  0  0  0
 11 12  1  0  0  0
 11 38  1  0  0  0
 12 13  2  0  0  0
 12 14  1  0  0  0
 14 15  2  0  0  0
 14 19  1  0  0  0
 15 16  1  0  0  0
 15 39  1  0  0  0
 16 17  2  0  0  0
 16 40  1  0  0  0
 17 18  1  0  0  0
 17 22  1  0  0  0
 18 19  2  0  0  0
 18 41  1  0  0  0
 19 20  1  0  0  0
 20 21  1  0  0  0
 21 42  1  0  0  0
 21 43  1  0  0  0
 21 44  1  0  0  0
 22 23  2  0  0  0
 22 26  1  0  0  0
 23 24  1  0  0  0
 23 45  1  0  0  0
 24 25  1  0  0  0
 24 46  1  0  0  0
 25 26  2  0  0  0
 26 47  1  0  0  0
M  END
> <s_m_entry_id>
28143

> <s_m_entry_name>
dock_pv.304

> <s_m_Source_Path>
/home/csk/Desktop/cluster/DUD-E-result/rock1

> <s_m_Source_File>
dock_pv.maegz

> <i_m_Source_File_Index>
304

> <chembl_id>
CHEMBL3907133

> <chembl_pref_name>
None

> <i_lp_mmshare_version>
53161

> <r_lp_tautomer_probability>
0.5

> <s_lp_Force_Field>
OPLS_2005

> <r_lp_Energy>
25.407051

> <b_lp_Chiralities_Consistent>
1

> <s_lp_Variant>
CHEMBL3231_lig630-1

> <s_i_glide_gridfile>
glide-grid_2etr

> <i_i_glide_lignum>
916

> <i_i_glide_rotatable_bonds>
7

> <r_i_docking_score>
-7.75504439969346

> <r_i_glide_ligand_efficiency>
-0.298270938449748

> <r_i_glide_ligand_efficiency_sa>
-0.883626481517909

> <r_i_glide_ligand_efficiency_ln>
-1.82124673089183

> <r_i_glide_gscore>
-7.75504439969346

> <r_i_glide_lipo>
-2.16172971652564

> <r_i_glide_hbond>
-0.659069505086728

> <r_i_glide_metal>
0

> <r_i_glide_rewards>
-1.77528440699697

> <r_i_glide_evdw>
-41.9645729064941

> <r_i_glide_ecoul>
-10.1080865859985

> <r_i_glide_erotb>
0.540596123200386

> <r_i_glide_esite>
-0.0851152610600133

> <r_i_glide_emodel>
-76.0291868193957

> <r_i_glide_energy>
-52.0726594924927

> <r_i_glide_einternal>
2.94506072998047

> <i_i_glide_confnum>
71

> <i_i_glide_posenum>
275

> <r_i_glide_eff_state_penalty>
0

> <s_user_duplicate_titles>
CHEMBL3231_lig630

> <i_f3d_flags>
0

> <s_m_subgroup_title>
dock_pv

> <s_m_subgroupid>
dock_pv

> <b_m_subgroup_collapsed>
1

$$$$
CHEMBL3231_lig251
                    3D
 Schrodinger Suite 2021-1.
 34 36  0  0  1  0            999 V2000
   49.8928   99.6189   25.1998 N   0  0  0  0  0  0
   49.9089  100.9412   25.5142 C   0  0  0  0  0  0
   50.4251  101.4727   26.6349 C   0  0  0  0  0  0
   50.3790   98.6528   26.0147 C   0  0  0  0  0  0
   50.8485   99.1606   27.3762 C   0  0  0  0  0  0
   50.9267  100.5408   27.6505 C   0  0  0  0  0  0
   51.4159  100.9887   28.8754 C   0  0  0  0  0  0
   51.8289  100.0664   29.8509 C   0  0  0  0  0  0
   51.7367   98.7013   29.5727 C   0  0  0  0  0  0
   51.2560   98.2455   28.3456 C   0  0  0  0  0  0
   52.3207  100.4029   31.0978 O   0  0  0  0  0  0
   52.4062  101.7669   31.5073 C   0  0  2  0  0  0
   53.6388  102.4947   30.9106 C   0  0  0  0  0  0
   53.6428  103.9030   31.3212 N   0  0  1  0  0  0
   53.7067  104.0425   32.7799 C   0  0  0  0  0  0
   52.5725  103.2738   33.4971 C   0  0  0  0  0  0
   52.4822  101.8047   33.0422 C   0  0  0  0  0  0
   50.4432   97.4962   25.6116 O   0  0  0  0  0  0
   49.5465   99.3089   24.3039 H   0  0  0  0  0  0
   49.4272  101.5028   24.7339 H   0  0  0  0  0  0
   50.3903  102.5389   26.8096 H   0  0  0  0  0  0
   51.4632  102.0515   29.0523 H   0  0  0  0  0  0
   52.0509   97.9873   30.3215 H   0  0  0  0  0  0
   51.2156   97.1812   28.1563 H   0  0  0  0  0  0
   51.4877  102.2818   31.2199 H   0  0  0  0  0  0
   54.5625  102.0081   31.2296 H   0  0  0  0  0  0
   53.6310  102.4408   29.8217 H   0  0  0  0  0  0
   54.4394  104.4000   30.9221 H   0  0  0  0  0  0
   53.6467  105.1047   33.0202 H   0  0  0  0  0  0
   54.6805  103.6941   33.1288 H   0  0  0  0  0  0
   51.6264  103.7978   33.3473 H   0  0  0  0  0  0
   52.7476  103.3102   34.5735 H   0  0  0  0  0  0
   51.6008  101.3398   33.4868 H   0  0  0  0  0  0
   53.3712  101.2758   33.3882 H   0  0  0  0  0  0
  1  4  1  0  0  0
  1  2  1  0  0  0
  1 19  1  0  0  0
  2  3  2  0  0  0
  2 20  1  0  0  0
  3  6  1  0  0  0
  3 21  1  0  0  0
  4  5  1  0  0  0
  4 18  2  0  0  0
  5 10  1  0  0  0
  5  6  2  0  0  0
  6  7  1  0  0  0
  7  8  2  0  0  0
  7 22  1  0  0  0
  8  9  1  0  0  0
  8 11  1  0  0  0
  9 10  2  0  0  0
  9 23  1  0  0  0
 10 24  1  0  0  0
 11 12  1  0  0  0
 12 13  1  0  0  0
 12 17  1  0  0  0
 12 25  1  0  0  0
 13 14  1  0  0  0
 13 26  1  0  0  0
 13 27  1  0  0  0
 14 15  1  0  0  0
 14 28  1  0  0  0
 15 16  1  0  0  0
 15 29  1  0  0  0
 15 30  1  0  0  0
 16 17  1  0  0  0
 16 31  1  0  0  0
 16 32  1  0  0  0
 17 33  1  0  0  0
 17 34  1  0  0  0
M  END
> <s_m_entry_id>
28144

> <s_m_entry_name>
dock_pv.305

> <s_m_Source_Path>
/home/csk/Desktop/cluster/DUD-E-result/rock1

> <s_m_Source_File>
dock_pv.maegz

> <i_m_Source_File_Index>
305

> <chembl_id>
CHEMBL1667967

> <chembl_pref_name>
None

> <i_lp_mmshare_version>
53161

> <r_lp_tautomer_probability>
1

> <s_lp_Force_Field>
OPLS_2005

> <r_lp_Energy>
30.305189

> <b_lp_Chiralities_Consistent>
1

> <s_lp_Variant>
CHEMBL3231_lig251-1

> <s_i_glide_gridfile>
glide-grid_2etr

> <i_i_glide_lignum>
395

> <i_i_glide_rotatable_bonds>
2

> <r_i_docking_score>
-7.75069219678768

> <r_i_glide_ligand_efficiency>
-0.430594010932649

> <r_i_glide_ligand_efficiency_sa>
-1.12847554746239

> <r_i_glide_ligand_efficiency_ln>
-1.9922754634069

> <r_i_glide_gscore>
-7.75069219678768

> <r_i_glide_lipo>
-2.29228134409841

> <r_i_glide_hbond>
-0.506867303071547

> <r_i_glide_metal>
0

> <r_i_glide_rewards>
-2.98847800066964

> <r_i_glide_evdw>
-32.9948463439941

> <r_i_glide_ecoul>
-5.97280740737915

> <r_i_glide_erotb>
0.582597879358495

> <r_i_glide_esite>
0

> <r_i_glide_emodel>
-53.8486875450694

> <r_i_glide_energy>
-38.9676537513733

> <r_i_glide_einternal>
5.60921239852905

> <i_i_glide_confnum>
6

> <i_i_glide_posenum>
105

> <r_i_glide_eff_state_penalty>
0

> <s_user_duplicate_titles>
CHEMBL3231_lig251

> <i_f3d_flags>
0

> <s_m_subgroup_title>
dock_pv

> <s_m_subgroupid>
dock_pv

> <b_m_subgroup_collapsed>
1

$$$$
CHEMBL3231_lig1451
                    3D
 Schrodinger Suite 2021-1.
 39 42  0  0  1  0            999 V2000
   51.4394  102.2176   30.4639 O   0  0  0  0  0  0
   52.4533  100.2889   34.3180 O   0  0  0  0  0  0
   55.6418  104.9478   33.6120 O   0  0  0  0  0  0
   53.0312  102.4871   34.4737 N   0  0  0  0  0  0
   51.7502  102.5790   31.7739 N   0  0  0  0  0  0
   50.0422   98.6513   25.3849 N   0  0  0  0  0  0
   49.6618   99.8050   24.8088 N   0  0  0  0  0  0
   51.7085  100.8972   30.2933 C   0  0  0  0  0  0
   52.2396  101.5078   32.3697 C   0  0  0  0  0  0
   51.3325  100.2701   28.9946 C   0  0  0  0  0  0
   52.5945  101.3914   33.7768 C   0  0  0  0  0  0
   52.2178  100.4219   31.4817 C   0  0  0  0  0  0
   50.4298  100.4763   26.7720 C   0  0  0  0  0  0
   50.4919   99.0590   26.6120 C   0  0  0  0  0  0
   50.8648  101.0790   27.9559 C   0  0  0  0  0  0
   51.3826   98.8800   28.8391 C   0  0  0  0  0  0
   50.9602   98.2590   27.6620 C   0  0  0  0  0  0
   49.8564  100.9297   25.5683 C   0  0  0  0  0  0
   53.5802  103.7340   33.8934 C   0  0  0  0  0  0
   53.3828  102.3288   35.8976 C   0  0  0  0  0  0
   55.1280  103.6704   33.9239 C   0  0  2  0  0  0
   54.9039  102.0722   35.9452 C   0  0  0  0  0  0
   55.6967  103.2248   35.2952 C   0  0  0  0  0  0
   55.5516  105.1143   32.6626 H   0  0  0  0  0  0
   49.2563   99.8232   23.8785 H   0  0  0  0  0  0
   52.5111   99.4054   31.7016 H   0  0  0  0  0  0
   50.8075  102.1518   28.0676 H   0  0  0  0  0  0
   51.7267   98.2597   29.6548 H   0  0  0  0  0  0
   50.9680   97.1823   27.5741 H   0  0  0  0  0  0
   49.5555  101.9021   25.2129 H   0  0  0  0  0  0
   53.2474  104.5674   34.5136 H   0  0  0  0  0  0
   53.1832  104.0222   32.9249 H   0  0  0  0  0  0
   52.7697  101.5838   36.4088 H   0  0  0  0  0  0
   53.1330  103.2607   36.4069 H   0  0  0  0  0  0
   55.4855  102.9878   33.1497 H   0  0  0  0  0  0
   55.1361  101.1270   35.4501 H   0  0  0  0  0  0
   55.2238  101.9460   36.9805 H   0  0  0  0  0  0
   56.7420  102.9303   35.1842 H   0  0  0  0  0  0
   55.6984  104.0740   35.9812 H   0  0  0  0  0  0
  1  5  1  0  0  0
  1  8  1  0  0  0
  2 11  2  0  0  0
  3 21  1  0  0  0
  3 24  1  0  0  0
  4 11  1  0  0  0
  4 19  1  0  0  0
  4 20  1  0  0  0
  5  9  2  0  0  0
  6  7  1  0  0  0
  6 14  2  0  0  0
  7 25  1  0  0  0
  7 18  1  0  0  0
  8 12  2  0  0  0
  8 10  1  0  0  0
  9 11  1  0  0  0
  9 12  1  0  0  0
 10 16  1  0  0  0
 10 15  2  0  0  0
 12 26  1  0  0  0
 13 15  1  0  0  0
 13 14  1  0  0  0
 13 18  2  0  0  0
 14 17  1  0  0  0
 15 27  1  0  0  0
 16 17  2  0  0  0
 16 28  1  0  0  0
 17 29  1  0  0  0
 18 30  1  0  0  0
 19 21  1  0  0  0
 19 31  1  0  0  0
 19 32  1  0  0  0
 20 22  1  0  0  0
 20 33  1  0  0  0
 20 34  1  0  0  0
 21 23  1  0  0  0
 21 35  1  0  0  0
 22 23  1  0  0  0
 22 36  1  0  0  0
 22 37  1  0  0  0
 23 38  1  0  0  0
 23 39  1  0  0  0
M  END
> <s_m_entry_id>
28145

> <s_m_entry_name>
dock_pv.306

> <s_m_Source_Path>
/home/csk/Desktop/cluster/DUD-E-result/rock1

> <s_m_Source_File>
dock_pv.maegz

> <i_m_Source_File_Index>
306

> <chembl_id>
CHEMBL1997340

> <chembl_pref_name>
None

> <i_lp_mmshare_version>
53161

> <r_lp_tautomer_probability>
0.0196078431372549

> <s_lp_Force_Field>
OPLS_2005

> <r_lp_Energy>
46.26802

> <b_lp_Chiralities_Consistent>
1

> <s_lp_Variant>
CHEMBL3231_lig1451-3

> <s_i_glide_gridfile>
glide-grid_2etr

> <i_i_glide_lignum>
2040

> <i_i_glide_rotatable_bonds>
4

> <r_i_docking_score>
-7.74485137962907

> <r_i_glide_ligand_efficiency>
-0.336732668679525

> <r_i_glide_ligand_efficiency_sa>
-0.957622916494124

> <r_i_glide_ligand_efficiency_ln>
-1.87277529002395

> <r_i_glide_gscore>
-7.74485137962907

> <r_i_glide_lipo>
-1.95052695388481

> <r_i_glide_hbond>
-0.608

> <r_i_glide_metal>
0

> <r_i_glide_rewards>
-2.5315561313829

> <r_i_glide_evdw>
-32.7891807556152

> <r_i_glide_ecoul>
-10.0974855422974

> <r_i_glide_erotb>
0.570749084962497

> <r_i_glide_esite>
-0.071435510198485

> <r_i_glide_emodel>
-65.066048979195

> <r_i_glide_energy>
-42.8866662979126

> <r_i_glide_einternal>
0.118925698101521

> <i_i_glide_confnum>
7

> <i_i_glide_posenum>
279

> <r_i_glide_eff_state_penalty>
0

> <s_user_duplicate_titles>
CHEMBL3231_lig1451,CHEMBL3231_lig1451

> <i_f3d_flags>
0

> <s_m_subgroup_title>
dock_pv

> <s_m_subgroupid>
dock_pv

> <b_m_subgroup_collapsed>
1

$$$$
CHEMBL3231_lig697
                    3D
 Schrodinger Suite 2021-1.
 44 46  0  0  1  0            999 V2000
   51.2430   97.1056   30.3975 C   0  0  0  0  0  0
   51.1688   97.9338   29.2399 O   0  0  0  0  0  0
   51.6430   99.2334   29.2889 C   0  0  0  0  0  0
   52.3497   99.7460   30.3920 C   0  0  0  0  0  0
   52.8147  101.0691   30.4242 C   0  0  0  0  0  0
   52.5295  101.8974   29.3305 C   0  0  0  0  0  0
   51.8311  101.4038   28.2366 C   0  0  0  0  0  0
   51.4043  100.0758   28.1859 C   0  0  0  0  0  0
   50.7376   99.6359   26.9174 C   0  0  0  0  0  0
   50.6408   98.3422   26.3778 C   0  0  0  0  0  0
   50.0430   98.3023   25.2110 N   0  0  0  0  0  0
   49.7187   99.5705   24.9579 N   0  0  0  0  0  0
   50.1019  100.4194   25.9575 C   0  0  0  0  0  0
   53.5822  101.5727   31.6291 C   0  0  0  0  0  0
   53.9243  100.8040   32.5289 O   0  0  0  0  0  0
   53.7879  102.9006   31.6945 N   0  0  0  0  0  0
   54.2345  103.6391   32.8792 C   0  0  0  0  0  0
   53.1020  103.9789   33.8886 C   0  0  1  0  0  0
   52.0851  104.7030   33.2111 O   0  0  0  0  0  0
   52.5708  102.7436   34.6342 C   0  0  0  0  0  0
   51.3657  102.1354   34.2441 C   0  0  0  0  0  0
   50.9053  100.9851   34.8821 C   0  0  0  0  0  0
   51.6430  100.4284   35.9229 C   0  0  0  0  0  0
   52.8327  101.0255   36.3324 C   0  0  0  0  0  0
   53.3007  102.1764   35.6957 C   0  0  0  0  0  0
   54.7912  102.8644   36.2466 Cl  0  0  0  0  0  0
   50.8430   96.1244   30.1472 H   0  0  0  0  0  0
   52.2651   96.9593   30.7496 H   0  0  0  0  0  0
   50.6406   97.5111   31.2110 H   0  0  0  0  0  0
   52.5547   99.1116   31.2413 H   0  0  0  0  0  0
   52.8579  102.9258   29.2962 H   0  0  0  0  0  0
   51.6430  102.0601   27.4047 H   0  0  0  0  0  0
   51.0305   97.4420   26.8294 H   0  0  0  0  0  0
   49.2430   99.8481   24.1063 H   0  0  0  0  0  0
   49.9089  101.4801   25.8879 H   0  0  0  0  0  0
   53.6381  103.4479   30.8625 H   0  0  0  0  0  0
   54.6641  104.5735   32.5192 H   0  0  0  0  0  0
   55.0583  103.1182   33.3717 H   0  0  0  0  0  0
   53.4911  104.6669   34.6404 H   0  0  0  0  0  0
   52.4430  105.5744   32.9543 H   0  0  0  0  0  0
   50.7931  102.5382   33.4223 H   0  0  0  0  0  0
   49.9854  100.5188   34.5619 H   0  0  0  0  0  0
   51.2963   99.5310   36.4110 H   0  0  0  0  0  0
   53.4001  100.5870   37.1404 H   0  0  0  0  0  0
  1  2  1  0  0  0
  1 27  1  0  0  0
  1 28  1  0  0  0
  1 29  1  0  0  0
  2  3  1  0  0  0
  3  4  2  0  0  0
  3  8  1  0  0  0
  4  5  1  0  0  0
  4 30  1  0  0  0
  5  6  2  0  0  0
  5 14  1  0  0  0
  6  7  1  0  0  0
  6 31  1  0  0  0
  7  8  2  0  0  0
  7 32  1  0  0  0
  8  9  1  0  0  0
  9 10  1  0  0  0
  9 13  2  0  0  0
 10 11  2  0  0  0
 10 33  1  0  0  0
 11 12  1  0  0  0
 12 13  1  0  0  0
 12 34  1  0  0  0
 13 35  1  0  0  0
 14 15  2  0  0  0
 14 16  1  0  0  0
 16 17  1  0  0  0
 16 36  1  0  0  0
 17 18  1  0  0  0
 17 37  1  0  0  0
 17 38  1  0  0  0
 18 19  1  0  0  0
 18 20  1  0  0  0
 18 39  1  0  0  0
 19 40  1  0  0  0
 20 21  2  0  0  0
 20 25  1  0  0  0
 21 22  1  0  0  0
 21 41  1  0  0  0
 22 23  2  0  0  0
 22 42  1  0  0  0
 23 24  1  0  0  0
 23 43  1  0  0  0
 24 25  2  0  0  0
 24 44  1  0  0  0
 25 26  1  0  0  0
M  END
> <s_m_entry_id>
28147

> <s_m_entry_name>
dock_pv.308

> <s_m_Source_Path>
/home/csk/Desktop/cluster/DUD-E-result/rock1

> <s_m_Source_File>
dock_pv.maegz

> <i_m_Source_File_Index>
308

> <chembl_id>
CHEMBL3937215

> <chembl_pref_name>
None

> <i_lp_mmshare_version>
53161

> <r_lp_tautomer_probability>
0.5

> <s_lp_Force_Field>
OPLS_2005

> <r_lp_Energy>
25.298738

> <b_lp_Chiralities_Consistent>
1

> <s_lp_Variant>
CHEMBL3231_lig697-2

> <s_i_glide_gridfile>
glide-grid_2etr

> <i_i_glide_lignum>
993

> <i_i_glide_rotatable_bonds>
8

> <r_i_docking_score>
-7.73944626864636

> <r_i_glide_ligand_efficiency>
-0.297671010332552

> <r_i_glide_ligand_efficiency_sa>
-0.881849196831319

> <r_i_glide_ligand_efficiency_ln>
-1.81758356099707

> <r_i_glide_gscore>
-7.73944626864636

> <r_i_glide_lipo>
-2.27721331227772

> <r_i_glide_hbond>
-0.63634759144104

> <r_i_glide_metal>
0

> <r_i_glide_rewards>
-1.91614171306526

> <r_i_glide_evdw>
-40.3568000793457

> <r_i_glide_ecoul>
-8.76191997528076

> <r_i_glide_erotb>
0.4887996001085

> <r_i_glide_esite>
-0.0664152517114416

> <r_i_glide_emodel>
-72.2806722863155

> <r_i_glide_energy>
-49.1187200546265

> <r_i_glide_einternal>
1.80868875980377

> <i_i_glide_confnum>
12

> <i_i_glide_posenum>
153

> <r_i_glide_eff_state_penalty>
0

> <s_user_duplicate_titles>
CHEMBL3231_lig697

> <i_f3d_flags>
0

> <s_m_subgroup_title>
dock_pv

> <s_m_subgroupid>
dock_pv

> <b_m_subgroup_collapsed>
1

$$$$
CHEMBL3231_lig421
                    3D
 Schrodinger Suite 2021-1.
 36 38  0  0  1  0            999 V2000
   51.5048   99.5651   32.3144 O   0  0  0  0  0  0
   52.3059  100.4857   32.4884 C   0  0  0  0  0  0
   52.8802  100.7481   33.6723 N   0  0  0  0  0  0
   52.2864  100.4288   34.9724 C   0  0  0  0  0  0
   51.1885  101.4026   35.3890 C   0  0  0  0  0  0
   49.8450  101.0628   35.2109 C   0  0  0  0  0  0
   48.8435  101.9433   35.6110 C   0  0  0  0  0  0
   49.1866  103.1521   36.2111 C   0  0  0  0  0  0
   50.5233  103.4905   36.4100 C   0  0  0  0  0  0
   51.5252  102.6122   36.0036 C   0  0  0  0  0  0
   52.6559  101.3947   31.5578 N   0  0  0  0  0  0
   52.0263  101.5278   30.3338 C   0  0  0  0  0  0
   51.7500  100.5638   29.4860 N   0  0  0  0  0  0
   51.1222  101.0003   28.4013 C   0  0  0  0  0  0
   50.8469  102.3742   28.4195 C   0  0  0  0  0  0
   51.5198  103.1029   29.8441 S   0  0  0  0  0  0
   50.7658  100.0527   27.2956 C   0  0  0  0  0  0
   50.3822  100.5463   26.0394 C   0  0  0  0  0  0
   50.0378   99.6464   25.0314 C   0  0  0  0  0  0
   50.0431   98.3028   25.2112 N   0  0  0  0  0  0
   50.4369   97.8287   26.4175 C   0  0  0  0  0  0
   50.8051   98.6605   27.4753 C   0  0  0  0  0  0
   53.6995  101.3362   33.6891 H   0  0  0  0  0  0
   53.0781  100.4510   35.7229 H   0  0  0  0  0  0
   51.9038   99.4053   34.9814 H   0  0  0  0  0  0
   49.5787  100.1229   34.7499 H   0  0  0  0  0  0
   47.8042  101.6911   35.4624 H   0  0  0  0  0  0
   48.4073  103.8289   36.5284 H   0  0  0  0  0  0
   50.7831  104.4281   36.8786 H   0  0  0  0  0  0
   52.5613  102.8744   36.1606 H   0  0  0  0  0  0
   53.2805  102.1388   31.8284 H   0  0  0  0  0  0
   50.3419  102.9763   27.6783 H   0  0  0  0  0  0
   50.3481  101.6061   25.8379 H   0  0  0  0  0  0
   49.7324  100.0002   24.0568 H   0  0  0  0  0  0
   50.4443   96.7544   26.5316 H   0  0  0  0  0  0
   51.0996   98.2260   28.4195 H   0  0  0  0  0  0
  1  2  2  0  0  0
  2  3  1  0  0  0
  2 11  1  0  0  0
  3  4  1  0  0  0
  3 23  1  0  0  0
  4  5  1  0  0  0
  4 24  1  0  0  0
  4 25  1  0  0  0
  5  6  2  0  0  0
  5 10  1  0  0  0
  6  7  1  0  0  0
  6 26  1  0  0  0
  7  8  2  0  0  0
  7 27  1  0  0  0
  8  9  1  0  0  0
  8 28  1  0  0  0
  9 10  2  0  0  0
  9 29  1  0  0  0
 10 30  1  0  0  0
 11 12  1  0  0  0
 11 31  1  0  0  0
 12 13  2  0  0  0
 12 16  1  0  0  0
 13 14  1  0  0  0
 14 15  2  0  0  0
 14 17  1  0  0  0
 15 16  1  0  0  0
 15 32  1  0  0  0
 17 18  2  0  0  0
 17 22  1  0  0  0
 18 19  1  0  0  0
 18 33  1  0  0  0
 19 20  2  0  0  0
 19 34  1  0  0  0
 20 21  1  0  0  0
 21 22  2  0  0  0
 21 35  1  0  0  0
 22 36  1  0  0  0
M  END
> <s_m_entry_id>
28148

> <s_m_entry_name>
dock_pv.309

> <s_m_Source_Path>
/home/csk/Desktop/cluster/DUD-E-result/rock1

> <s_m_Source_File>
dock_pv.maegz

> <i_m_Source_File_Index>
309

> <chembl_id>
CHEMBL3218005

> <chembl_pref_name>
None

> <i_lp_mmshare_version>
53161

> <r_lp_tautomer_probability>
0.999000488399163

> <s_lp_Force_Field>
OPLS_2005

> <r_lp_Energy>
7.127185

> <b_lp_Chiralities_Consistent>
1

> <s_lp_Variant>
CHEMBL3231_lig421-1

> <s_i_glide_gridfile>
glide-grid_2etr

> <i_i_glide_lignum>
605

> <i_i_glide_rotatable_bonds>
6

> <r_i_docking_score>
-7.7375959703347

> <r_i_glide_ligand_efficiency>
-0.351708907742486

> <r_i_glide_ligand_efficiency_sa>
-0.985502191420884

> <r_i_glide_ligand_efficiency_ln>
-1.89135069082037

> <r_i_glide_gscore>
-7.7375959703347

> <r_i_glide_lipo>
-3.40011900321857

> <r_i_glide_hbond>
-0.23604216527493

> <r_i_glide_metal>
0

> <r_i_glide_rewards>
-2.47873582722399

> <r_i_glide_evdw>
-42.3466758728027

> <r_i_glide_ecoul>
-2.95632362365723

> <r_i_glide_erotb>
0.961766269579721

> <r_i_glide_esite>
-0.0236829070082078

> <r_i_glide_emodel>
-65.1170885952012

> <r_i_glide_energy>
-45.30299949646

> <r_i_glide_einternal>
3.85738468170166

> <i_i_glide_confnum>
2

> <i_i_glide_posenum>
380

> <r_i_glide_eff_state_penalty>
0

> <s_user_duplicate_titles>
CHEMBL3231_lig421

> <i_f3d_flags>
0

> <s_m_subgroup_title>
dock_pv

> <s_m_subgroupid>
dock_pv

> <b_m_subgroup_collapsed>
1

$$$$
CHEMBL3231_lig679
                    3D
 Schrodinger Suite 2021-1.
 43 46  0  0  1  0            999 V2000
   51.2454   97.2871   30.4112 C   0  0  0  0  0  0
   51.2365   98.0536   29.2098 O   0  0  0  0  0  0
   51.5783   99.3938   29.2422 C   0  0  0  0  0  0
   52.1684   99.9986   30.3660 C   0  0  0  0  0  0
   52.4699  101.3672   30.4009 C   0  0  0  0  0  0
   52.1680  102.1380   29.2701 C   0  0  0  0  0  0
   51.5833  101.5514   28.1549 C   0  0  0  0  0  0
   51.2986  100.1857   28.1114 C   0  0  0  0  0  0
   50.7010   99.6586   26.8377 C   0  0  0  0  0  0
   50.5960   98.3291   26.3927 C   0  0  0  0  0  0
   50.0432   98.2105   25.2108 N   0  0  0  0  0  0
   49.7755   99.4626   24.8361 N   0  0  0  0  0  0
   50.1375  100.3771   25.7835 C   0  0  0  0  0  0
   53.0698  101.9767   31.6519 C   0  0  0  0  0  0
   53.3844  101.2712   32.6121 O   0  0  0  0  0  0
   53.1473  103.3207   31.6915 N   0  0  0  0  0  0
   53.5146  104.1160   32.8673 C   0  0  0  0  0  0
   52.4408  104.3038   33.9507 C   0  0  0  0  0  0
   52.6082  105.3550   34.8513 C   0  0  0  0  0  0
   51.6791  105.6298   35.8507 C   0  0  0  0  0  0
   50.5497  104.8067   35.9454 C   0  0  0  0  0  0
   49.2434  104.9295   37.1134 S   0  0  0  0  0  0
   48.4579  103.5505   36.3956 C   0  0  0  0  0  0
   49.1411  103.0211   35.3233 C   0  0  0  0  0  0
   50.3441  103.7239   35.0426 C   0  0  0  0  0  0
   51.2963  103.4973   34.0380 C   0  0  0  0  0  0
   50.8441   96.2982   30.1995 H   0  0  0  0  0  0
   52.2544   97.1508   30.8038 H   0  0  0  0  0  0
   50.6171   97.7352   31.1830 H   0  0  0  0  0  0
   52.3953   99.4000   31.2355 H   0  0  0  0  0  0
   52.3765  103.1969   29.2308 H   0  0  0  0  0  0
   51.3476  102.1796   27.3123 H   0  0  0  0  0  0
   50.9351   97.4512   26.9224 H   0  0  0  0  0  0
   49.3400   99.6814   23.9443 H   0  0  0  0  0  0
   49.9760  101.4328   25.6195 H   0  0  0  0  0  0
   53.0031  103.8343   30.8341 H   0  0  0  0  0  0
   54.4093  103.6966   33.3350 H   0  0  0  0  0  0
   53.8016  105.1028   32.4961 H   0  0  0  0  0  0
   53.4738  105.9961   34.7588 H   0  0  0  0  0  0
   51.8298  106.4559   36.5305 H   0  0  0  0  0  0
   47.5288  103.1905   36.8103 H   0  0  0  0  0  0
   48.8079  102.1617   34.7626 H   0  0  0  0  0  0
   51.1457  102.6780   33.3563 H   0  0  0  0  0  0
  1  2  1  0  0  0
  1 27  1  0  0  0
  1 28  1  0  0  0
  1 29  1  0  0  0
  2  3  1  0  0  0
  3  4  2  0  0  0
  3  8  1  0  0  0
  4  5  1  0  0  0
  4 30  1  0  0  0
  5  6  2  0  0  0
  5 14  1  0  0  0
  6  7  1  0  0  0
  6 31  1  0  0  0
  7  8  2  0  0  0
  7 32  1  0  0  0
  8  9  1  0  0  0
  9 10  1  0  0  0
  9 13  2  0  0  0
 10 11  2  0  0  0
 10 33  1  0  0  0
 11 12  1  0  0  0
 12 13  1  0  0  0
 12 34  1  0  0  0
 13 35  1  0  0  0
 14 15  2  0  0  0
 14 16  1  0  0  0
 16 17  1  0  0  0
 16 36  1  0  0  0
 17 18  1  0  0  0
 17 37  1  0  0  0
 17 38  1  0  0  0
 18 19  2  0  0  0
 18 26  1  0  0  0
 19 20  1  0  0  0
 19 39  1  0  0  0
 20 21  2  0  0  0
 20 40  1  0  0  0
 21 22  1  0  0  0
 21 25  1  0  0  0
 22 23  1  0  0  0
 23 24  2  0  0  0
 23 41  1  0  0  0
 24 25  1  0  0  0
 24 42  1  0  0  0
 25 26  2  0  0  0
 26 43  1  0  0  0
M  END
> <s_m_entry_id>
28150

> <s_m_entry_name>
dock_pv.311

> <s_m_Source_Path>
/home/csk/Desktop/cluster/DUD-E-result/rock1

> <s_m_Source_File>
dock_pv.maegz

> <i_m_Source_File_Index>
311

> <chembl_id>
CHEMBL3964208

> <chembl_pref_name>
None

> <i_lp_mmshare_version>
53161

> <r_lp_tautomer_probability>
0.5

> <s_lp_Force_Field>
OPLS_2005

> <r_lp_Energy>
21.492283

> <b_lp_Chiralities_Consistent>
1

> <s_lp_Variant>
CHEMBL3231_lig679-1

> <s_i_glide_gridfile>
glide-grid_2etr

> <i_i_glide_lignum>
972

> <i_i_glide_rotatable_bonds>
6

> <r_i_docking_score>
-7.73378010913889

> <r_i_glide_ligand_efficiency>
-0.297453081120726

> <r_i_glide_ligand_efficiency_sa>
-0.881203582398796

> <r_i_glide_ligand_efficiency_ln>
-1.81625288202892

> <r_i_glide_gscore>
-7.73378010913889

> <r_i_glide_lipo>
-2.47729074711511

> <r_i_glide_hbond>
-0.570537760683538

> <r_i_glide_metal>
0

> <r_i_glide_rewards>
-1.87159144137115

> <r_i_glide_evdw>
-45.9986038208008

> <r_i_glide_ecoul>
-5.71078157424927

> <r_i_glide_erotb>
0.40729673131546

> <r_i_glide_esite>
-0.0651094641071233

> <r_i_glide_emodel>
-75.1509532763394

> <r_i_glide_energy>
-51.70938539505

> <r_i_glide_einternal>
2.10526371002197

> <i_i_glide_confnum>
2

> <i_i_glide_posenum>
28

> <r_i_glide_eff_state_penalty>
0

> <s_user_duplicate_titles>
CHEMBL3231_lig679

> <i_f3d_flags>
0

> <s_m_subgroup_title>
dock_pv

> <s_m_subgroupid>
dock_pv

> <b_m_subgroup_collapsed>
1

$$$$
CHEMBL3231_lig1248
                    3D
 Schrodinger Suite 2021-1.
 38 40  0  0  1  0            999 V2000
   50.8464  102.1908   28.3812 C   0  0  0  0  0  0
   51.3399  100.9307   28.2973 C   0  0  0  0  0  0
   52.2868  100.4810   29.1841 N   0  0  0  0  0  0
   52.7095  101.2504   30.1326 C   0  0  0  0  0  0
   52.2172  102.5182   30.2279 N   0  0  0  0  0  0
   51.2865  103.0704   29.4271 C   0  0  0  0  0  0
   50.8429  104.1930   29.6106 O   0  0  0  0  0  0
   53.6454  100.8788   31.1345 N   0  0  0  0  0  0
   54.4456   99.6518   31.1212 C   0  0  0  0  0  0
   55.3568   99.6248   32.3732 C   0  0  0  0  0  0
   54.5501   99.4846   33.6831 C   0  0  0  0  0  0
   53.6855   98.2064   33.6625 C   0  0  0  0  0  0
   52.8384   98.0890   32.3782 C   0  0  0  0  0  0
   53.6746   98.3048   31.1003 C   0  0  0  0  0  0
   50.9276   99.9916   27.2194 C   0  0  0  0  0  0
   50.9097   98.6030   27.4301 C   0  0  0  0  0  0
   50.4651   97.7632   26.4104 C   0  0  0  0  0  0
   50.0429   98.2259   25.2111 N   0  0  0  0  0  0
   50.0578   99.5638   25.0038 C   0  0  0  0  0  0
   50.4893  100.4692   25.9708 C   0  0  0  0  0  0
   50.1127  102.5703   27.6916 H   0  0  0  0  0  0
   52.5551  103.1277   30.9508 H   0  0  0  0  0  0
   54.1222  101.6365   31.5969 H   0  0  0  0  0  0
   55.0996   99.6715   30.2466 H   0  0  0  0  0  0
   56.0429   98.7788   32.3096 H   0  0  0  0  0  0
   55.9908  100.5128   32.4060 H   0  0  0  0  0  0
   55.2309   99.4561   34.5355 H   0  0  0  0  0  0
   53.9161  100.3596   33.8318 H   0  0  0  0  0  0
   54.3383   97.3340   33.7352 H   0  0  0  0  0  0
   53.0403   98.1754   34.5405 H   0  0  0  0  0  0
   52.3593   97.1085   32.3436 H   0  0  0  0  0  0
   52.0310   98.8225   32.4069 H   0  0  0  0  0  0
   53.0248   98.2407   30.2289 H   0  0  0  0  0  0
   54.3842   97.4844   30.9830 H   0  0  0  0  0  0
   51.2325   98.1829   28.3724 H   0  0  0  0  0  0
   50.4458   96.6925   26.5458 H   0  0  0  0  0  0
   49.7170   99.9080   24.0373 H   0  0  0  0  0  0
   50.4852  101.5249   25.7418 H   0  0  0  0  0  0
  1  2  2  0  0  0
  1  6  1  0  0  0
  1 21  1  0  0  0
  2  3  1  0  0  0
  2 15  1  0  0  0
  3  4  2  0  0  0
  4  5  1  0  0  0
  4  8  1  0  0  0
  5  6  1  0  0  0
  5 22  1  0  0  0
  6  7  2  0  0  0
  8  9  1  0  0  0
  8 23  1  0  0  0
  9 14  1  0  0  0
  9 10  1  0  0  0
  9 24  1  0  0  0
 10 11  1  0  0  0
 10 25  1  0  0  0
 10 26  1  0  0  0
 11 12  1  0  0  0
 11 27  1  0  0  0
 11 28  1  0  0  0
 12 13  1  0  0  0
 12 29  1  0  0  0
 12 30  1  0  0  0
 13 14  1  0  0  0
 13 31  1  0  0  0
 13 32  1  0  0  0
 14 33  1  0  0  0
 14 34  1  0  0  0
 15 16  2  0  0  0
 15 20  1  0  0  0
 16 17  1  0  0  0
 16 35  1  0  0  0
 17 18  2  0  0  0
 17 36  1  0  0  0
 18 19  1  0  0  0
 19 20  2  0  0  0
 19 37  1  0  0  0
 20 38  1  0  0  0
M  END
> <s_m_entry_id>
28152

> <s_m_entry_name>
dock_pv.313

> <s_m_Source_Path>
/home/csk/Desktop/cluster/DUD-E-result/rock1

> <s_m_Source_File>
dock_pv.maegz

> <i_m_Source_File_Index>
313

> <chembl_id>
CHEMBL1958401

> <chembl_pref_name>
None

> <i_lp_mmshare_version>
53161

> <r_lp_tautomer_probability>
0.878315377147829

> <s_lp_Force_Field>
OPLS_2005

> <r_lp_Energy>
15.796325

> <b_lp_Chiralities_Consistent>
1

> <s_lp_Variant>
CHEMBL3231_lig1248-1

> <s_i_glide_gridfile>
glide-grid_2etr

> <i_i_glide_lignum>
1734

> <i_i_glide_rotatable_bonds>
3

> <r_i_docking_score>
-7.73309161409943

> <r_i_glide_ligand_efficiency>
-0.386654580704972

> <r_i_glide_ligand_efficiency_sa>
-1.04954200435464

> <r_i_glide_ligand_efficiency_ln>
-1.93533777657762

> <r_i_glide_gscore>
-7.73309161409943

> <r_i_glide_lipo>
-2.16951955232055

> <r_i_glide_hbond>
-0.375587723980523

> <r_i_glide_metal>
0

> <r_i_glide_rewards>
-2.89919883626871

> <r_i_glide_evdw>
-36.4256477355957

> <r_i_glide_ecoul>
-7.51007509231567

> <r_i_glide_erotb>
0.734184574603199

> <r_i_glide_esite>
-0.0751764255057121

> <r_i_glide_emodel>
-64.2414627294791

> <r_i_glide_energy>
-43.9357228279114

> <r_i_glide_einternal>
2.0336971282959

> <i_i_glide_confnum>
19

> <i_i_glide_posenum>
107

> <r_i_glide_eff_state_penalty>
0

> <s_user_duplicate_titles>
CHEMBL3231_lig1248,CHEMBL3231_lig1248,CHEMBL3231_lig1248

> <i_f3d_flags>
0

> <s_m_subgroup_title>
dock_pv

> <s_m_subgroupid>
dock_pv

> <b_m_subgroup_collapsed>
1

$$$$
CHEMBL3231_lig240
                    3D
 Schrodinger Suite 2021-1.
 39 41  0  0  1  0            999 V2000
   50.0428   98.5036   25.4184 N   0  0  0  0  0  0
   50.4432   97.5800   26.3196 C   0  0  0  0  0  0
   50.9456   97.9031   27.5765 C   0  0  0  0  0  0
   50.1078   99.8061   25.7741 C   0  0  0  0  0  0
   50.6412  100.2639   27.0186 C   0  0  0  0  0  0
   51.0920   99.2629   27.9334 C   0  0  0  0  0  0
   51.6805   99.6517   29.1613 C   0  0  0  0  0  0
   51.8301  101.0029   29.4836 C   0  0  0  0  0  0
   51.3537  101.9786   28.6078 C   0  0  0  0  0  0
   50.7640  101.6283   27.3946 C   0  0  0  0  0  0
   49.6112  100.6808   24.8112 N   0  0  0  0  0  0
   52.5985  101.4105   30.7363 C   0  0  0  0  0  0
   52.0434  100.8251   31.9550 N   0  0  1  0  0  0
   53.0089  100.9535   33.0436 C   0  0  0  0  0  0
   52.4428  100.3960   34.3636 C   0  0  0  0  0  0
   51.3883  101.2845   35.0126 C   0  0  0  0  0  0
   51.7574  102.4811   35.6395 C   0  0  0  0  0  0
   50.7628  103.2665   36.2271 C   0  0  0  0  0  0
   49.4494  102.9224   36.2207 N   0  0  0  0  0  0
   49.1075  101.7573   35.6105 C   0  0  0  0  0  0
   50.0404  100.9141   35.0024 C   0  0  0  0  0  0
   50.3633   96.5467   26.0159 H   0  0  0  0  0  0
   51.2433   97.1260   28.2647 H   0  0  0  0  0  0
   52.0475   98.8907   29.8362 H   0  0  0  0  0  0
   51.4730  103.0246   28.8480 H   0  0  0  0  0  0
   50.4285  102.4046   26.7228 H   0  0  0  0  0  0
   49.4881  101.6566   25.0413 H   0  0  0  0  0  0
   49.2446  100.3030   23.9415 H   0  0  0  0  0  0
   52.6047  102.4977   30.8307 H   0  0  0  0  0  0
   53.6361  101.0992   30.5957 H   0  0  0  0  0  0
   51.2103  101.3294   32.2219 H   0  0  0  0  0  0
   53.2273  102.0148   33.1807 H   0  0  0  0  0  0
   53.9575  100.4647   32.8091 H   0  0  0  0  0  0
   53.2608  100.2766   35.0772 H   0  0  0  0  0  0
   52.0557   99.3856   34.2143 H   0  0  0  0  0  0
   52.7906  102.7969   35.6690 H   0  0  0  0  0  0
   51.0135  104.1984   36.7143 H   0  0  0  0  0  0
   48.0568  101.5033   35.6254 H   0  0  0  0  0  0
   49.7218   99.9931   34.5331 H   0  0  0  0  0  0
  1  2  2  0  0  0
  1  4  1  0  0  0
  2  3  1  0  0  0
  2 22  1  0  0  0
  3  6  2  0  0  0
  3 23  1  0  0  0
  4 11  1  0  0  0
  4  5  2  0  0  0
  5 10  1  0  0  0
  5  6  1  0  0  0
  6  7  1  0  0  0
  7  8  2  0  0  0
  7 24  1  0  0  0
  8 12  1  0  0  0
  8  9  1  0  0  0
  9 10  2  0  0  0
  9 25  1  0  0  0
 10 26  1  0  0  0
 11 27  1  0  0  0
 11 28  1  0  0  0
 12 13  1  0  0  0
 12 29  1  0  0  0
 12 30  1  0  0  0
 13 14  1  0  0  0
 13 31  1  0  0  0
 14 15  1  0  0  0
 14 32  1  0  0  0
 14 33  1  0  0  0
 15 16  1  0  0  0
 15 34  1  0  0  0
 15 35  1  0  0  0
 16 17  2  0  0  0
 16 21  1  0  0  0
 17 18  1  0  0  0
 17 36  1  0  0  0
 18 19  2  0  0  0
 18 37  1  0  0  0
 19 20  1  0  0  0
 20 21  2  0  0  0
 20 38  1  0  0  0
 21 39  1  0  0  0
M  END
> <s_m_entry_id>
28153

> <s_m_entry_name>
dock_pv.314

> <s_m_Source_Path>
/home/csk/Desktop/cluster/DUD-E-result/rock1

> <s_m_Source_File>
dock_pv.maegz

> <i_m_Source_File_Index>
314

> <chembl_id>
CHEMBL1643364

> <chembl_pref_name>
None

> <i_lp_mmshare_version>
53161

> <r_lp_tautomer_probability>
1

> <s_lp_Force_Field>
OPLS_2005

> <r_lp_Energy>
13.350243

> <b_lp_Chiralities_Consistent>
1

> <s_lp_Variant>
CHEMBL3231_lig240-1

> <s_i_glide_gridfile>
glide-grid_2etr

> <i_i_glide_lignum>
384

> <i_i_glide_rotatable_bonds>
5

> <r_i_docking_score>
-7.72983162648093

> <r_i_glide_ligand_efficiency>
-0.368087220308616

> <r_i_glide_ligand_efficiency_sa>
-1.01552473009577

> <r_i_glide_ligand_efficiency_ln>
-1.91118525005189

> <r_i_glide_gscore>
-7.72983162648093

> <r_i_glide_lipo>
-3.12542736834115

> <r_i_glide_hbond>
-0.330359093048147

> <r_i_glide_metal>
0

> <r_i_glide_rewards>
-2.85290562121212

> <r_i_glide_evdw>
-36.837085723877

> <r_i_glide_ecoul>
-3.39885902404785

> <r_i_glide_erotb>
0.93054359592152

> <r_i_glide_esite>
0

> <r_i_glide_emodel>
-58.5383310418816

> <r_i_glide_energy>
-40.2359447479248

> <r_i_glide_einternal>
2.55796241760254

> <i_i_glide_confnum>
18

> <i_i_glide_posenum>
128

> <r_i_glide_eff_state_penalty>
0

> <s_user_duplicate_titles>
CHEMBL3231_lig240

> <i_f3d_flags>
0

> <s_m_subgroup_title>
dock_pv

> <s_m_subgroupid>
dock_pv

> <b_m_subgroup_collapsed>
1

$$$$
CHEMBL3231_lig905
                    3D
 Schrodinger Suite 2021-1.
 44 47  0  0  1  0            999 V2000
   53.1116  104.3042   33.0445 C   0  0  0  0  0  0
   53.2510  102.8954   32.4239 C   0  0  0  0  0  0
   54.7227  102.6055   32.0431 C   0  0  0  0  0  0
   52.4829  103.0043   31.1648 N   0  0  0  0  0  0
   52.6780  101.7948   33.2849 N   0  0  0  0  0  0
   52.2854  100.5774   32.7660 C   0  0  0  0  0  0
   52.1936  101.8062   30.5574 C   0  0  0  0  0  0
   52.1281  100.6556   31.3326 C   0  0  0  0  0  0
   51.7009   99.2891   30.3471 S   0  0  0  0  0  0
   51.5549  100.2782   28.9096 C   0  0  0  0  0  0
   51.8968  101.5982   29.2071 C   0  0  0  0  0  0
   51.0695   99.6908   27.6164 C   0  0  0  0  0  0
   50.9522   98.3056   27.4195 C   0  0  0  0  0  0
   50.4416   97.8277   26.2129 C   0  0  0  0  0  0
   50.0427   98.6427   25.2078 N   0  0  0  0  0  0
   50.1728   99.9807   25.3903 C   0  0  0  0  0  0
   50.6757  100.5384   26.5680 C   0  0  0  0  0  0
   51.9994   99.6024   33.4666 O   0  0  0  0  0  0
   52.7576  101.9064   34.7602 C   0  0  0  0  0  0
   51.5145  102.4878   35.4352 C   0  0  0  0  0  0
   51.6185  103.6647   36.1838 C   0  0  0  0  0  0
   50.2836  101.8267   35.3536 C   0  0  0  0  0  0
   49.1674  102.3410   36.0063 C   0  0  0  0  0  0
   49.2793  103.5182   36.7418 C   0  0  0  0  0  0
   50.5000  104.1849   36.8296 C   0  0  0  0  0  0
   52.0759  104.5499   33.2808 H   0  0  0  0  0  0
   53.6909  104.4089   33.9610 H   0  0  0  0  0  0
   53.4869  105.0777   32.3715 H   0  0  0  0  0  0
   54.8410  101.6351   31.5567 H   0  0  0  0  0  0
   55.1261  103.3599   31.3650 H   0  0  0  0  0  0
   55.3605  102.5933   32.9265 H   0  0  0  0  0  0
   52.7176  103.8203   30.6203 H   0  0  0  0  0  0
   51.8899  102.3972   28.4822 H   0  0  0  0  0  0
   51.2426   97.5975   28.1819 H   0  0  0  0  0  0
   50.3427   96.7648   26.0404 H   0  0  0  0  0  0
   49.8496  100.6087   24.5712 H   0  0  0  0  0  0
   50.7332  101.6139   26.6615 H   0  0  0  0  0  0
   53.6370  102.4941   35.0248 H   0  0  0  0  0  0
   52.9495  100.9363   35.2236 H   0  0  0  0  0  0
   52.5650  104.1774   36.2652 H   0  0  0  0  0  0
   50.1927  100.9069   34.7942 H   0  0  0  0  0  0
   48.2184  101.8290   35.9464 H   0  0  0  0  0  0
   48.4125  103.9112   37.2499 H   0  0  0  0  0  0
   50.5820  105.0954   37.4053 H   0  0  0  0  0  0
  1  2  1  0  0  0
  1 26  1  0  0  0
  1 27  1  0  0  0
  1 28  1  0  0  0
  2  3  1  0  0  0
  2  4  1  0  0  0
  2  5  1  0  0  0
  3 29  1  0  0  0
  3 30  1  0  0  0
  3 31  1  0  0  0
  4  7  1  0  0  0
  4 32  1  0  0  0
  5  6  1  0  0  0
  5 19  1  0  0  0
  6  8  1  0  0  0
  6 18  2  0  0  0
  7  8  2  0  0  0
  7 11  1  0  0  0
  8  9  1  0  0  0
  9 10  1  0  0  0
 10 11  2  0  0  0
 10 12  1  0  0  0
 11 33  1  0  0  0
 12 13  2  0  0  0
 12 17  1  0  0  0
 13 14  1  0  0  0
 13 34  1  0  0  0
 14 15  2  0  0  0
 14 35  1  0  0  0
 15 16  1  0  0  0
 16 17  2  0  0  0
 16 36  1  0  0  0
 17 37  1  0  0  0
 19 20  1  0  0  0
 19 38  1  0  0  0
 19 39  1  0  0  0
 20 21  2  0  0  0
 20 22  1  0  0  0
 21 25  1  0  0  0
 21 40  1  0  0  0
 22 23  2  0  0  0
 22 41  1  0  0  0
 23 24  1  0  0  0
 23 42  1  0  0  0
 24 25  2  0  0  0
 24 43  1  0  0  0
 25 44  1  0  0  0
M  END
> <s_m_entry_id>
28154

> <s_m_entry_name>
dock_pv.315

> <s_m_Source_Path>
/home/csk/Desktop/cluster/DUD-E-result/rock1

> <s_m_Source_File>
dock_pv.maegz

> <i_m_Source_File_Index>
315

> <chembl_id>
CHEMBL4204752

> <chembl_pref_name>
None

> <i_lp_mmshare_version>
53161

> <r_lp_tautomer_probability>
0.99999637101317

> <s_lp_Force_Field>
OPLS_2005

> <r_lp_Energy>
34.066104

> <b_lp_Chiralities_Consistent>
1

> <s_lp_Variant>
CHEMBL3231_lig905-1

> <s_i_glide_gridfile>
glide-grid_2etr

> <i_i_glide_lignum>
1299

> <i_i_glide_rotatable_bonds>
3

> <r_i_docking_score>
-7.7287302039158

> <r_i_glide_ligand_efficiency>
-0.309149208156632

> <r_i_glide_ligand_efficiency_sa>
-0.903957767434544

> <r_i_glide_ligand_efficiency_ln>
-1.83194066968237

> <r_i_glide_gscore>
-7.7287302039158

> <r_i_glide_lipo>
-3.0858711720075

> <r_i_glide_hbond>
-0.0669858994287531

> <r_i_glide_metal>
0

> <r_i_glide_rewards>
-2.35075617406591

> <r_i_glide_evdw>
-43.9117736816406

> <r_i_glide_ecoul>
-2.79325389862061

> <r_i_glide_erotb>
0.467972264406177

> <r_i_glide_esite>
-0.0785124539446888

> <r_i_glide_emodel>
-68.4043788045173

> <r_i_glide_energy>
-46.7050275802612

> <r_i_glide_einternal>
1.13524198532104

> <i_i_glide_confnum>
1

> <i_i_glide_posenum>
159

> <r_i_glide_eff_state_penalty>
0

> <s_user_duplicate_titles>
CHEMBL3231_lig905

> <i_f3d_flags>
0

> <s_m_subgroup_title>
dock_pv

> <s_m_subgroupid>
dock_pv

> <b_m_subgroup_collapsed>
1

$$$$
CHEMBL3231_lig1781
                    3D
 Schrodinger Suite 2021-1.
 41 45  0  0  1  0            999 V2000
   52.2446  100.8002   32.4512 N   0  0  0  0  0  0
   51.6860   98.9857   31.4091 N   0  0  0  0  0  0
   52.0422   99.4979   32.6345 N   0  0  0  0  0  0
   50.0429   98.8904   25.1731 N   0  0  0  0  0  0
   49.8029  100.1614   24.8110 N   0  0  0  0  0  0
   52.0432  101.1658   31.1351 C   0  0  0  0  0  0
   51.6701   99.9579   30.5075 C   0  0  0  0  0  0
   52.2163  102.6076   30.6796 C   0  0  0  0  0  0
   51.2600   99.6566   29.0884 C   0  0  0  0  0  0
   53.5945  103.2332   30.6936 C   0  0  0  0  0  0
   52.8941  102.9654   29.3803 C   0  0  0  0  0  0
   50.4723  100.3706   26.9153 C   0  0  0  0  0  0
   50.8493  100.6821   28.2291 C   0  0  0  0  0  0
   50.4620   99.0152   26.4681 C   0  0  0  0  0  0
   51.2431   98.3298   28.6293 C   0  0  0  0  0  0
   52.5542  101.6333   33.6127 C   0  0  0  0  0  0
   50.8451   97.9903   27.3378 C   0  0  0  0  0  0
   50.0429  101.1020   25.7845 C   0  0  0  0  0  0
   51.3241  102.1867   34.3296 C   0  0  0  0  0  0
   51.1438  103.5689   34.4388 C   0  0  0  0  0  0
   50.3935  101.3149   34.9071 C   0  0  0  0  0  0
   50.0377  104.0757   35.1182 C   0  0  0  0  0  0
   49.2835  101.8217   35.5796 C   0  0  0  0  0  0
   49.1101  103.2006   35.6814 C   0  0  0  0  0  0
   49.4540  100.3759   23.8827 H   0  0  0  0  0  0
   51.3967  103.2563   30.9857 H   0  0  0  0  0  0
   53.7044  104.2639   31.0358 H   0  0  0  0  0  0
   54.4559  102.6188   30.9609 H   0  0  0  0  0  0
   53.2443  102.1568   28.7392 H   0  0  0  0  0  0
   52.5141  103.8140   28.8116 H   0  0  0  0  0  0
   50.8069  101.7043   28.5676 H   0  0  0  0  0  0
   51.5395   97.5285   29.2901 H   0  0  0  0  0  0
   53.2267  102.4306   33.2967 H   0  0  0  0  0  0
   53.1300  101.0365   34.3229 H   0  0  0  0  0  0
   50.8426   96.9597   27.0167 H   0  0  0  0  0  0
   49.8632  102.1516   25.6109 H   0  0  0  0  0  0
   51.8648  104.2506   34.0101 H   0  0  0  0  0  0
   50.5299  100.2451   34.8389 H   0  0  0  0  0  0
   49.9022  105.1434   35.2127 H   0  0  0  0  0  0
   48.5639  101.1506   36.0256 H   0  0  0  0  0  0
   48.2522  103.5919   36.2086 H   0  0  0  0  0  0
  1  3  1  0  0  0
  1  6  1  0  0  0
  1 16  1  0  0  0
  2  3  2  0  0  0
  2  7  1  0  0  0
  4  5  1  0  0  0
  4 14  2  0  0  0
  5 25  1  0  0  0
  5 18  1  0  0  0
  6  7  2  0  0  0
  6  8  1  0  0  0
  7  9  1  0  0  0
  8 10  1  0  0  0
  8 11  1  0  0  0
  8 26  1  0  0  0
  9 15  1  0  0  0
  9 13  2  0  0  0
 10 11  1  0  0  0
 10 27  1  0  0  0
 10 28  1  0  0  0
 11 29  1  0  0  0
 11 30  1  0  0  0
 12 13  1  0  0  0
 12 14  1  0  0  0
 12 18  2  0  0  0
 13 31  1  0  0  0
 14 17  1  0  0  0
 15 17  2  0  0  0
 15 32  1  0  0  0
 16 19  1  0  0  0
 16 33  1  0  0  0
 16 34  1  0  0  0
 17 35  1  0  0  0
 18 36  1  0  0  0
 19 20  2  0  0  0
 19 21  1  0  0  0
 20 22  1  0  0  0
 20 37  1  0  0  0
 21 23  2  0  0  0
 21 38  1  0  0  0
 22 24  2  0  0  0
 22 39  1  0  0  0
 23 24  1  0  0  0
 23 40  1  0  0  0
 24 41  1  0  0  0
M  END
> <s_m_entry_id>
28155

> <s_m_entry_name>
dock_pv.316

> <s_m_Source_Path>
/home/csk/Desktop/cluster/DUD-E-result/rock1

> <s_m_Source_File>
dock_pv.maegz

> <i_m_Source_File_Index>
316

> <chembl_id>
CHEMBL1975418

> <chembl_pref_name>
None

> <i_lp_mmshare_version>
53161

> <r_lp_tautomer_probability>
0.0196078431372549

> <s_lp_Force_Field>
OPLS_2005

> <r_lp_Energy>
32.733255

> <b_lp_Chiralities_Consistent>
1

> <s_lp_Variant>
CHEMBL3231_lig1781-2

> <s_i_glide_gridfile>
glide-grid_2etr

> <i_i_glide_lignum>
2548

> <i_i_glide_rotatable_bonds>
4

> <r_i_docking_score>
-7.72646089448984

> <r_i_glide_ligand_efficiency>
-0.321935870603743

> <r_i_glide_ligand_efficiency_sa>
-0.928623741105842

> <r_i_glide_ligand_efficiency_ln>
-1.84929663623946

> <r_i_glide_gscore>
-7.72646089448984

> <r_i_glide_lipo>
-2.94832589404783

> <r_i_glide_hbond>
-0.32

> <r_i_glide_metal>
0

> <r_i_glide_rewards>
-2.57217801445791

> <r_i_glide_evdw>
-41.4277992248535

> <r_i_glide_ecoul>
-3.73015832901001

> <r_i_glide_erotb>
0.748111375920535

> <r_i_glide_esite>
-0.00315465131045712

> <r_i_glide_emodel>
-65.5384670142348

> <r_i_glide_energy>
-45.1579575538635

> <r_i_glide_einternal>
0.394011110067368

> <i_i_glide_confnum>
3

> <i_i_glide_posenum>
243

> <r_i_glide_eff_state_penalty>
0

> <s_user_duplicate_titles>
CHEMBL3231_lig1781,CHEMBL3231_lig1781

> <i_f3d_flags>
0

> <s_m_subgroup_title>
dock_pv

> <s_m_subgroupid>
dock_pv

> <b_m_subgroup_collapsed>
1

$$$$
CHEMBL3231_lig1323
                    3D
 Schrodinger Suite 2021-1.
 44 47  0  0  1  0            999 V2000
   54.1369  100.8491   30.6322 F   0  0  0  0  0  0
   52.4451   97.5053   36.4121 O   0  0  0  0  0  0
   53.4392   98.4484   33.7106 N   0  0  0  0  0  0
   55.2430   98.8497   32.4554 N   0  0  0  0  0  0
   53.6430   98.3618   38.0865 N   0  0  0  0  0  0
   50.2811   98.1183   25.4248 N   0  0  2  0  0  0
   54.5620   98.4219   34.5076 C   0  0  0  0  0  0
   53.8765   98.7159   32.5036 C   0  0  0  0  0  0
   55.7232   98.6692   33.7267 C   0  0  0  0  0  0
   53.0161   98.8447   31.2969 C   0  0  0  0  0  0
   54.6814   98.2095   35.9014 C   0  0  0  0  0  0
   53.2124   99.8949   30.3909 C   0  0  0  0  0  0
   57.0078   98.6946   34.2654 C   0  0  0  0  0  0
   52.0103   97.9089   31.0412 C   0  0  0  0  0  0
   51.4651   99.0230   28.9497 C   0  0  0  0  0  0
   55.9885   98.2286   36.4257 C   0  0  0  0  0  0
   53.5059   97.9749   36.8165 C   0  0  0  0  0  0
   52.4480   99.9755   29.2304 C   0  0  0  0  0  0
   51.2432   97.9950   29.8771 C   0  0  0  0  0  0
   57.1107   98.4650   35.6338 C   0  0  0  0  0  0
   50.6388   99.0834   27.6593 C   0  0  2  0  0  0
   51.1702   98.1189   26.5847 C   0  0  0  0  0  0
   50.4067  100.5135   27.1079 C   0  0  0  0  0  0
   49.6430  100.4598   25.7785 C   0  0  0  0  0  0
   50.2490   99.4423   24.8104 C   0  0  0  0  0  0
   55.7734   99.0282   31.6112 H   0  0  0  0  0  0
   54.4916   98.7916   38.4150 H   0  0  0  0  0  0
   52.8227   98.2991   38.6834 H   0  0  0  0  0  0
   49.3532   97.9411   25.7792 H   0  0  0  0  0  0
   57.8803   98.8812   33.6515 H   0  0  0  0  0  0
   51.8380   97.1032   31.7379 H   0  0  0  0  0  0
   56.1632   98.0558   37.4772 H   0  0  0  0  0  0
   52.6571  100.7862   28.5510 H   0  0  0  0  0  0
   50.4914   97.2412   29.6889 H   0  0  0  0  0  0
   58.0899   98.4740   36.0910 H   0  0  0  0  0  0
   49.6769   98.6768   27.9725 H   0  0  0  0  0  0
   52.1622   98.4236   26.2603 H   0  0  0  0  0  0
   51.2378   97.1054   26.9730 H   0  0  0  0  0  0
   49.8229  101.1038   27.8167 H   0  0  0  0  0  0
   51.3490  101.0261   26.9178 H   0  0  0  0  0  0
   48.5970  100.2139   25.9268 H   0  0  0  0  0  0
   49.6448  101.4482   25.3155 H   0  0  0  0  0  0
   49.6434   99.3834   23.9123 H   0  0  0  0  0  0
   51.2496   99.7472   24.5087 H   0  0  0  0  0  0
  1 12  1  0  0  0
  2 17  2  0  0  0
  3  7  1  0  0  0
  3  8  2  0  0  0
  4  8  1  0  0  0
  4  9  1  0  0  0
  4 26  1  0  0  0
  5 17  1  0  0  0
  5 27  1  0  0  0
  5 28  1  0  0  0
  6 22  1  0  0  0
  6 25  1  0  0  0
  6 29  1  0  0  0
  7  9  2  0  0  0
  7 11  1  0  0  0
  8 10  1  0  0  0
  9 13  1  0  0  0
 10 12  1  0  0  0
 10 14  2  0  0  0
 11 16  2  0  0  0
 11 17  1  0  0  0
 12 18  2  0  0  0
 13 20  2  0  0  0
 13 30  1  0  0  0
 14 19  1  0  0  0
 14 31  1  0  0  0
 15 18  1  0  0  0
 15 19  2  0  0  0
 15 21  1  0  0  0
 16 20  1  0  0  0
 16 32  1  0  0  0
 18 33  1  0  0  0
 19 34  1  0  0  0
 20 35  1  0  0  0
 21 22  1  0  0  0
 21 23  1  0  0  0
 21 36  1  0  0  0
 22 37  1  0  0  0
 22 38  1  0  0  0
 23 24  1  0  0  0
 23 39  1  0  0  0
 23 40  1  0  0  0
 24 25  1  0  0  0
 24 41  1  0  0  0
 24 42  1  0  0  0
 25 43  1  0  0  0
 25 44  1  0  0  0
M  END
> <s_m_entry_id>
28156

> <s_m_entry_name>
dock_pv.317

> <s_m_Source_Path>
/home/csk/Desktop/cluster/DUD-E-result/rock1

> <s_m_Source_File>
dock_pv.maegz

> <i_m_Source_File_Index>
317

> <chembl_id>
CHEMBL1997025

> <chembl_pref_name>
None

> <i_lp_mmshare_version>
53161

> <r_lp_tautomer_probability>
1

> <s_lp_Force_Field>
OPLS_2005

> <r_lp_Energy>
32.138553

> <b_lp_Chiralities_Consistent>
1

> <s_lp_Variant>
CHEMBL3231_lig1323-1

> <s_i_glide_gridfile>
glide-grid_2etr

> <i_i_glide_lignum>
1838

> <i_i_glide_rotatable_bonds>
3

> <r_i_docking_score>
-7.72571826970416

> <r_i_glide_ligand_efficiency>
-0.309028730788167

> <r_i_glide_ligand_efficiency_sa>
-0.903605489472476

> <r_i_glide_ligand_efficiency_ln>
-1.83122675101382

> <r_i_glide_gscore>
-7.72571826970416

> <r_i_glide_lipo>
-2.16876960675171

> <r_i_glide_hbond>
-0.750104031474811

> <r_i_glide_metal>
0

> <r_i_glide_rewards>
-1.94119871443064

> <r_i_glide_evdw>
-31.4473457336426

> <r_i_glide_ecoul>
-9.79421615600586

> <r_i_glide_erotb>
0.330326544836406

> <r_i_glide_esite>
-0.154472751800394

> <r_i_glide_emodel>
-59.6221576086173

> <r_i_glide_energy>
-41.2415618896484

> <r_i_glide_einternal>
3.93992733955383

> <i_i_glide_confnum>
21

> <i_i_glide_posenum>
41

> <r_i_glide_eff_state_penalty>
0

> <s_user_duplicate_titles>
CHEMBL3231_lig1323

> <i_f3d_flags>
0

> <s_m_subgroup_title>
dock_pv

> <s_m_subgroupid>
dock_pv

> <b_m_subgroup_collapsed>
1

$$$$
CHEMBL3231_lig1943
                    3D
 Schrodinger Suite 2021-1.
 26 29  0  0  1  0            999 V2000
   54.8408  101.7973   33.3089 S   0  0  0  0  0  0
   51.2432  103.8999   30.4073 O   0  0  0  0  0  0
   52.0231  101.7834   29.8991 N   0  0  0  0  0  0
   52.4988   99.7433   29.2217 N   0  0  0  0  0  0
   51.2584  101.5800   28.8238 N   0  0  0  0  0  0
   52.9295  102.9590   31.6927 N   0  0  0  0  0  0
   50.0016   98.4609   24.9613 N   0  0  0  0  0  0
   52.7819  100.6570   30.1097 C   0  0  0  0  0  0
   53.7181  100.6810   31.2280 C   0  0  0  0  0  0
   53.7331  101.8585   31.9826 C   0  0  0  0  0  0
   51.5977  100.3552   28.4616 C   0  0  0  0  0  0
   52.0217  102.9880   30.6798 C   0  0  0  0  0  0
   54.6421   99.7423   31.7012 C   0  0  0  0  0  0
   51.0173   99.7010   27.2564 C   0  0  0  0  0  0
   55.3249  100.1954   32.8267 C   0  0  0  0  0  0
   50.5386  100.4688   26.1834 C   0  0  0  0  0  0
   50.9607   98.3045   27.1659 C   0  0  0  0  0  0
   50.0429   99.8117   25.0600 C   0  0  0  0  0  0
   50.4444   97.7265   26.0104 C   0  0  0  0  0  0
   52.9921  103.8027   32.2416 H   0  0  0  0  0  0
   54.8127   98.7788   31.2414 H   0  0  0  0  0  0
   56.1011   99.6743   33.3695 H   0  0  0  0  0  0
   50.5664  101.5481   26.2104 H   0  0  0  0  0  0
   51.3155   97.6764   27.9704 H   0  0  0  0  0  0
   49.6766  100.3672   24.2072 H   0  0  0  0  0  0
   50.4074   96.6517   25.9098 H   0  0  0  0  0  0
  1 10  1  0  0  0
  1 15  1  0  0  0
  2 12  2  0  0  0
  3  5  1  0  0  0
  3  8  1  0  0  0
  3 12  1  0  0  0
  4  8  2  0  0  0
  4 11  1  0  0  0
  5 11  2  0  0  0
  6 10  1  0  0  0
  6 12  1  0  0  0
  6 20  1  0  0  0
  7 18  2  0  0  0
  7 19  1  0  0  0
  8  9  1  0  0  0
  9 10  2  0  0  0
  9 13  1  0  0  0
 11 14  1  0  0  0
 13 15  2  0  0  0
 13 21  1  0  0  0
 14 16  2  0  0  0
 14 17  1  0  0  0
 15 22  1  0  0  0
 16 18  1  0  0  0
 16 23  1  0  0  0
 17 19  2  0  0  0
 17 24  1  0  0  0
 18 25  1  0  0  0
 19 26  1  0  0  0
M  END
> <s_m_entry_id>
28157

> <s_m_entry_name>
dock_pv.318

> <s_m_Source_Path>
/home/csk/Desktop/cluster/DUD-E-result/rock1

> <s_m_Source_File>
dock_pv.maegz

> <i_m_Source_File_Index>
318

> <chembl_id>
CHEMBL1968151

> <chembl_pref_name>
None

> <i_lp_mmshare_version>
53161

> <r_lp_tautomer_probability>
1

> <s_lp_Force_Field>
OPLS_2005

> <r_lp_Energy>
21.580623

> <b_lp_Chiralities_Consistent>
1

> <s_lp_Variant>
CHEMBL3231_lig1943-1

> <s_i_glide_gridfile>
glide-grid_2etr

> <i_i_glide_lignum>
2824

> <i_i_glide_rotatable_bonds>
1

> <r_i_docking_score>
-7.7206630603798

> <r_i_glide_ligand_efficiency>
-0.406350687388411

> <r_i_glide_ligand_efficiency_sa>
-1.08430684312231

> <r_i_glide_ligand_efficiency_ln>
-1.95735391044416

> <r_i_glide_gscore>
-7.7206630603798

> <r_i_glide_lipo>
-1.59779628909541

> <r_i_glide_hbond>
-0.441571108432303

> <r_i_glide_metal>
0

> <r_i_glide_rewards>
-3.20925601542176

> <r_i_glide_evdw>
-32.386402130127

> <r_i_glide_ecoul>
-6.79355907440186

> <r_i_glide_erotb>
0.246375867650558

> <r_i_glide_esite>
-0.0800615474142617

> <r_i_glide_emodel>
-58.5250244153308

> <r_i_glide_energy>
-39.1799612045288

> <r_i_glide_einternal>
0.887597441673279

> <i_i_glide_confnum>
2

> <i_i_glide_posenum>
85

> <r_i_glide_eff_state_penalty>
0

> <s_user_duplicate_titles>
CHEMBL3231_lig1943

> <i_f3d_flags>
0

> <s_m_subgroup_title>
dock_pv

> <s_m_subgroupid>
dock_pv

> <b_m_subgroup_collapsed>
1

$$$$
CHEMBL3231_lig884
                    3D
 Schrodinger Suite 2021-1.
 43 46  0  0  1  0            999 V2000
   53.5685  100.3370   30.7272 N   0  0  0  0  0  0
   53.9640  101.1926   31.6104 C   0  0  0  0  0  0
   53.2970  102.3924   31.7837 N   0  0  0  0  0  0
   52.2124  102.8605   31.0881 C   0  0  0  0  0  0
   52.5478  100.7145   29.9032 C   0  0  0  0  0  0
   51.8857  101.9378   30.0127 C   0  0  0  0  0  0
   50.7029  102.1669   28.7691 S   0  0  0  0  0  0
   51.1113  100.6217   28.0644 C   0  0  0  0  0  0
   52.0629   99.9625   28.8387 C   0  0  0  0  0  0
   50.5286  100.1583   26.8146 C   0  0  0  0  0  0
   50.0434  100.9308   25.7760 C   0  0  0  0  0  0
   49.6434  100.0529   24.8109 N   0  0  0  0  0  0
   49.8542   98.7833   25.1529 N   0  0  0  0  0  0
   50.3745   98.8339   26.3585 C   0  0  0  0  0  0
   51.6430  103.9029   31.3956 O   0  0  0  0  0  0
   50.7410   97.5511   27.0529 C   0  0  0  0  0  0
   55.1490  100.8941   32.5176 C   0  0  0  0  0  0
   54.7699  100.1945   33.7525 N   0  0  2  0  0  0
   55.7718  100.2740   34.8147 C   0  0  2  0  0  0
   55.4349   99.1175   35.7771 C   0  0  0  0  0  0
   54.5624   98.1659   34.9554 C   0  0  0  0  0  0
   54.5900   98.7593   33.5519 C   0  0  0  0  0  0
   55.8642  101.6507   35.5150 C   0  0  0  0  0  0
   56.8430  101.6438   36.5331 O   0  0  0  0  0  0
   53.6128  103.0012   32.5221 H   0  0  0  0  0  0
   52.4429   98.9819   28.6210 H   0  0  0  0  0  0
   49.9554  101.9961   25.6456 H   0  0  0  0  0  0
   49.2443  100.3034   23.9103 H   0  0  0  0  0  0
   50.2959   97.5015   28.0467 H   0  0  0  0  0  0
   50.4381   96.6611   26.5006 H   0  0  0  0  0  0
   51.8193   97.5031   27.1788 H   0  0  0  0  0  0
   55.6307  101.8409   32.7586 H   0  0  0  0  0  0
   55.9080  100.3244   31.9758 H   0  0  0  0  0  0
   56.7654  100.0870   34.3986 H   0  0  0  0  0  0
   56.3487   98.5862   36.0473 H   0  0  0  0  0  0
   54.9346   99.4464   36.6890 H   0  0  0  0  0  0
   54.9419   97.1427   34.9611 H   0  0  0  0  0  0
   53.5396   98.1325   35.3334 H   0  0  0  0  0  0
   55.3727   98.3232   32.9260 H   0  0  0  0  0  0
   53.6587   98.5878   33.0102 H   0  0  0  0  0  0
   54.9065  101.9173   35.9623 H   0  0  0  0  0  0
   56.1347  102.4363   34.8110 H   0  0  0  0  0  0
   57.7144  101.5035   36.1176 H   0  0  0  0  0  0
  1  5  1  0  0  0
  1  2  2  0  0  0
  2  3  1  0  0  0
  2 17  1  0  0  0
  3  4  1  0  0  0
  3 25  1  0  0  0
  4  6  1  0  0  0
  4 15  2  0  0  0
  5  6  2  0  0  0
  5  9  1  0  0  0
  6  7  1  0  0  0
  7  8  1  0  0  0
  8  9  2  0  0  0
  8 10  1  0  0  0
  9 26  1  0  0  0
 10 11  2  0  0  0
 10 14  1  0  0  0
 11 12  1  0  0  0
 11 27  1  0  0  0
 12 13  1  0  0  0
 12 28  1  0  0  0
 13 14  2  0  0  0
 14 16  1  0  0  0
 16 29  1  0  0  0
 16 30  1  0  0  0
 16 31  1  0  0  0
 17 18  1  0  0  0
 17 32  1  0  0  0
 17 33  1  0  0  0
 18 19  1  0  0  0
 18 22  1  0  0  0
 19 20  1  0  0  0
 19 23  1  0  0  0
 19 34  1  0  0  0
 20 21  1  0  0  0
 20 35  1  0  0  0
 20 36  1  0  0  0
 21 22  1  0  0  0
 21 37  1  0  0  0
 21 38  1  0  0  0
 22 39  1  0  0  0
 22 40  1  0  0  0
 23 24  1  0  0  0
 23 41  1  0  0  0
 23 42  1  0  0  0
 24 43  1  0  0  0
M  END
> <s_m_entry_id>
28158

> <s_m_entry_name>
dock_pv.319

> <s_m_Source_Path>
/home/csk/Desktop/cluster/DUD-E-result/rock1

> <s_m_Source_File>
dock_pv.maegz

> <i_m_Source_File_Index>
319

> <chembl_id>
CHEMBL4103214

> <chembl_pref_name>
None

> <i_lp_mmshare_version>
53161

> <r_lp_tautomer_probability>
0.5

> <s_lp_Force_Field>
OPLS_2005

> <r_lp_Energy>
57.590547

> <b_lp_Chiralities_Consistent>
1

> <s_lp_Variant>
CHEMBL3231_lig884-1

> <s_i_glide_gridfile>
glide-grid_2etr

> <i_i_glide_lignum>
1260

> <i_i_glide_rotatable_bonds>
5

> <r_i_docking_score>
-7.71981266746408

> <r_i_glide_ligand_efficiency>
-0.321658861144337

> <r_i_glide_ligand_efficiency_sa>
-0.927824707559087

> <r_i_glide_ligand_efficiency_ln>
-1.84770541044493

> <r_i_glide_gscore>
-7.71981266746408

> <r_i_glide_lipo>
-1.93236929099669

> <r_i_glide_hbond>
-0.611413343635592

> <r_i_glide_metal>
0

> <r_i_glide_rewards>
-2.29895209090909

> <r_i_glide_evdw>
-34.6106224060059

> <r_i_glide_ecoul>
-11.4598608016968

> <r_i_glide_erotb>
0.636954013725054

> <r_i_glide_esite>
-0.0645217150929476

> <r_i_glide_emodel>
-66.7121778938158

> <r_i_glide_energy>
-46.0704832077026

> <r_i_glide_einternal>
4.83716344833374

> <i_i_glide_confnum>
13

> <i_i_glide_posenum>
180

> <r_i_glide_eff_state_penalty>
0

> <s_user_duplicate_titles>
CHEMBL3231_lig884

> <i_f3d_flags>
0

> <s_m_subgroup_title>
dock_pv

> <s_m_subgroupid>
dock_pv

> <b_m_subgroup_collapsed>
1

$$$$
CHEMBL3231_lig1054 
                    3D
 Schrodinger Suite 2021-1.
 58 61  0  0  1  0            999 V2000
   49.7864  105.3681   35.7634 C   0  0  0  0  0  0
   48.7251  104.6395   36.2943 C   0  0  0  0  0  0
   48.8647  103.2694   36.5005 C   0  0  0  0  0  0
   50.0605  102.6256   36.1863 C   0  0  0  0  0  0
   50.9831  104.7247   35.4462 C   0  0  0  0  0  0
   51.1419  103.3396   35.6647 C   0  0  0  0  0  0
   52.4794  102.6727   35.3431 C   0  0  0  0  0  0
   53.2394  103.4615   34.2481 C   0  0  2  0  0  0
   53.2369  104.9579   34.6638 C   0  0  0  0  0  0
   51.9227  105.5130   34.8111 O   0  0  0  0  0  0
   52.5980  103.2244   32.8574 C   0  0  0  0  0  0
   51.6428  103.9033   32.4859 O   0  0  0  0  0  0
   53.1020  102.1956   32.1453 N   0  0  0  0  0  0
   52.6457  101.6612   30.9225 C   0  0  0  0  0  0
   53.0225  100.3432   30.6288 C   0  0  0  0  0  0
   52.5305   99.7426   29.4606 C   0  0  0  0  0  0
   51.6756  100.4216   28.5837 C   0  0  0  0  0  0
   51.3505  101.7509   28.8734 C   0  0  0  0  0  0
   51.8410  102.3716   30.0179 C   0  0  0  0  0  0
   53.8377   99.6889   31.5371 O   0  0  0  0  0  0
   54.3599   98.3974   31.2279 C   0  0  0  0  0  0
   55.2492   97.9102   32.3870 C   0  0  0  0  0  0
   54.5308   97.6834   33.6472 N   0  0  0  0  0  0
   53.6441   96.5239   33.5626 C   0  0  0  0  0  0
   55.5026   97.4675   34.7178 C   0  0  0  0  0  0
   51.1172   99.7381   27.3830 C   0  0  0  0  0  0
   50.8442  100.4407   26.1963 C   0  0  0  0  0  0
   50.3051   99.7540   25.1075 C   0  0  0  0  0  0
   50.0429   98.4252   25.1383 N   0  0  0  0  0  0
   50.3128   97.7486   26.2780 C   0  0  0  0  0  0
   50.8362   98.3620   27.4120 C   0  0  0  0  0  0
   49.6793  106.4270   35.5779 H   0  0  0  0  0  0
   47.7925  105.1272   36.5339 H   0  0  0  0  0  0
   48.0430  102.7032   36.9034 H   0  0  0  0  0  0
   50.1491  101.5630   36.3599 H   0  0  0  0  0  0
   53.0719  102.6590   36.2589 H   0  0  0  0  0  0
   52.3169  101.6313   35.0507 H   0  0  0  0  0  0
   54.2714  103.1163   34.1680 H   0  0  0  0  0  0
   53.8246  105.5556   33.9652 H   0  0  0  0  0  0
   53.7363  105.0473   35.6307 H   0  0  0  0  0  0
   53.8332  101.6485   32.5777 H   0  0  0  0  0  0
   52.8064   98.7282   29.2229 H   0  0  0  0  0  0
   50.7023  102.3148   28.2193 H   0  0  0  0  0  0
   51.5771  103.4028   30.1833 H   0  0  0  0  0  0
   53.5638   97.6802   31.0290 H   0  0  0  0  0  0
   54.9685   98.4609   30.3243 H   0  0  0  0  0  0
   55.7815   97.0055   32.0844 H   0  0  0  0  0  0
   56.0195   98.6666   32.5459 H   0  0  0  0  0  0
   53.1790   96.3212   34.5283 H   0  0  0  0  0  0
   52.8426   96.7027   32.8487 H   0  0  0  0  0  0
   54.1791   95.6233   33.2528 H   0  0  0  0  0  0
   55.0024   97.3203   35.6762 H   0  0  0  0  0  0
   56.1324   96.5949   34.5262 H   0  0  0  0  0  0
   56.1560   98.3356   34.8271 H   0  0  0  0  0  0
   51.0482  101.4966   26.1119 H   0  0  0  0  0  0
   50.0793  100.2692   24.1828 H   0  0  0  0  0  0
   50.0909   96.6930   26.2787 H   0  0  0  0  0  0
   51.0106   97.7711   28.2988 H   0  0  0  0  0  0
  1  5  1  0  0  0
  1  2  2  0  0  0
  1 32  1  0  0  0
  2  3  1  0  0  0
  2 33  1  0  0  0
  3  4  2  0  0  0
  3 34  1  0  0  0
  4  6  1  0  0  0
  4 35  1  0  0  0
  5  6  2  0  0  0
  5 10  1  0  0  0
  6  7  1  0  0  0
  7  8  1  0  0  0
  7 36  1  0  0  0
  7 37  1  0  0  0
  8  9  1  0  0  0
  8 11  1  0  0  0
  8 38  1  0  0  0
  9 10  1  0  0  0
  9 39  1  0  0  0
  9 40  1  0  0  0
 11 12  2  0  0  0
 11 13  1  0  0  0
 13 14  1  0  0  0
 13 41  1  0  0  0
 14 15  2  0  0  0
 14 19  1  0  0  0
 15 16  1  0  0  0
 15 20  1  0  0  0
 16 17  2  0  0  0
 16 42  1  0  0  0
 17 18  1  0  0  0
 17 26  1  0  0  0
 18 19  2  0  0  0
 18 43  1  0  0  0
 19 44  1  0  0  0
 20 21  1  0  0  0
 21 22  1  0  0  0
 21 45  1  0  0  0
 21 46  1  0  0  0
 22 23  1  0  0  0
 22 47  1  0  0  0
 22 48  1  0  0  0
 23 24  1  0  0  0
 23 25  1  0  0  0
 24 49  1  0  0  0
 24 50  1  0  0  0
 24 51  1  0  0  0
 25 52  1  0  0  0
 25 53  1  0  0  0
 25 54  1  0  0  0
 26 27  2  0  0  0
 26 31  1  0  0  0
 27 28  1  0  0  0
 27 55  1  0  0  0
 28 29  2  0  0  0
 28 56  1  0  0  0
 29 30  1  0  0  0
 30 31  2  0  0  0
 30 57  1  0  0  0
 31 58  1  0  0  0
M  END
> <s_m_entry_id>
28159

> <s_m_entry_name>
dock_pv.320

> <s_m_Source_Path>
/home/csk/Desktop/cluster/DUD-E-result/rock1

> <s_m_Source_File>
dock_pv.maegz

> <i_m_Source_File_Index>
320

> <chembl_id>
CHEMBL4521642

> <chembl_pref_name>
None

> <i_lp_mmshare_version>
53161

> <r_lp_tautomer_probability>
1

> <s_lp_Force_Field>
OPLS_2005

> <r_lp_Energy>
35.663967

> <b_lp_Chiralities_Consistent>
1

> <s_lp_Variant>
CHEMBL3231_lig1054 -1

> <s_i_glide_gridfile>
glide-grid_2etr

> <i_i_glide_lignum>
1471

> <i_i_glide_rotatable_bonds>
8

> <r_i_docking_score>
-7.71879494174059

> <r_i_glide_ligand_efficiency>
-0.248993385217438

> <r_i_glide_ligand_efficiency_sa>
-0.782183002000163

> <r_i_glide_ligand_efficiency_ln>
-1.74082481201857

> <r_i_glide_gscore>
-7.71879494174059

> <r_i_glide_lipo>
-3.08756088825487

> <r_i_glide_hbond>
-0.286638984133082

> <r_i_glide_metal>
0

> <r_i_glide_rewards>
-1.92913600136058

> <r_i_glide_evdw>
-45.9951515197754

> <r_i_glide_ecoul>
-5.74665021896362

> <r_i_glide_erotb>
0.793774150980518

> <r_i_glide_esite>
-0.0474781101392673

> <r_i_glide_emodel>
-75.6190904188018

> <r_i_glide_energy>
-51.741801738739

> <r_i_glide_einternal>
3.19417357444763

> <i_i_glide_confnum>
76

> <i_i_glide_posenum>
338

> <r_i_glide_eff_state_penalty>
0

> <s_user_duplicate_titles>
CHEMBL3231_lig1054 

> <i_f3d_flags>
0

> <s_m_subgroup_title>
dock_pv

> <s_m_subgroupid>
dock_pv

> <b_m_subgroup_collapsed>
1

$$$$
CHEMBL3231_lig1301
                    3D
 Schrodinger Suite 2021-1.
 45 47  0  0  1  0            999 V2000
   52.0432  104.3028   32.0275 O   0  0  0  0  0  0
   49.3522  106.7159   35.4999 O   0  0  0  0  0  0
   52.4412  102.3985   33.1910 N   0  0  0  0  0  0
   50.0434   98.3007   25.2089 N   0  0  0  0  0  0
   51.9087  102.2590   30.8217 C   0  0  0  0  0  0
   51.2883  100.7225   28.5448 C   0  0  0  0  0  0
   52.1656  103.0793   32.0618 C   0  0  0  0  0  0
   51.2508  103.5232   35.0902 C   0  0  0  0  0  0
   52.5762  102.9621   34.5418 C   0  0  2  0  0  0
   50.8958   99.8847   27.3750 C   0  0  0  0  0  0
   52.4975  101.0015   30.6340 C   0  0  0  0  0  0
   51.0523  102.7596   29.8349 C   0  0  0  0  0  0
   52.1908  100.2469   29.5047 C   0  0  0  0  0  0
   50.7363  101.9958   28.7193 C   0  0  0  0  0  0
   50.9436  104.8910   35.0267 C   0  0  0  0  0  0
   49.7346  105.3887   35.5431 C   0  0  0  0  0  0
   50.3396  102.6565   35.7074 C   0  0  0  0  0  0
   50.5400  100.4663   26.1463 C   0  0  0  0  0  0
   50.8352   98.4855   27.4781 C   0  0  0  0  0  0
   48.8393  104.4976   36.1367 C   0  0  0  0  0  0
   49.1405  103.1400   36.2286 C   0  0  0  0  0  0
   53.7836  103.9226   34.6644 C   0  0  0  0  0  0
   50.1119   99.6492   25.1010 C   0  0  0  0  0  0
   50.4183   97.7365   26.3799 C   0  0  0  0  0  0
   50.2887  107.6930   35.0517 C   0  0  0  0  0  0
   52.4446  101.3920   33.1317 H   0  0  0  0  0  0
   52.8306  102.1130   35.1803 H   0  0  0  0  0  0
   53.1950  100.5952   31.3531 H   0  0  0  0  0  0
   50.6036  103.7360   29.9311 H   0  0  0  0  0  0
   52.6605   99.2813   29.3871 H   0  0  0  0  0  0
   50.0428  102.4010   27.9976 H   0  0  0  0  0  0
   51.6429  105.5618   34.5516 H   0  0  0  0  0  0
   50.5581  101.6010   35.7839 H   0  0  0  0  0  0
   50.5804  101.5352   25.9981 H   0  0  0  0  0  0
   51.0902   97.9776   28.3965 H   0  0  0  0  0  0
   47.9045  104.8645   36.5346 H   0  0  0  0  0  0
   48.4452  102.4637   36.7065 H   0  0  0  0  0  0
   53.9193  104.2580   35.6929 H   0  0  0  0  0  0
   54.7055  103.4250   34.3610 H   0  0  0  0  0  0
   53.6817  104.8082   34.0360 H   0  0  0  0  0  0
   49.8186  100.0730   24.1504 H   0  0  0  0  0  0
   50.3687   96.6589   26.4290 H   0  0  0  0  0  0
   49.8385  108.6833   35.1272 H   0  0  0  0  0  0
   51.1902  107.6941   35.6667 H   0  0  0  0  0  0
   50.5728  107.5387   34.0105 H   0  0  0  0  0  0
  1  7  2  0  0  0
  2 16  1  0  0  0
  2 25  1  0  0  0
  3  7  1  0  0  0
  3  9  1  0  0  0
  3 26  1  0  0  0
  4 23  2  0  0  0
  4 24  1  0  0  0
  5  7  1  0  0  0
  5 11  2  0  0  0
  5 12  1  0  0  0
  6 10  1  0  0  0
  6 13  2  0  0  0
  6 14  1  0  0  0
  8  9  1  0  0  0
  8 15  2  0  0  0
  8 17  1  0  0  0
  9 22  1  0  0  0
  9 27  1  0  0  0
 10 18  2  0  0  0
 10 19  1  0  0  0
 11 13  1  0  0  0
 11 28  1  0  0  0
 12 14  2  0  0  0
 12 29  1  0  0  0
 13 30  1  0  0  0
 14 31  1  0  0  0
 15 16  1  0  0  0
 15 32  1  0  0  0
 16 20  2  0  0  0
 17 21  2  0  0  0
 17 33  1  0  0  0
 18 23  1  0  0  0
 18 34  1  0  0  0
 19 24  2  0  0  0
 19 35  1  0  0  0
 20 21  1  0  0  0
 20 36  1  0  0  0
 21 37  1  0  0  0
 22 38  1  0  0  0
 22 39  1  0  0  0
 22 40  1  0  0  0
 23 41  1  0  0  0
 24 42  1  0  0  0
 25 43  1  0  0  0
 25 44  1  0  0  0
 25 45  1  0  0  0
M  END
> <s_m_entry_id>
28160

> <s_m_entry_name>
dock_pv.321

> <s_m_Source_Path>
/home/csk/Desktop/cluster/DUD-E-result/rock1

> <s_m_Source_File>
dock_pv.maegz

> <i_m_Source_File_Index>
321

> <chembl_id>
CHEMBL1975121

> <chembl_pref_name>
None

> <i_lp_mmshare_version>
53161

> <r_lp_tautomer_probability>
1

> <s_lp_Force_Field>
OPLS_2005

> <r_lp_Energy>
16.289927

> <b_lp_Chiralities_Consistent>
1

> <s_lp_Variant>
CHEMBL3231_lig1301-1

> <s_i_glide_gridfile>
glide-grid_2etr

> <i_i_glide_lignum>
1810

> <i_i_glide_rotatable_bonds>
6

> <r_i_docking_score>
-7.71753734053874

> <r_i_glide_ligand_efficiency>
-0.308701493621549

> <r_i_glide_ligand_efficiency_sa>
-0.902648642193712

> <r_i_glide_ligand_efficiency_ln>
-1.82928762563895

> <r_i_glide_gscore>
-7.71753734053874

> <r_i_glide_lipo>
-2.91101528176356

> <r_i_glide_hbond>
-0.300970509861801

> <r_i_glide_metal>
0

> <r_i_glide_rewards>
-2.55040020022254

> <r_i_glide_evdw>
-42.477897644043

> <r_i_glide_ecoul>
-4.16412115097046

> <r_i_glide_erotb>
0.852313417459528

> <r_i_glide_esite>
-0.0589517113026416

> <r_i_glide_emodel>
-66.3370777042037

> <r_i_glide_energy>
-46.6420187950134

> <r_i_glide_einternal>
6.59794616699219

> <i_i_glide_confnum>
53

> <i_i_glide_posenum>
251

> <r_i_glide_eff_state_penalty>
0

> <s_user_duplicate_titles>
CHEMBL3231_lig1301,CHEMBL3231_lig950 

> <i_f3d_flags>
0

> <s_m_subgroup_title>
dock_pv

> <s_m_subgroupid>
dock_pv

> <b_m_subgroup_collapsed>
1

$$$$
CHEMBL3231_lig579
                    3D
 Schrodinger Suite 2021-1.
 43 45  0  0  1  0            999 V2000
   50.3133  104.2388   27.6786 C   0  0  0  0  0  0
   50.4430  102.8290   27.4856 O   0  0  0  0  0  0
   50.9482  102.0336   28.4966 C   0  0  0  0  0  0
   51.2825  102.5579   29.7550 C   0  0  0  0  0  0
   51.7741  101.7573   30.7919 C   0  0  0  0  0  0
   51.9882  100.3975   30.5231 C   0  0  0  0  0  0
   51.6611   99.8584   29.2780 C   0  0  0  0  0  0
   51.1165  100.6542   28.2603 C   0  0  0  0  0  0
   50.7002   99.9878   26.9728 C   0  0  0  0  0  0
   50.4397   98.6216   26.7328 C   0  0  0  0  0  0
   50.0438   98.3558   25.5070 N   0  0  0  0  0  0
   50.0441   99.5448   24.9027 N   0  0  0  0  0  0
   50.4501  100.5560   25.7291 C   0  0  0  0  0  0
   51.9876  102.3712   32.1629 C   0  0  0  0  0  0
   51.6430  103.5356   32.3772 O   0  0  0  0  0  0
   52.5092  101.5844   33.1244 N   0  0  0  0  0  0
   52.7367  101.9789   34.5224 C   0  0  2  0  0  0
   53.4031  100.8424   35.3159 C   0  0  0  0  0  0
   51.5075  102.5484   35.2610 C   0  0  0  0  0  0
   51.6180  103.8030   35.8801 C   0  0  0  0  0  0
   50.5367  104.3663   36.5581 C   0  0  0  0  0  0
   49.3239  103.6843   36.6232 C   0  0  0  0  0  0
   49.1977  102.4371   36.0150 C   0  0  0  0  0  0
   50.2785  101.8635   35.3425 C   0  0  0  0  0  0
   50.0431  100.3020   34.6428 Cl  0  0  0  0  0  0
   50.0441  104.7090   26.7348 H   0  0  0  0  0  0
   49.5258  104.4651   28.4000 H   0  0  0  0  0  0
   51.2433  104.7025   28.0110 H   0  0  0  0  0  0
   51.1387  103.6088   29.9486 H   0  0  0  0  0  0
   52.3743   99.7270   31.2780 H   0  0  0  0  0  0
   51.8207   98.8017   29.1218 H   0  0  0  0  0  0
   50.5189   97.8297   27.4630 H   0  0  0  0  0  0
   49.7567   99.6624   23.9382 H   0  0  0  0  0  0
   50.5017  101.5718   25.3728 H   0  0  0  0  0  0
   52.9545  100.7296   32.8317 H   0  0  0  0  0  0
   53.4794  102.7804   34.4601 H   0  0  0  0  0  0
   53.6797  101.1717   36.3178 H   0  0  0  0  0  0
   52.7475   99.9785   35.4213 H   0  0  0  0  0  0
   54.3161  100.4990   34.8271 H   0  0  0  0  0  0
   52.5472  104.3531   35.8343 H   0  0  0  0  0  0
   50.6410  105.3331   37.0285 H   0  0  0  0  0  0
   48.4833  104.1162   37.1458 H   0  0  0  0  0  0
   48.2552  101.9098   36.0731 H   0  0  0  0  0  0
  1  2  1  0  0  0
  1 26  1  0  0  0
  1 27  1  0  0  0
  1 28  1  0  0  0
  2  3  1  0  0  0
  3  4  2  0  0  0
  3  8  1  0  0  0
  4  5  1  0  0  0
  4 29  1  0  0  0
  5  6  2  0  0  0
  5 14  1  0  0  0
  6  7  1  0  0  0
  6 30  1  0  0  0
  7  8  2  0  0  0
  7 31  1  0  0  0
  8  9  1  0  0  0
  9 10  1  0  0  0
  9 13  2  0  0  0
 10 11  2  0  0  0
 10 32  1  0  0  0
 11 12  1  0  0  0
 12 13  1  0  0  0
 12 33  1  0  0  0
 13 34  1  0  0  0
 14 15  2  0  0  0
 14 16  1  0  0  0
 16 17  1  0  0  0
 16 35  1  0  0  0
 17 18  1  0  0  0
 17 19  1  0  0  0
 17 36  1  0  0  0
 18 37  1  0  0  0
 18 38  1  0  0  0
 18 39  1  0  0  0
 19 20  2  0  0  0
 19 24  1  0  0  0
 20 21  1  0  0  0
 20 40  1  0  0  0
 21 22  2  0  0  0
 21 41  1  0  0  0
 22 23  1  0  0  0
 22 42  1  0  0  0
 23 24  2  0  0  0
 23 43  1  0  0  0
 24 25  1  0  0  0
M  END
> <s_m_entry_id>
28161

> <s_m_entry_name>
dock_pv.322

> <s_m_Source_Path>
/home/csk/Desktop/cluster/DUD-E-result/rock1

> <s_m_Source_File>
dock_pv.maegz

> <i_m_Source_File_Index>
322

> <chembl_id>
CHEMBL3984075

> <chembl_pref_name>
None

> <i_lp_mmshare_version>
53161

> <r_lp_tautomer_probability>
0.5

> <s_lp_Force_Field>
OPLS_2005

> <r_lp_Energy>
22.088871

> <b_lp_Chiralities_Consistent>
1

> <s_lp_Variant>
CHEMBL3231_lig579-1

> <s_i_glide_gridfile>
glide-grid_2etr

> <i_i_glide_lignum>
858

> <i_i_glide_rotatable_bonds>
6

> <r_i_docking_score>
-7.71661281843429

> <r_i_glide_ligand_efficiency>
-0.308664512737371

> <r_i_glide_ligand_efficiency_sa>
-0.902540509432517

> <r_i_glide_ligand_efficiency_ln>
-1.82906848619451

> <r_i_glide_gscore>
-7.71661281843429

> <r_i_glide_lipo>
-3.04090499642172

> <r_i_glide_hbond>
-0.255978483929827

> <r_i_glide_metal>
0

> <r_i_glide_rewards>
-2.09472698483865

> <r_i_glide_evdw>
-42.2921104431152

> <r_i_glide_ecoul>
-3.98453068733215

> <r_i_glide_erotb>
0.422965672072139

> <r_i_glide_esite>
-0.0356829000606437

> <r_i_glide_emodel>
-67.081630149006

> <r_i_glide_energy>
-46.2766411304474

> <r_i_glide_einternal>
1.45142376422882

> <i_i_glide_confnum>
12

> <i_i_glide_posenum>
179

> <r_i_glide_eff_state_penalty>
0

> <s_user_duplicate_titles>
CHEMBL3231_lig579,CHEMBL3231_lig618

> <i_f3d_flags>
0

> <s_m_subgroup_title>
dock_pv

> <s_m_subgroupid>
dock_pv

> <b_m_subgroup_collapsed>
1

$$$$
CHEMBL3231_lig786
                    3D
 Schrodinger Suite 2021-1.
 45 47  0  0  1  0            999 V2000
   51.2892   97.4576   30.4208 C   0  0  0  0  0  0
   51.2397   98.2027   29.2077 O   0  0  0  0  0  0
   51.5081   99.5598   29.2170 C   0  0  0  0  0  0
   52.0956  100.2089   30.3177 C   0  0  0  0  0  0
   52.3184  101.5941   30.3135 C   0  0  0  0  0  0
   51.9042  102.3398   29.2101 C   0  0  0  0  0  0
   51.3406  101.7056   28.1093 C   0  0  0  0  0  0
   51.1638  100.3194   28.0805 C   0  0  0  0  0  0
   50.6121   99.7332   26.8128 C   0  0  0  0  0  0
   50.0306  100.4009   25.7373 C   0  0  0  0  0  0
   49.7143   99.4487   24.8113 N   0  0  0  0  0  0
   50.0429   98.2202   25.2111 N   0  0  0  0  0  0
   50.5807   98.3907   26.3933 C   0  0  0  0  0  0
   53.0115  102.2868   31.4563 C   0  0  0  0  0  0
   52.6652  103.4155   31.8105 O   0  0  0  0  0  0
   54.0385  101.6023   31.9915 N   0  0  0  0  0  0
   54.9891  102.0903   32.9868 C   0  0  0  0  0  0
   54.3866  102.6226   34.2811 C   0  0  0  0  0  0
   53.8940  101.7411   35.2505 C   0  0  0  0  0  0
   53.4040  102.2323   36.4620 C   0  0  0  0  0  0
   53.4191  103.6039   36.7171 C   0  0  0  0  0  0
   53.9229  104.4870   35.7570 C   0  0  0  0  0  0
   54.4003  103.9956   34.5393 C   0  0  0  0  0  0
   54.0080  106.2406   36.0794 S   0  0  0  0  0  0
   53.7480  106.4423   37.5082 O   0  0  0  0  0  0
   55.2427  106.7344   35.4610 O   0  0  0  0  0  0
   52.6584  106.9216   35.2126 N   0  0  0  0  0  0
   50.9049   96.4540   30.2350 H   0  0  0  0  0  0
   52.3090   97.3592   30.7970 H   0  0  0  0  0  0
   50.6641   97.9047   31.1951 H   0  0  0  0  0  0
   52.3891   99.6363   31.1844 H   0  0  0  0  0  0
   52.0576  103.4101   29.1788 H   0  0  0  0  0  0
   51.0662  102.3031   27.2558 H   0  0  0  0  0  0
   49.8177  101.4434   25.5489 H   0  0  0  0  0  0
   49.2786   99.6302   23.9110 H   0  0  0  0  0  0
   50.9595   97.5415   26.9416 H   0  0  0  0  0  0
   54.3198  100.7643   31.5046 H   0  0  0  0  0  0
   55.6409  102.8344   32.5249 H   0  0  0  0  0  0
   55.6425  101.2547   33.2402 H   0  0  0  0  0  0
   53.8990  100.6759   35.0676 H   0  0  0  0  0  0
   53.0279  101.5496   37.2111 H   0  0  0  0  0  0
   53.0516  103.9740   37.6631 H   0  0  0  0  0  0
   54.7904  104.6791   33.7966 H   0  0  0  0  0  0
   52.3002  107.7658   35.6620 H   0  0  0  0  0  0
   52.8433  107.1015   34.2107 H   0  0  0  0  0  0
  1  2  1  0  0  0
  1 28  1  0  0  0
  1 29  1  0  0  0
  1 30  1  0  0  0
  2  3  1  0  0  0
  3  4  2  0  0  0
  3  8  1  0  0  0
  4  5  1  0  0  0
  4 31  1  0  0  0
  5  6  2  0  0  0
  5 14  1  0  0  0
  6  7  1  0  0  0
  6 32  1  0  0  0
  7  8  2  0  0  0
  7 33  1  0  0  0
  8  9  1  0  0  0
  9 10  2  0  0  0
  9 13  1  0  0  0
 10 11  1  0  0  0
 10 34  1  0  0  0
 11 12  1  0  0  0
 11 35  1  0  0  0
 12 13  2  0  0  0
 13 36  1  0  0  0
 14 15  2  0  0  0
 14 16  1  0  0  0
 16 17  1  0  0  0
 16 37  1  0  0  0
 17 18  1  0  0  0
 17 38  1  0  0  0
 17 39  1  0  0  0
 18 19  2  0  0  0
 18 23  1  0  0  0
 19 20  1  0  0  0
 19 40  1  0  0  0
 20 21  2  0  0  0
 20 41  1  0  0  0
 21 22  1  0  0  0
 21 42  1  0  0  0
 22 23  2  0  0  0
 22 24  1  0  0  0
 23 43  1  0  0  0
 24 25  2  0  0  0
 24 26  2  0  0  0
 24 27  1  0  0  0
 27 44  1  0  0  0
 27 45  1  0  0  0
M  END
> <s_m_entry_id>
28163

> <s_m_entry_name>
dock_pv.324

> <s_m_Source_Path>
/home/csk/Desktop/cluster/DUD-E-result/rock1

> <s_m_Source_File>
dock_pv.maegz

> <i_m_Source_File_Index>
324

> <chembl_id>
CHEMBL3915928

> <chembl_pref_name>
None

> <i_lp_mmshare_version>
53161

> <r_lp_tautomer_probability>
0.5

> <s_lp_Force_Field>
OPLS_2005

> <r_lp_Energy>
25.756852

> <b_lp_Chiralities_Consistent>
1

> <s_lp_Variant>
CHEMBL3231_lig786-1

> <s_i_glide_gridfile>
glide-grid_2etr

> <i_i_glide_lignum>
1111

> <i_i_glide_rotatable_bonds>
7

> <r_i_docking_score>
-7.71081716245575

> <r_i_glide_ligand_efficiency>
-0.285585820831694

> <r_i_glide_ligand_efficiency_sa>
-0.856757461553839

> <r_i_glide_ligand_efficiency_ln>
-1.79495111266359

> <r_i_glide_gscore>
-7.71081716245575

> <r_i_glide_lipo>
-1.92088855887942

> <r_i_glide_hbond>
-0.682405089002395

> <r_i_glide_metal>
0

> <r_i_glide_rewards>
-1.66297476570174

> <r_i_glide_evdw>
-39.768424987793

> <r_i_glide_ecoul>
-10.9921827316284

> <r_i_glide_erotb>
0.456195681914233

> <r_i_glide_esite>
-0.263495771652518

> <r_i_glide_emodel>
-77.9929467338086

> <r_i_glide_energy>
-50.7606077194214

> <r_i_glide_einternal>
1.18351805210114

> <i_i_glide_confnum>
7

> <i_i_glide_posenum>
197

> <r_i_glide_eff_state_penalty>
0

> <s_user_duplicate_titles>
CHEMBL3231_lig786

> <i_f3d_flags>
0

> <s_m_subgroup_title>
dock_pv

> <s_m_subgroupid>
dock_pv

> <b_m_subgroup_collapsed>
1

$$$$
CHEMBL3231_lig224
                    3D
 Schrodinger Suite 2021-1.
 42 44  0  0  1  0            999 V2000
   52.8109   99.7169   32.7972 C   0  0  0  0  0  0
   53.4262  100.7920   33.4300 C   0  0  0  0  0  0
   53.6521  101.9972   32.7659 C   0  0  0  0  0  0
   53.2387  102.1513   31.4388 C   0  0  0  0  0  0
   52.4084   99.8748   31.4654 C   0  0  0  0  0  0
   52.6085  101.0905   30.7562 C   0  0  0  0  0  0
   52.1140  101.0251   29.4094 C   0  0  0  0  0  0
   51.5755   99.7739   29.0978 C   0  0  0  0  0  0
   51.6415   98.6680   30.4652 S   0  0  0  0  0  0
   52.2324  102.1942   28.4569 C   0  0  0  0  0  0
   50.9850   99.2688   27.7997 C   0  0  0  0  0  0
   50.5490  100.1991   26.9011 N   0  0  0  0  0  0
   50.0857   99.7398   25.7102 C   0  0  0  0  0  0
   50.0406   98.4450   25.3194 N   0  0  0  0  0  0
   50.4520   97.5343   26.2347 C   0  0  0  0  0  0
   50.9172   97.9031   27.4962 C   0  0  0  0  0  0
   49.5948  100.6710   24.8109 N   0  0  0  0  0  0
   54.3565  103.1407   33.5050 C   0  0  1  0  0  0
   55.5814  103.5031   32.8109 N   0  0  0  0  0  0
   53.4671  104.3969   33.7510 C   0  0  0  0  0  0
   54.2040  105.5119   34.5251 C   0  0  0  0  0  0
   52.1448  104.0512   34.4676 C   0  0  0  0  0  0
   52.6660   98.7824   33.3211 H   0  0  0  0  0  0
   53.7515  100.6783   34.4534 H   0  0  0  0  0  0
   53.4338  103.0878   30.9395 H   0  0  0  0  0  0
   51.2574  102.5293   28.0983 H   0  0  0  0  0  0
   52.7288  103.0686   28.8742 H   0  0  0  0  0  0
   52.8181  101.8933   27.5909 H   0  0  0  0  0  0
   50.4427   96.4974   25.9402 H   0  0  0  0  0  0
   51.2427   97.1478   28.1902 H   0  0  0  0  0  0
   49.5700  101.6410   25.0795 H   0  0  0  0  0  0
   49.2429  100.3590   23.9085 H   0  0  0  0  0  0
   54.6758  102.7706   34.4805 H   0  0  0  0  0  0
   55.9336  102.7131   32.2831 H   0  0  0  0  0  0
   55.4487  104.2783   32.1626 H   0  0  0  0  0  0
   53.2024  104.8131   32.7766 H   0  0  0  0  0  0
   54.5488  105.1635   35.4993 H   0  0  0  0  0  0
   53.5546  106.3732   34.6905 H   0  0  0  0  0  0
   55.0710  105.8780   33.9733 H   0  0  0  0  0  0
   52.3275  103.6019   35.4439 H   0  0  0  0  0  0
   51.5378  104.9444   34.6243 H   0  0  0  0  0  0
   51.5412  103.3536   33.8878 H   0  0  0  0  0  0
  1  5  2  0  0  0
  1  2  1  0  0  0
  1 23  1  0  0  0
  2  3  2  0  0  0
  2 24  1  0  0  0
  3 18  1  0  0  0
  3  4  1  0  0  0
  4  6  2  0  0  0
  4 25  1  0  0  0
  5  6  1  0  0  0
  5  9  1  0  0  0
  6  7  1  0  0  0
  7  8  2  0  0  0
  7 10  1  0  0  0
  8 11  1  0  0  0
  8  9  1  0  0  0
 10 26  1  0  0  0
 10 27  1  0  0  0
 10 28  1  0  0  0
 11 12  2  0  0  0
 11 16  1  0  0  0
 12 13  1  0  0  0
 13 14  2  0  0  0
 13 17  1  0  0  0
 14 15  1  0  0  0
 15 16  2  0  0  0
 15 29  1  0  0  0
 16 30  1  0  0  0
 17 31  1  0  0  0
 17 32  1  0  0  0
 18 19  1  0  0  0
 18 20  1  0  0  0
 18 33  1  0  0  0
 19 34  1  0  0  0
 19 35  1  0  0  0
 20 21  1  0  0  0
 20 22  1  0  0  0
 20 36  1  0  0  0
 21 37  1  0  0  0
 21 38  1  0  0  0
 21 39  1  0  0  0
 22 40  1  0  0  0
 22 41  1  0  0  0
 22 42  1  0  0  0
M  END
> <s_m_entry_id>
28164

> <s_m_entry_name>
dock_pv.325

> <s_m_Source_Path>
/home/csk/Desktop/cluster/DUD-E-result/rock1

> <s_m_Source_File>
dock_pv.maegz

> <i_m_Source_File_Index>
325

> <chembl_id>
CHEMBL1085935

> <chembl_pref_name>
None

> <i_lp_mmshare_version>
53161

> <r_lp_tautomer_probability>
0.999999987636

> <s_lp_Force_Field>
OPLS_2005

> <r_lp_Energy>
5.092283

> <b_lp_Chiralities_Consistent>
1

> <s_lp_Variant>
CHEMBL3231_lig224-2

> <s_i_glide_gridfile>
glide-grid_2etr

> <i_i_glide_lignum>
366

> <i_i_glide_rotatable_bonds>
3

> <r_i_docking_score>
-7.70979659226419

> <r_i_glide_ligand_efficiency>
-0.350445299648372

> <r_i_glide_ligand_efficiency_sa>
-0.98196151184629

> <r_i_glide_ligand_efficiency_ln>
-1.88455550881298

> <r_i_glide_gscore>
-7.70979659226419

> <r_i_glide_lipo>
-1.46917512023604

> <r_i_glide_hbond>
-0.692271539347294

> <r_i_glide_metal>
0

> <r_i_glide_rewards>
-2.93374368930077

> <r_i_glide_evdw>
-35.0554008483887

> <r_i_glide_ecoul>
-7.52013731002808

> <r_i_glide_erotb>
0.266184395543553

> <r_i_glide_esite>
0

> <r_i_glide_emodel>
-60.1462095291541

> <r_i_glide_energy>
-42.5755381584167

> <r_i_glide_einternal>
2.86453342437744

> <i_i_glide_confnum>
4

> <i_i_glide_posenum>
78

> <r_i_glide_eff_state_penalty>
0

> <s_user_duplicate_titles>
CHEMBL3231_lig224,630401

> <i_f3d_flags>
0

> <s_m_subgroup_title>
dock_pv

> <s_m_subgroupid>
dock_pv

> <b_m_subgroup_collapsed>
1

$$$$
CHEMBL3231_lig973 
                    3D
 Schrodinger Suite 2021-1.
 65 68  0  0  1  0            999 V2000
   50.2148  100.0504   24.8108 C   0  0  0  0  0  0
   50.0423   98.7095   24.8384 N   0  0  0  0  0  0
   50.2382   98.0752   26.0199 C   0  0  0  0  0  0
   50.5940   98.7475   27.1866 C   0  0  0  0  0  0
   50.7834  100.1423   27.1512 C   0  0  0  0  0  0
   50.5954  100.7940   25.9244 C   0  0  0  0  0  0
   51.1521  100.9005   28.3812 C   0  0  0  0  0  0
   51.8850  100.2956   29.4061 C   0  0  0  0  0  0
   52.1803  100.9474   30.6055 C   0  0  0  0  0  0
   51.7244  102.2756   30.7998 C   0  0  0  0  0  0
   51.0650  102.9094   29.7355 C   0  0  0  0  0  0
   50.7668  102.2302   28.5582 C   0  0  0  0  0  0
   51.9516  103.0767   32.0664 C   0  0  0  0  0  0
   51.9603  102.3942   33.2196 N   0  0  0  0  0  0
   52.0548  104.3026   32.0171 O   0  0  0  0  0  0
   52.0455  102.9605   34.5639 C   0  0  1  0  0  0
   50.7347  103.6330   35.0004 C   0  0  0  0  0  0
   49.6469  102.8671   35.4409 C   0  0  0  0  0  0
   48.4792  103.4882   35.8754 C   0  0  0  0  0  0
   48.3877  104.8781   35.8714 C   0  0  0  0  0  0
   49.4501  105.6658   35.4289 C   0  0  0  0  0  0
   50.6309  105.0314   35.0002 C   0  0  0  0  0  0
   49.2527  107.0326   35.4377 O   0  0  0  0  0  0
   50.3120  107.8874   35.0158 C   0  0  0  0  0  0
   52.5314  101.8914   35.5608 C   0  0  0  0  0  0
   52.8623  100.1747   31.5333 N   0  0  0  0  0  0
   54.2338  100.4621   31.9728 C   0  0  0  0  0  0
   55.0605   99.1622   32.0109 C   0  0  0  0  0  0
   54.3949   98.0692   32.8784 C   0  0  0  0  0  0
   52.9303   97.8806   32.4278 C   0  0  0  0  0  0
   52.1646   99.2141   32.3994 C   0  0  0  0  0  0
   55.1840   96.7436   32.9097 C   0  0  0  0  0  0
   55.2459   96.1220   31.5954 N   0  0  0  0  0  0
   50.0437  100.5344   23.8598 H   0  0  0  0  0  0
   50.0912   97.0052   26.0229 H   0  0  0  0  0  0
   50.7090   98.1833   28.1001 H   0  0  0  0  0  0
   50.7338  101.8606   25.8260 H   0  0  0  0  0  0
   52.2296   99.2771   29.2770 H   0  0  0  0  0  0
   50.7460  103.9364   29.8133 H   0  0  0  0  0  0
   50.2116  102.7511   27.7931 H   0  0  0  0  0  0
   52.0618  101.3896   33.1436 H   0  0  0  0  0  0
   52.8319  103.7235   34.5546 H   0  0  0  0  0  0
   49.7006  101.7876   35.4498 H   0  0  0  0  0  0
   47.6441  102.8938   36.2185 H   0  0  0  0  0  0
   47.4768  105.3519   36.2045 H   0  0  0  0  0  0
   51.4751  105.6130   34.6530 H   0  0  0  0  0  0
   49.9903  108.9262   35.0962 H   0  0  0  0  0  0
   51.1998  107.7707   35.6406 H   0  0  0  0  0  0
   50.5835  107.7086   33.9758 H   0  0  0  0  0  0
   52.6181  102.3012   36.5672 H   0  0  0  0  0  0
   51.8581  101.0357   35.6077 H   0  0  0  0  0  0
   53.5129  101.5080   35.2804 H   0  0  0  0  0  0
   54.7051  101.1553   31.2737 H   0  0  0  0  0  0
   54.2245  100.9491   32.9466 H   0  0  0  0  0  0
   55.2206   98.8162   30.9896 H   0  0  0  0  0  0
   56.0653   99.3638   32.3835 H   0  0  0  0  0  0
   54.3556   98.4664   33.8935 H   0  0  0  0  0  0
   52.4430   97.1668   33.0890 H   0  0  0  0  0  0
   52.8733   97.4121   31.4441 H   0  0  0  0  0  0
   52.0597   99.6191   33.4058 H   0  0  0  0  0  0
   51.1586   99.0352   32.0168 H   0  0  0  0  0  0
   56.2018   96.9200   33.2638 H   0  0  0  0  0  0
   54.7214   96.0434   33.6090 H   0  0  0  0  0  0
   55.7603   96.7503   30.9874 H   0  0  0  0  0  0
   55.8246   95.2943   31.6538 H   0  0  0  0  0  0
  1  2  2  0  0  0
  1  6  1  0  0  0
  1 34  1  0  0  0
  2  3  1  0  0  0
  3  4  2  0  0  0
  3 35  1  0  0  0
  4  5  1  0  0  0
  4 36  1  0  0  0
  5  6  2  0  0  0
  5  7  1  0  0  0
  6 37  1  0  0  0
  7  8  2  0  0  0
  7 12  1  0  0  0
  8  9  1  0  0  0
  8 38  1  0  0  0
  9 10  2  0  0  0
  9 26  1  0  0  0
 10 11  1  0  0  0
 10 13  1  0  0  0
 11 12  2  0  0  0
 11 39  1  0  0  0
 12 40  1  0  0  0
 13 14  1  0  0  0
 13 15  2  0  0  0
 14 16  1  0  0  0
 14 41  1  0  0  0
 16 17  1  0  0  0
 16 25  1  0  0  0
 16 42  1  0  0  0
 17 18  2  0  0  0
 17 22  1  0  0  0
 18 19  1  0  0  0
 18 43  1  0  0  0
 19 20  2  0  0  0
 19 44  1  0  0  0
 20 21  1  0  0  0
 20 45  1  0  0  0
 21 22  2  0  0  0
 21 23  1  0  0  0
 22 46  1  0  0  0
 23 24  1  0  0  0
 24 47  1  0  0  0
 24 48  1  0  0  0
 24 49  1  0  0  0
 25 50  1  0  0  0
 25 51  1  0  0  0
 25 52  1  0  0  0
 26 27  1  0  0  0
 26 31  1  0  0  0
 27 28  1  0  0  0
 27 53  1  0  0  0
 27 54  1  0  0  0
 28 29  1  0  0  0
 28 55  1  0  0  0
 28 56  1  0  0  0
 29 30  1  0  0  0
 29 32  1  0  0  0
 29 57  1  0  0  0
 30 31  1  0  0  0
 30 58  1  0  0  0
 30 59  1  0  0  0
 31 60  1  0  0  0
 31 61  1  0  0  0
 32 33  1  0  0  0
 32 62  1  0  0  0
 32 63  1  0  0  0
 33 64  1  0  0  0
 33 65  1  0  0  0
M  END
> <s_m_entry_id>
28165

> <s_m_entry_name>
dock_pv.326

> <s_m_Source_Path>
/home/csk/Desktop/cluster/DUD-E-result/rock1

> <s_m_Source_File>
dock_pv.maegz

> <i_m_Source_File_Index>
326

> <chembl_id>
CHEMBL4434688

> <chembl_pref_name>
None

> <i_lp_mmshare_version>
53161

> <r_lp_tautomer_probability>
1

> <s_lp_Force_Field>
OPLS_2005

> <r_lp_Energy>
35.47921

> <b_lp_Chiralities_Consistent>
1

> <s_lp_Variant>
CHEMBL3231_lig973 -1

> <s_i_glide_gridfile>
glide-grid_2etr

> <i_i_glide_lignum>
1387

> <i_i_glide_rotatable_bonds>
8

> <r_i_docking_score>
-7.70974659025398

> <r_i_glide_ligand_efficiency>
-0.233628684553151

> <r_i_glide_ligand_efficiency_sa>
-0.749372025302602

> <r_i_glide_ligand_efficiency_ln>
-1.71460772274106

> <r_i_glide_gscore>
-7.70974659025398

> <r_i_glide_lipo>
-3.10542336982999

> <r_i_glide_hbond>
-0.247637541112048

> <r_i_glide_metal>
0

> <r_i_glide_rewards>
-1.72106557672651

> <r_i_glide_evdw>
-52.0230178833008

> <r_i_glide_ecoul>
-3.74943518638611

> <r_i_glide_erotb>
0.60719192735335

> <r_i_glide_esite>
-0.0792458578158375

> <r_i_glide_emodel>
-77.4484176938953

> <r_i_glide_energy>
-55.7724530696869

> <r_i_glide_einternal>
10.0271644592285

> <i_i_glide_confnum>
16

> <i_i_glide_posenum>
350

> <r_i_glide_eff_state_penalty>
0

> <s_user_duplicate_titles>
CHEMBL3231_lig973 

> <i_f3d_flags>
0

> <s_m_subgroup_title>
dock_pv

> <s_m_subgroupid>
dock_pv

> <b_m_subgroup_collapsed>
1

$$$$
CHEMBL3231_lig1489
                    3D
 Schrodinger Suite 2021-1.
 27 29  0  0  1  0            999 V2000
   52.4970  103.5746   31.9567 S   0  0  0  0  0  0
   52.4605  100.5287   32.0126 O   0  0  0  0  0  0
   51.1789  102.2482   28.4107 N   0  0  0  0  0  0
   50.0426   98.4745   25.2110 N   0  0  0  0  0  0
   51.2230  100.8878   28.5239 C   0  0  0  0  0  0
   51.6459  100.2531   29.7347 C   0  0  0  0  0  0
   50.8330  100.1013   27.4040 C   0  0  0  0  0  0
   52.0437  101.0816   30.8248 C   0  0  0  0  0  0
   50.8427   98.6787   27.5128 C   0  0  0  0  0  0
   51.9992  102.4720   30.6682 C   0  0  0  0  0  0
   51.6432   98.8371   29.8011 C   0  0  0  0  0  0
   51.2430   98.0715   28.7164 C   0  0  0  0  0  0
   51.5685  103.0043   29.4595 C   0  0  0  0  0  0
   50.4217  100.6723   26.1580 C   0  0  0  0  0  0
   50.4420   97.9319   26.3818 C   0  0  0  0  0  0
   50.0432   99.8254   25.1159 C   0  0  0  0  0  0
   54.3082  103.5019   31.9266 C   0  0  0  0  0  0
   52.5773   99.5786   31.9723 H   0  0  0  0  0  0
   51.9521   98.3340   30.7057 H   0  0  0  0  0  0
   51.2363   96.9937   28.7925 H   0  0  0  0  0  0
   51.5445  104.0721   29.3033 H   0  0  0  0  0  0
   50.3986  101.7428   26.0219 H   0  0  0  0  0  0
   50.4414   96.8516   26.4270 H   0  0  0  0  0  0
   49.7272  100.2349   24.1659 H   0  0  0  0  0  0
   54.7269  104.2474   32.6018 H   0  0  0  0  0  0
   54.6759  103.7006   30.9201 H   0  0  0  0  0  0
   54.6642  102.5159   32.2281 H   0  0  0  0  0  0
  1 10  1  0  0  0
  1 17  1  0  0  0
  2  8  1  0  0  0
  2 18  1  0  0  0
  3  5  2  0  0  0
  3 13  1  0  0  0
  4 15  1  0  0  0
  4 16  2  0  0  0
  5  6  1  0  0  0
  5  7  1  0  0  0
  6  8  2  0  0  0
  6 11  1  0  0  0
  7  9  1  0  0  0
  7 14  2  0  0  0
  8 10  1  0  0  0
  9 12  1  0  0  0
  9 15  2  0  0  0
 10 13  2  0  0  0
 11 12  2  0  0  0
 11 19  1  0  0  0
 12 20  1  0  0  0
 13 21  1  0  0  0
 14 16  1  0  0  0
 14 22  1  0  0  0
 15 23  1  0  0  0
 16 24  1  0  0  0
 17 25  1  0  0  0
 17 26  1  0  0  0
 17 27  1  0  0  0
M  END
> <s_m_entry_id>
28167

> <s_m_entry_name>
dock_pv.328

> <s_m_Source_Path>
/home/csk/Desktop/cluster/DUD-E-result/rock1

> <s_m_Source_File>
dock_pv.maegz

> <i_m_Source_File_Index>
328

> <chembl_id>
CHEMBL2006933

> <chembl_pref_name>
None

> <i_lp_mmshare_version>
53161

> <r_lp_tautomer_probability>
1

> <s_lp_Force_Field>
OPLS_2005

> <r_lp_Energy>
15.075763

> <b_lp_Chiralities_Consistent>
1

> <s_lp_Variant>
CHEMBL3231_lig1489-1

> <s_i_glide_gridfile>
glide-grid_2etr

> <i_i_glide_lignum>
2093

> <i_i_glide_rotatable_bonds>
2

> <r_i_docking_score>
-7.70499579861476

> <r_i_glide_ligand_efficiency>
-0.453235046977339

> <r_i_glide_ligand_efficiency_sa>
-1.16539493143335

> <r_i_glide_ligand_efficiency_ln>
-2.01006182203819

> <r_i_glide_gscore>
-7.70499579861476

> <r_i_glide_lipo>
-2.38226554671775

> <r_i_glide_hbond>
-0.152244491981538

> <r_i_glide_metal>
0

> <r_i_glide_rewards>
-2.89647395724213

> <r_i_glide_evdw>
-33.6143608093262

> <r_i_glide_ecoul>
-3.95529174804688

> <r_i_glide_erotb>
0

> <r_i_glide_esite>
0

> <r_i_glide_emodel>
-54.8269433135554

> <r_i_glide_energy>
-37.569652557373

> <r_i_glide_einternal>
1.16402018070221

> <i_i_glide_confnum>
1

> <i_i_glide_posenum>
155

> <r_i_glide_eff_state_penalty>
0

> <s_user_duplicate_titles>
CHEMBL3231_lig1489

> <i_f3d_flags>
0

> <s_m_subgroup_title>
dock_pv

> <s_m_subgroupid>
dock_pv

> <b_m_subgroup_collapsed>
1

$$$$
CHEMBL3231_lig540
                    3D
 Schrodinger Suite 2021-1.
 48 51  0  0  1  0            999 V2000
   51.3342  102.0497   35.4093 C   0  0  0  0  0  0
   52.4980  102.2062   34.5160 N   0  0  0  0  0  0
   52.2109  102.8732   33.3529 C   0  0  0  0  0  0
   51.0823  103.2101   32.9685 O   0  0  0  0  0  0
   53.4932  103.2388   32.5481 C   0  0  1  0  0  0
   53.2236  103.7837   31.1201 C   0  0  0  0  0  0
   52.5487  102.8047   30.1525 C   0  0  0  0  0  0
   51.4877  103.2211   29.3443 C   0  0  0  0  0  0
   50.9204  102.3426   28.4199 C   0  0  0  0  0  0
   51.4052  101.0346   28.2879 C   0  0  0  0  0  0
   52.4427  100.6207   29.1286 C   0  0  0  0  0  0
   53.0207  101.4965   30.0379 C   0  0  0  0  0  0
   50.8820  100.1061   27.2418 C   0  0  0  0  0  0
   50.4489  100.5841   25.9949 C   0  0  0  0  0  0
   50.0430   99.6758   25.0165 C   0  0  0  0  0  0
   50.0435   98.3345   25.2123 N   0  0  0  0  0  0
   50.4429   97.8743   26.4202 C   0  0  0  0  0  0
   50.8596   98.7166   27.4499 C   0  0  0  0  0  0
   54.3348  104.1650   33.3210 N   0  0  0  0  0  0
   54.9941  103.8924   34.4654 C   0  0  0  0  0  0
   55.6420  104.7746   35.0302 O   0  0  0  0  0  0
   54.9199  102.5307   35.0064 C   0  0  0  0  0  0
   56.0430  102.0624   35.6039 C   0  0  0  0  0  0
   56.1722  100.6604   36.1790 C   0  0  0  0  0  0
   55.1255   99.6708   35.5958 C   0  0  0  0  0  0
   53.8139  100.3330   35.1755 C   0  0  0  0  0  0
   53.7154  101.6644   34.9029 C   0  0  0  0  0  0
   52.4756   99.1780   35.0063 Cl  0  0  0  0  0  0
   51.6519  101.7979   36.4230 H   0  0  0  0  0  0
   50.7460  102.9670   35.4842 H   0  0  0  0  0  0
   50.6782  101.2543   35.0538 H   0  0  0  0  0  0
   54.0794  102.3274   32.4189 H   0  0  0  0  0  0
   54.1679  104.0779   30.6594 H   0  0  0  0  0  0
   52.6430  104.7005   31.2111 H   0  0  0  0  0  0
   51.1193  104.2333   29.4060 H   0  0  0  0  0  0
   50.1143  102.6932   27.7931 H   0  0  0  0  0  0
   52.8606   99.6281   29.0442 H   0  0  0  0  0  0
   53.8603  101.1521   30.6215 H   0  0  0  0  0  0
   50.4540  101.6396   25.7693 H   0  0  0  0  0  0
   49.7184  100.0213   24.0446 H   0  0  0  0  0  0
   50.4392   96.8017   26.5537 H   0  0  0  0  0  0
   51.1707   98.2869   28.3906 H   0  0  0  0  0  0
   54.3463  105.1395   33.0449 H   0  0  0  0  0  0
   56.9250  102.6881   35.6724 H   0  0  0  0  0  0
   56.0708  100.7297   37.2623 H   0  0  0  0  0  0
   57.1806  100.2825   35.9944 H   0  0  0  0  0  0
   54.9362   98.8771   36.3206 H   0  0  0  0  0  0
   55.5418   99.1793   34.7144 H   0  0  0  0  0  0
  1  2  1  0  0  0
  1 29  1  0  0  0
  1 30  1  0  0  0
  1 31  1  0  0  0
  2  3  1  0  0  0
  2 27  1  0  0  0
  3  4  2  0  0  0
  3  5  1  0  0  0
  5  6  1  0  0  0
  5 19  1  0  0  0
  5 32  1  0  0  0
  6  7  1  0  0  0
  6 33  1  0  0  0
  6 34  1  0  0  0
  7  8  2  0  0  0
  7 12  1  0  0  0
  8  9  1  0  0  0
  8 35  1  0  0  0
  9 10  2  0  0  0
  9 36  1  0  0  0
 10 11  1  0  0  0
 10 13  1  0  0  0
 11 12  2  0  0  0
 11 37  1  0  0  0
 12 38  1  0  0  0
 13 14  2  0  0  0
 13 18  1  0  0  0
 14 15  1  0  0  0
 14 39  1  0  0  0
 15 16  2  0  0  0
 15 40  1  0  0  0
 16 17  1  0  0  0
 17 18  2  0  0  0
 17 41  1  0  0  0
 18 42  1  0  0  0
 19 20  1  0  0  0
 19 43  1  0  0  0
 20 21  2  0  0  0
 20 22  1  0  0  0
 22 23  2  0  0  0
 22 27  1  0  0  0
 23 24  1  0  0  0
 23 44  1  0  0  0
 24 25  1  0  0  0
 24 45  1  0  0  0
 24 46  1  0  0  0
 25 26  1  0  0  0
 25 47  1  0  0  0
 25 48  1  0  0  0
 26 27  2  0  0  0
 26 28  1  0  0  0
M  END
> <s_m_entry_id>
28168

> <s_m_entry_name>
dock_pv.329

> <s_m_Source_Path>
/home/csk/Desktop/cluster/DUD-E-result/rock1

> <s_m_Source_File>
dock_pv.maegz

> <i_m_Source_File_Index>
329

> <chembl_id>
CHEMBL4107646

> <chembl_pref_name>
None

> <i_lp_mmshare_version>
53161

> <r_lp_tautomer_probability>
1

> <s_lp_Force_Field>
OPLS_2005

> <r_lp_Energy>
47.677992

> <b_lp_Chiralities_Consistent>
1

> <s_lp_Variant>
CHEMBL3231_lig540-1

> <s_i_glide_gridfile>
glide-grid_2etr

> <i_i_glide_lignum>
817

> <i_i_glide_rotatable_bonds>
3

> <r_i_docking_score>
-7.69981081989505

> <r_i_glide_ligand_efficiency>
-0.27499324356768

> <r_i_glide_ligand_efficiency_sa>
-0.835041449830426

> <r_i_glide_ligand_efficiency_ln>
-1.77734241350108

> <r_i_glide_gscore>
-7.69981081989505

> <r_i_glide_lipo>
-2.36350757490843

> <r_i_glide_hbond>
-0.260311242715326

> <r_i_glide_metal>
0

> <r_i_glide_rewards>
-2.08197560606061

> <r_i_glide_evdw>
-41.1387214660645

> <r_i_glide_ecoul>
-8.26674747467041

> <r_i_glide_erotb>
0.37785929908351

> <r_i_glide_esite>
-0.0749275007904108

> <r_i_glide_emodel>
-72.0003720617497

> <r_i_glide_energy>
-49.4054689407349

> <r_i_glide_einternal>
3.04398417472839

> <i_i_glide_confnum>
12

> <i_i_glide_posenum>
47

> <r_i_glide_eff_state_penalty>
0

> <s_user_duplicate_titles>
CHEMBL3231_lig540

> <i_f3d_flags>
0

> <s_m_subgroup_title>
dock_pv

> <s_m_subgroupid>
dock_pv

> <b_m_subgroup_collapsed>
1

$$$$
CHEMBL3231_lig653
                    3D
 Schrodinger Suite 2021-1.
 44 46  0  0  1  0            999 V2000
   51.4227   97.6393   30.4092 C   0  0  0  0  0  0
   51.2440   98.4042   29.2171 O   0  0  0  0  0  0
   51.3174   99.7864   29.2515 C   0  0  0  0  0  0
   51.6440  100.4990   30.4194 C   0  0  0  0  0  0
   51.6440  101.9032   30.4538 C   0  0  0  0  0  0
   51.3758  102.5912   29.2654 C   0  0  0  0  0  0
   51.0619  101.9018   28.1025 C   0  0  0  0  0  0
   51.0009  100.5038   28.0798 C   0  0  0  0  0  0
   50.5377   99.8663   26.8013 C   0  0  0  0  0  0
   49.9237  100.4885   25.7195 C   0  0  0  0  0  0
   49.6461   99.5129   24.8102 N   0  0  0  0  0  0
   50.0437   98.3075   25.2110 N   0  0  0  0  0  0
   50.5825   98.5209   26.3892 C   0  0  0  0  0  0
   51.8480  102.6874   31.7345 C   0  0  0  0  0  0
   51.6462  103.9028   31.7608 O   0  0  0  0  0  0
   52.1960  101.9938   32.8319 N   0  0  0  0  0  0
   52.3381  102.5531   34.1803 C   0  0  0  0  0  0
   51.0625  103.1650   34.7654 C   0  0  0  0  0  0
   49.9672  102.3517   35.0727 C   0  0  0  0  0  0
   48.8225  102.9013   35.6453 C   0  0  0  0  0  0
   48.7653  104.2669   35.9184 C   0  0  0  0  0  0
   49.8458  105.0965   35.6150 C   0  0  0  0  0  0
   49.7457  106.4292   35.9512 O   0  0  0  0  0  0
   50.1666  107.3992   34.9907 C   0  0  0  0  0  0
   49.2650  107.5048   34.0108 F   0  0  0  0  0  0
   50.2652  108.5772   35.6045 F   0  0  0  0  0  0
   50.9995  104.5352   35.0474 C   0  0  0  0  0  0
   51.2441   96.5860   30.1900 H   0  0  0  0  0  0
   52.4402   97.7263   30.7943 H   0  0  0  0  0  0
   50.7169   97.9326   31.1884 H   0  0  0  0  0  0
   51.8578   99.9502   31.3220 H   0  0  0  0  0  0
   51.3847  103.6719   29.2370 H   0  0  0  0  0  0
   50.8393  102.4775   27.2167 H   0  0  0  0  0  0
   49.6441  101.5122   25.5216 H   0  0  0  0  0  0
   49.2028   99.6658   23.9079 H   0  0  0  0  0  0
   51.0000   97.6956   26.9479 H   0  0  0  0  0  0
   52.4795  101.0326   32.7112 H   0  0  0  0  0  0
   53.1610  103.2705   34.1928 H   0  0  0  0  0  0
   52.6471  101.7403   34.8367 H   0  0  0  0  0  0
   50.0069  101.2911   34.8704 H   0  0  0  0  0  0
   47.9848  102.2648   35.8922 H   0  0  0  0  0  0
   47.8791  104.6848   36.3749 H   0  0  0  0  0  0
   51.1465  107.2071   34.5504 H   0  0  0  0  0  0
   51.8586  105.1531   34.8362 H   0  0  0  0  0  0
  1  2  1  0  0  0
  1 28  1  0  0  0
  1 29  1  0  0  0
  1 30  1  0  0  0
  2  3  1  0  0  0
  3  4  2  0  0  0
  3  8  1  0  0  0
  4  5  1  0  0  0
  4 31  1  0  0  0
  5  6  2  0  0  0
  5 14  1  0  0  0
  6  7  1  0  0  0
  6 32  1  0  0  0
  7  8  2  0  0  0
  7 33  1  0  0  0
  8  9  1  0  0  0
  9 10  2  0  0  0
  9 13  1  0  0  0
 10 11  1  0  0  0
 10 34  1  0  0  0
 11 12  1  0  0  0
 11 35  1  0  0  0
 12 13  2  0  0  0
 13 36  1  0  0  0
 14 15  2  0  0  0
 14 16  1  0  0  0
 16 17  1  0  0  0
 16 37  1  0  0  0
 17 18  1  0  0  0
 17 38  1  0  0  0
 17 39  1  0  0  0
 18 19  2  0  0  0
 18 27  1  0  0  0
 19 20  1  0  0  0
 19 40  1  0  0  0
 20 21  2  0  0  0
 20 41  1  0  0  0
 21 22  1  0  0  0
 21 42  1  0  0  0
 22 23  1  0  0  0
 22 27  2  0  0  0
 23 24  1  0  0  0
 24 25  1  0  0  0
 24 26  1  0  0  0
 24 43  1  0  0  0
 27 44  1  0  0  0
M  END
> <s_m_entry_id>
28169

> <s_m_entry_name>
dock_pv.330

> <s_m_Source_Path>
/home/csk/Desktop/cluster/DUD-E-result/rock1

> <s_m_Source_File>
dock_pv.maegz

> <i_m_Source_File_Index>
330

> <chembl_id>
CHEMBL3943648

> <chembl_pref_name>
None

> <i_lp_mmshare_version>
53161

> <r_lp_tautomer_probability>
0.5

> <s_lp_Force_Field>
OPLS_2005

> <r_lp_Energy>
20.967643

> <b_lp_Chiralities_Consistent>
1

> <s_lp_Variant>
CHEMBL3231_lig653-1

> <s_i_glide_gridfile>
glide-grid_2etr

> <i_i_glide_lignum>
942

> <i_i_glide_rotatable_bonds>
8

> <r_i_docking_score>
-7.69919490773519

> <r_i_glide_ligand_efficiency>
-0.285155366953155

> <r_i_glide_ligand_efficiency_sa>
-0.855466099919641

> <r_i_glide_ligand_efficiency_ln>
-1.79224564337249

> <r_i_glide_gscore>
-7.69919490773519

> <r_i_glide_lipo>
-2.64758863615224

> <r_i_glide_hbond>
-0.672424647132321

> <r_i_glide_metal>
0

> <r_i_glide_rewards>
-1.2879539477099

> <r_i_glide_evdw>
-43.1187057495117

> <r_i_glide_ecoul>
-9.15239429473877

> <r_i_glide_erotb>
0.582250395663868

> <r_i_glide_esite>
-0.144683640718196

> <r_i_glide_emodel>
-74.1481265234895

> <r_i_glide_energy>
-52.2711000442505

> <r_i_glide_einternal>
2.75395464897156

> <i_i_glide_confnum>
45

> <i_i_glide_posenum>
391

> <r_i_glide_eff_state_penalty>
0

> <s_user_duplicate_titles>
CHEMBL3231_lig653

> <i_f3d_flags>
0

> <s_m_subgroup_title>
dock_pv

> <s_m_subgroupid>
dock_pv

> <b_m_subgroup_collapsed>
1

$$$$
CHEMBL3231_lig942 
                    3D
 Schrodinger Suite 2021-1.
 48 50  0  0  1  0            999 V2000
   50.4415   97.7867   26.4016 C   0  0  0  0  0  0
   50.0404   98.2980   25.2111 N   0  0  0  0  0  0
   50.0579   99.6437   25.0580 C   0  0  0  0  0  0
   50.4903  100.5105   26.0602 C   0  0  0  0  0  0
   50.9131   99.9811   27.2909 C   0  0  0  0  0  0
   50.8649   98.5872   27.4586 C   0  0  0  0  0  0
   51.4115  100.8664   28.3813 C   0  0  0  0  0  0
   50.8714  102.1442   28.5686 C   0  0  0  0  0  0
   51.3532  102.9743   29.5739 C   0  0  0  0  0  0
   52.3702  102.5403   30.4340 C   0  0  0  0  0  0
   52.9163  101.2624   30.2470 C   0  0  0  0  0  0
   52.4427  100.4425   29.2279 C   0  0  0  0  0  0
   52.8132  103.4377   31.5677 C   0  0  0  0  0  0
   54.0544  103.2380   32.0542 N   0  0  0  0  0  0
   52.0442  104.2967   32.0074 O   0  0  0  0  0  0
   54.6327  103.9280   33.2123 C   0  0  0  0  0  0
   54.2225  103.3169   34.5496 C   0  0  0  0  0  0
   55.1222  102.5352   35.2860 C   0  0  0  0  0  0
   54.7323  101.9850   36.5080 C   0  0  0  0  0  0
   53.4421  102.2029   36.9958 C   0  0  0  0  0  0
   52.5293  102.9829   36.2778 C   0  0  0  0  0  0
   52.9464  103.5675   35.0690 C   0  0  0  0  0  0
   51.2606  103.1181   36.8105 O   0  0  0  0  0  0
   50.2571  103.7899   36.0513 C   0  0  0  0  0  0
   48.8870  103.5879   36.7156 C   0  0  0  0  0  0
   47.7557  104.2990   35.9575 C   0  0  0  0  0  0
   50.4169   96.7120   26.4974 H   0  0  0  0  0  0
   49.7217  100.0259   24.1041 H   0  0  0  0  0  0
   50.5063  101.5733   25.8724 H   0  0  0  0  0  0
   51.1604   98.1251   28.3898 H   0  0  0  0  0  0
   50.0768  102.5086   27.9331 H   0  0  0  0  0  0
   50.9265  103.9594   29.6786 H   0  0  0  0  0  0
   53.7047  100.8817   30.8819 H   0  0  0  0  0  0
   52.8994   99.4715   29.0976 H   0  0  0  0  0  0
   54.6401  102.5497   31.6066 H   0  0  0  0  0  0
   54.3454  104.9838   33.2046 H   0  0  0  0  0  0
   55.7189  103.9116   33.1082 H   0  0  0  0  0  0
   56.1207  102.3401   34.9144 H   0  0  0  0  0  0
   55.4296  101.3795   37.0720 H   0  0  0  0  0  0
   53.1427  101.7559   37.9327 H   0  0  0  0  0  0
   52.2801  104.2056   34.5064 H   0  0  0  0  0  0
   50.2165  103.3892   35.0356 H   0  0  0  0  0  0
   50.4943  104.8541   35.9884 H   0  0  0  0  0  0
   48.9185  103.9430   37.7466 H   0  0  0  0  0  0
   48.6675  102.5203   36.7701 H   0  0  0  0  0  0
   46.7882  104.1141   36.4214 H   0  0  0  0  0  0
   47.6837  103.9489   34.9275 H   0  0  0  0  0  0
   47.9099  105.3779   35.9349 H   0  0  0  0  0  0
  1  2  2  0  0  0
  1  6  1  0  0  0
  1 27  1  0  0  0
  2  3  1  0  0  0
  3  4  2  0  0  0
  3 28  1  0  0  0
  4  5  1  0  0  0
  4 29  1  0  0  0
  5  6  2  0  0  0
  5  7  1  0  0  0
  6 30  1  0  0  0
  7  8  2  0  0  0
  7 12  1  0  0  0
  8  9  1  0  0  0
  8 31  1  0  0  0
  9 10  2  0  0  0
  9 32  1  0  0  0
 10 11  1  0  0  0
 10 13  1  0  0  0
 11 12  2  0  0  0
 11 33  1  0  0  0
 12 34  1  0  0  0
 13 14  1  0  0  0
 13 15  2  0  0  0
 14 16  1  0  0  0
 14 35  1  0  0  0
 16 17  1  0  0  0
 16 36  1  0  0  0
 16 37  1  0  0  0
 17 18  2  0  0  0
 17 22  1  0  0  0
 18 19  1  0  0  0
 18 38  1  0  0  0
 19 20  2  0  0  0
 19 39  1  0  0  0
 20 21  1  0  0  0
 20 40  1  0  0  0
 21 22  2  0  0  0
 21 23  1  0  0  0
 22 41  1  0  0  0
 23 24  1  0  0  0
 24 25  1  0  0  0
 24 42  1  0  0  0
 24 43  1  0  0  0
 25 26  1  0  0  0
 25 44  1  0  0  0
 25 45  1  0  0  0
 26 46  1  0  0  0
 26 47  1  0  0  0
 26 48  1  0  0  0
M  END
> <s_m_entry_id>
28170

> <s_m_entry_name>
dock_pv.331

> <s_m_Source_Path>
/home/csk/Desktop/cluster/DUD-E-result/rock1

> <s_m_Source_File>
dock_pv.maegz

> <i_m_Source_File_Index>
331

> <chembl_id>
CHEMBL4476761

> <chembl_pref_name>
None

> <i_lp_mmshare_version>
53161

> <r_lp_tautomer_probability>
1

> <s_lp_Force_Field>
OPLS_2005

> <r_lp_Energy>
16.84663

> <b_lp_Chiralities_Consistent>
1

> <s_lp_Variant>
CHEMBL3231_lig942 -1

> <s_i_glide_gridfile>
glide-grid_2etr

> <i_i_glide_lignum>
1356

> <i_i_glide_rotatable_bonds>
8

> <r_i_docking_score>
-7.69831046048277

> <r_i_glide_ligand_efficiency>
-0.296088863864722

> <r_i_glide_ligand_efficiency_sa>
-0.877162094145817

> <r_i_glide_ligand_efficiency_ln>
-1.80792295142744

> <r_i_glide_gscore>
-7.69831046048277

> <r_i_glide_lipo>
-2.96401519501766

> <r_i_glide_hbond>
-0.301992106771015

> <r_i_glide_metal>
0

> <r_i_glide_rewards>
-2.40501832955539

> <r_i_glide_evdw>
-45.5449028015137

> <r_i_glide_ecoul>
-5.16798257827759

> <r_i_glide_erotb>
1.10895123133058

> <r_i_glide_esite>
-0.0837935336519554

> <r_i_glide_emodel>
-74.2384239986984

> <r_i_glide_energy>
-50.7128853797913

> <r_i_glide_einternal>
2.07328701019287

> <i_i_glide_confnum>
57

> <i_i_glide_posenum>
41

> <r_i_glide_eff_state_penalty>
0

> <s_user_duplicate_titles>
CHEMBL3231_lig942 

> <i_f3d_flags>
0

> <s_m_subgroup_title>
dock_pv

> <s_m_subgroupid>
dock_pv

> <b_m_subgroup_collapsed>
1

$$$$
CHEMBL3231_lig310
                    3D
 Schrodinger Suite 2021-1.
 54 57  0  0  1  0            999 V2000
   50.8433  102.2414   27.9801 C   0  0  0  0  0  0
   50.8703  100.8457   28.0029 C   0  0  0  0  0  0
   51.3123  100.1707   29.1480 C   0  0  0  0  0  0
   51.3152  103.0087   29.0397 C   0  0  0  0  0  0
   51.7758  102.3565   30.1884 C   0  0  0  0  0  0
   51.7406  100.9374   30.2452 C   0  0  0  0  0  0
   52.1503  100.5671   31.5247 N   0  0  0  0  0  0
   52.4687  101.7072   32.2682 C   0  0  0  0  0  0
   52.3235  102.8073   31.4223 C   0  0  0  0  0  0
   52.9083  101.7214   33.6582 C   0  0  0  0  0  0
   53.1791  100.7004   34.2903 O   0  0  0  0  0  0
   52.8050  102.9291   34.2396 N   0  0  0  0  0  0
   52.7514  103.1866   35.6797 C   0  0  0  0  0  0
   51.3553  103.6395   36.1017 C   0  0  0  0  0  0
   50.2217  102.9894   35.5987 C   0  0  0  0  0  0
   48.9400  103.4756   35.8405 C   0  0  0  0  0  0
   48.7858  104.6006   36.6664 C   0  0  0  0  0  0
   49.9062  105.2307   37.2117 C   0  0  0  0  0  0
   51.1867  104.7590   36.9215 C   0  0  0  0  0  0
   50.4362  100.0758   26.7916 C   0  0  0  0  0  0
   49.8766  100.5582   25.6135 C   0  0  0  0  0  0
   49.6601   99.4751   24.8110 N   0  0  0  0  0  0
   50.0431   98.3287   25.3743 N   0  0  0  0  0  0
   50.5079   98.6882   26.5495 C   0  0  0  0  0  0
   47.9102  102.8142   35.2107 O   0  0  0  0  0  0
   46.6867  103.5027   35.0150 C   0  0  0  0  0  0
   52.1951   99.1692   31.9861 C   0  0  0  0  0  0
   53.6036   98.5433   31.8973 C   0  0  0  0  0  0
   54.2338   98.5572   30.4956 C   0  0  0  0  0  0
   55.2425   97.5756   30.4123 O   0  0  0  0  0  0
   50.4782  102.7532   27.1014 H   0  0  0  0  0  0
   51.3037   99.0933   29.1882 H   0  0  0  0  0  0
   51.3307  104.0871   28.9690 H   0  0  0  0  0  0
   52.5357  103.8343   31.6838 H   0  0  0  0  0  0
   52.7726  103.7379   33.6389 H   0  0  0  0  0  0
   53.0038  102.2988   36.2656 H   0  0  0  0  0  0
   53.4959  103.9483   35.9204 H   0  0  0  0  0  0
   50.3322  102.1265   34.9602 H   0  0  0  0  0  0
   47.8068  104.9970   36.8846 H   0  0  0  0  0  0
   49.7861  106.1035   37.8352 H   0  0  0  0  0  0
   52.0460  105.2832   37.3116 H   0  0  0  0  0  0
   49.6120  101.5512   25.2855 H   0  0  0  0  0  0
   49.2533   99.5142   23.8801 H   0  0  0  0  0  0
   50.9007   97.9481   27.2291 H   0  0  0  0  0  0
   46.0356  102.8738   34.4100 H   0  0  0  0  0  0
   46.1749  103.7247   35.9515 H   0  0  0  0  0  0
   46.8419  104.4330   34.4692 H   0  0  0  0  0  0
   51.8059   99.1204   33.0022 H   0  0  0  0  0  0
   51.4740   98.5915   31.4039 H   0  0  0  0  0  0
   54.2828   99.0333   32.5977 H   0  0  0  0  0  0
   53.5248   97.5123   32.2446 H   0  0  0  0  0  0
   53.4821   98.3029   29.7502 H   0  0  0  0  0  0
   54.5989   99.5495   30.2227 H   0  0  0  0  0  0
   56.0677   97.9028   30.8100 H   0  0  0  0  0  0
  1  2  2  0  0  0
  1  4  1  0  0  0
  1 31  1  0  0  0
  2 20  1  0  0  0
  2  3  1  0  0  0
  3  6  2  0  0  0
  3 32  1  0  0  0
  4  5  2  0  0  0
  4 33  1  0  0  0
  5  9  1  0  0  0
  5  6  1  0  0  0
  6  7  1  0  0  0
  7  8  1  0  0  0
  7 27  1  0  0  0
  8  9  2  0  0  0
  8 10  1  0  0  0
  9 34  1  0  0  0
 10 11  2  0  0  0
 10 12  1  0  0  0
 12 13  1  0  0  0
 12 35  1  0  0  0
 13 14  1  0  0  0
 13 36  1  0  0  0
 13 37  1  0  0  0
 14 15  2  0  0  0
 14 19  1  0  0  0
 15 16  1  0  0  0
 15 38  1  0  0  0
 16 17  2  0  0  0
 16 25  1  0  0  0
 17 18  1  0  0  0
 17 39  1  0  0  0
 18 19  2  0  0  0
 18 40  1  0  0  0
 19 41  1  0  0  0
 20 21  2  0  0  0
 20 24  1  0  0  0
 21 22  1  0  0  0
 21 42  1  0  0  0
 22 23  1  0  0  0
 22 43  1  0  0  0
 23 24  2  0  0  0
 24 44  1  0  0  0
 25 26  1  0  0  0
 26 45  1  0  0  0
 26 46  1  0  0  0
 26 47  1  0  0  0
 27 28  1  0  0  0
 27 48  1  0  0  0
 27 49  1  0  0  0
 28 29  1  0  0  0
 28 50  1  0  0  0
 28 51  1  0  0  0
 29 30  1  0  0  0
 29 52  1  0  0  0
 29 53  1  0  0  0
 30 54  1  0  0  0
M  END
> <s_m_entry_id>
28172

> <s_m_entry_name>
dock_pv.333

> <s_m_Source_Path>
/home/csk/Desktop/cluster/DUD-E-result/rock1

> <s_m_Source_File>
dock_pv.maegz

> <i_m_Source_File_Index>
333

> <chembl_id>
CHEMBL1922027

> <chembl_pref_name>
None

> <i_lp_mmshare_version>
53161

> <r_lp_tautomer_probability>
0.5

> <s_lp_Force_Field>
OPLS_2005

> <r_lp_Energy>
21.836912

> <b_lp_Chiralities_Consistent>
1

> <s_lp_Variant>
CHEMBL3231_lig310-1

> <s_i_glide_gridfile>
glide-grid_2etr

> <i_i_glide_lignum>
458

> <i_i_glide_rotatable_bonds>
10

> <r_i_docking_score>
-7.69418563025777

> <r_i_glide_ligand_efficiency>
-0.256472854341926

> <r_i_glide_ligand_efficiency_sa>
-0.796920789002506

> <r_i_glide_ligand_efficiency_ln>
-1.74820281006165

> <r_i_glide_gscore>
-7.69418563025777

> <r_i_glide_lipo>
-3.01479405758582

> <r_i_glide_hbond>
-0.556105395869036

> <r_i_glide_metal>
0

> <r_i_glide_rewards>
-1.4386033007943

> <r_i_glide_evdw>
-47.8236770629883

> <r_i_glide_ecoul>
-6.37707996368408

> <r_i_glide_erotb>
0.6724323314696

> <r_i_glide_esite>
-0.00936935977619615

> <r_i_glide_emodel>
-73.7684298737147

> <r_i_glide_energy>
-54.2007570266724

> <r_i_glide_einternal>
11.9143285751343

> <i_i_glide_confnum>
16

> <i_i_glide_posenum>
292

> <r_i_glide_eff_state_penalty>
0

> <s_user_duplicate_titles>
CHEMBL3231_lig310

> <i_f3d_flags>
0

> <s_m_subgroup_title>
dock_pv

> <s_m_subgroupid>
dock_pv

> <b_m_subgroup_collapsed>
1

$$$$
CHEMBL3231_lig868
                    3D
 Schrodinger Suite 2021-1.
 27 29  0  0  1  0            999 V2000
   53.4637  100.2429   30.8236 N   0  0  0  0  0  0
   53.8233  101.0418   31.7708 C   0  0  0  0  0  0
   53.1999  102.2647   31.9456 N   0  0  0  0  0  0
   52.1839  102.8057   31.2004 C   0  0  0  0  0  0
   52.5049  100.6840   29.9572 C   0  0  0  0  0  0
   51.8729  101.9231   30.0849 C   0  0  0  0  0  0
   50.7419  102.2258   28.8104 S   0  0  0  0  0  0
   51.1229  100.6888   28.0732 C   0  0  0  0  0  0
   52.0610   99.9904   28.8314 C   0  0  0  0  0  0
   50.5281  100.2790   26.8125 C   0  0  0  0  0  0
   50.0743  101.1030   25.8002 C   0  0  0  0  0  0
   49.6430  100.2719   24.8110 N   0  0  0  0  0  0
   49.7905   98.9859   25.1128 N   0  0  0  0  0  0
   50.3030   98.9764   26.3218 C   0  0  0  0  0  0
   51.6579  103.8751   31.4975 O   0  0  0  0  0  0
   50.5764   97.6529   26.9801 C   0  0  0  0  0  0
   54.9186  100.6369   32.7322 C   0  0  0  0  0  0
   53.5096  102.8498   32.7060 H   0  0  0  0  0  0
   52.4430   99.0180   28.5665 H   0  0  0  0  0  0
   50.0277  102.1772   25.6963 H   0  0  0  0  0  0
   49.2578  100.5639   23.9182 H   0  0  0  0  0  0
   51.6462   97.5031   27.0940 H   0  0  0  0  0  0
   50.1374   97.6024   27.9764 H   0  0  0  0  0  0
   50.1933   96.8032   26.4119 H   0  0  0  0  0  0
   54.5893   99.8189   33.3733 H   0  0  0  0  0  0
   55.8019  100.2947   32.1884 H   0  0  0  0  0  0
   55.2300  101.4628   33.3730 H   0  0  0  0  0  0
  1  5  1  0  0  0
  1  2  2  0  0  0
  2  3  1  0  0  0
  2 17  1  0  0  0
  3  4  1  0  0  0
  3 18  1  0  0  0
  4  6  1  0  0  0
  4 15  2  0  0  0
  5  6  2  0  0  0
  5  9  1  0  0  0
  6  7  1  0  0  0
  7  8  1  0  0  0
  8  9  2  0  0  0
  8 10  1  0  0  0
  9 19  1  0  0  0
 10 11  2  0  0  0
 10 14  1  0  0  0
 11 12  1  0  0  0
 11 20  1  0  0  0
 12 13  1  0  0  0
 12 21  1  0  0  0
 13 14  2  0  0  0
 14 16  1  0  0  0
 16 22  1  0  0  0
 16 23  1  0  0  0
 16 24  1  0  0  0
 17 25  1  0  0  0
 17 26  1  0  0  0
 17 27  1  0  0  0
M  END
> <s_m_entry_id>
28173

> <s_m_entry_name>
dock_pv.334

> <s_m_Source_Path>
/home/csk/Desktop/cluster/DUD-E-result/rock1

> <s_m_Source_File>
dock_pv.maegz

> <i_m_Source_File_Index>
334

> <chembl_id>
CHEMBL4063842

> <chembl_pref_name>
None

> <i_lp_mmshare_version>
53161

> <r_lp_tautomer_probability>
0.5

> <s_lp_Force_Field>
OPLS_2005

> <r_lp_Energy>
15.904677

> <b_lp_Chiralities_Consistent>
1

> <s_lp_Variant>
CHEMBL3231_lig868-1

> <s_i_glide_gridfile>
glide-grid_2etr

> <i_i_glide_lignum>
1224

> <i_i_glide_rotatable_bonds>
1

> <r_i_docking_score>
-7.69337871150292

> <r_i_glide_ligand_efficiency>
-0.452551688911937

> <r_i_glide_ligand_efficiency_sa>
-1.16363782542161

> <r_i_glide_ligand_efficiency_ln>
-2.00703118271053

> <r_i_glide_gscore>
-7.69337871150292

> <r_i_glide_lipo>
-1.93493162571518

> <r_i_glide_hbond>
-0.452458335579269

> <r_i_glide_metal>
0

> <r_i_glide_rewards>
-2.96651234848485

> <r_i_glide_evdw>
-32.1605644226074

> <r_i_glide_ecoul>
-6.44321632385254

> <r_i_glide_erotb>
0.287264174612856

> <r_i_glide_esite>
-0.0522299066282312

> <r_i_glide_emodel>
-56.5340513456707

> <r_i_glide_energy>
-38.60378074646

> <r_i_glide_einternal>
0.0123844426125288

> <i_i_glide_confnum>
4

> <i_i_glide_posenum>
56

> <r_i_glide_eff_state_penalty>
0

> <s_user_duplicate_titles>
CHEMBL3231_lig868

> <i_f3d_flags>
0

> <s_m_subgroup_title>
dock_pv

> <s_m_subgroupid>
dock_pv

> <b_m_subgroup_collapsed>
1

$$$$
CHEMBL3231_lig480
                    3D
 Schrodinger Suite 2021-1.
 39 42  0  0  1  0            999 V2000
   53.7317  104.3032   32.8707 C   0  0  0  0  0  0
   54.5766  103.4841   33.6090 C   0  0  0  0  0  0
   54.7266  102.1428   33.2754 C   0  0  0  0  0  0
   53.0214  103.8009   31.7826 C   0  0  0  0  0  0
   53.1507  102.4440   31.4090 C   0  0  0  0  0  0
   54.0184  101.5987   32.1672 C   0  0  0  0  0  0
   54.1042  100.2490   31.7321 C   0  0  0  0  0  0
   53.4170   99.8024   30.6534 N   0  0  0  0  0  0
   52.5954  100.6678   30.0103 C   0  0  0  0  0  0
   52.4363  101.9790   30.3411 N   0  0  0  0  0  0
   51.8215  100.1175   28.8429 C   0  0  0  0  0  0
   51.2840  100.9671   27.8629 C   0  0  0  0  0  0
   51.0442   98.1611   27.5728 C   0  0  0  0  0  0
   51.6436   98.7315   28.6920 C   0  0  0  0  0  0
   50.5829   99.0038   26.5616 C   0  0  0  0  0  0
   50.6711  100.4170   26.7256 C   0  0  0  0  0  0
   50.0413  100.9181   25.5657 C   0  0  0  0  0  0
   49.7125   99.8211   24.8114 N   0  0  0  0  0  0
   50.0279   98.6391   25.3649 N   0  0  0  0  0  0
   54.8858   99.3257   32.4511 N   0  0  0  0  0  0
   55.1252   97.9502   32.0136 C   0  0  0  0  0  0
   54.0931   96.9279   32.5080 C   0  0  0  0  0  0
   52.8430   97.1030   31.7983 N   0  0  0  0  0  0
   53.6428  105.3463   33.1388 H   0  0  0  0  0  0
   55.1260  103.8946   34.4430 H   0  0  0  0  0  0
   55.3938  101.5206   33.8535 H   0  0  0  0  0  0
   52.3783  104.4481   31.2113 H   0  0  0  0  0  0
   51.3763  102.0388   27.9572 H   0  0  0  0  0  0
   50.9628   97.0902   27.4815 H   0  0  0  0  0  0
   52.0209   98.0570   29.4458 H   0  0  0  0  0  0
   49.8015  101.9030   25.2121 H   0  0  0  0  0  0
   49.2604   99.8775   23.9028 H   0  0  0  0  0  0
   55.2604   99.6023   33.3456 H   0  0  0  0  0  0
   55.2290   97.9027   30.9278 H   0  0  0  0  0  0
   56.0938   97.6591   32.4111 H   0  0  0  0  0  0
   54.4584   95.9167   32.3236 H   0  0  0  0  0  0
   53.9340   97.0204   33.5832 H   0  0  0  0  0  0
   52.1568   96.4162   32.1091 H   0  0  0  0  0  0
   52.4763   98.0253   31.9880 H   0  0  0  0  0  0
  1  2  2  0  0  0
  1  4  1  0  0  0
  1 24  1  0  0  0
  2  3  1  0  0  0
  2 25  1  0  0  0
  3  6  2  0  0  0
  3 26  1  0  0  0
  4  5  2  0  0  0
  4 27  1  0  0  0
  5  6  1  0  0  0
  5 10  1  0  0  0
  6  7  1  0  0  0
  7  8  2  0  0  0
  7 20  1  0  0  0
  8  9  1  0  0  0
  9 10  2  0  0  0
  9 11  1  0  0  0
 11 14  1  0  0  0
 11 12  2  0  0  0
 12 28  1  0  0  0
 12 16  1  0  0  0
 13 15  1  0  0  0
 13 29  1  0  0  0
 13 14  2  0  0  0
 14 30  1  0  0  0
 15 19  2  0  0  0
 15 16  1  0  0  0
 16 17  2  0  0  0
 17 18  1  0  0  0
 17 31  1  0  0  0
 18 32  1  0  0  0
 18 19  1  0  0  0
 20 21  1  0  0  0
 20 33  1  0  0  0
 21 22  1  0  0  0
 21 34  1  0  0  0
 21 35  1  0  0  0
 22 23  1  0  0  0
 22 36  1  0  0  0
 22 37  1  0  0  0
 23 38  1  0  0  0
 23 39  1  0  0  0
M  END
> <s_m_entry_id>
28174

> <s_m_entry_name>
dock_pv.335

> <s_m_Source_Path>
/home/csk/Desktop/cluster/DUD-E-result/rock1

> <s_m_Source_File>
dock_pv.maegz

> <i_m_Source_File_Index>
335

> <chembl_id>
CHEMBL3338842

> <chembl_pref_name>
None

> <i_lp_mmshare_version>
53161

> <r_lp_tautomer_probability>
0.0196074202274607

> <s_lp_Force_Field>
OPLS_2005

> <r_lp_Energy>
26.353005

> <b_lp_Chiralities_Consistent>
1

> <s_lp_Variant>
CHEMBL3231_lig480-2

> <s_i_glide_gridfile>
glide-grid_2etr

> <i_i_glide_lignum>
678

> <i_i_glide_rotatable_bonds>
4

> <r_i_docking_score>
-7.68661607455721

> <r_i_glide_ligand_efficiency>
-0.334200698893792

> <r_i_glide_ligand_efficiency_sa>
-0.950422331234023

> <r_i_glide_ligand_efficiency_ln>
-1.85869346520902

> <r_i_glide_gscore>
-7.68661607455721

> <r_i_glide_lipo>
-2.08848927514313

> <r_i_glide_hbond>
-0.608

> <r_i_glide_metal>
0

> <r_i_glide_rewards>
-2.65882424980503

> <r_i_glide_evdw>
-35.4671669006348

> <r_i_glide_ecoul>
-7.37220287322998

> <r_i_glide_erotb>
0.597253545325954

> <r_i_glide_esite>
-0.0493673189187802

> <r_i_glide_emodel>
-61.2435875770802

> <r_i_glide_energy>
-42.8393697738647

> <r_i_glide_einternal>
2.47859501838684

> <i_i_glide_confnum>
4

> <i_i_glide_posenum>
311

> <r_i_glide_eff_state_penalty>
0

> <s_user_duplicate_titles>
CHEMBL3231_lig480,CHEMBL3231_lig480

> <i_f3d_flags>
0

> <s_m_subgroup_title>
dock_pv

> <s_m_subgroupid>
dock_pv

> <b_m_subgroup_collapsed>
1

$$$$
CHEMBL3231_lig407
                    3D
 Schrodinger Suite 2021-1.
 52 55  0  0  1  0            999 V2000
   51.2737   99.8880   28.1322 C   0  0  0  0  0  0
   51.9398   99.0147   29.0020 C   0  0  0  0  0  0
   52.4879   99.4784   30.1981 C   0  0  0  0  0  0
   51.1229  101.2298   28.4868 C   0  0  0  0  0  0
   51.6443  101.6902   29.6982 C   0  0  0  0  0  0
   52.3380  100.8161   30.5396 C   0  0  0  0  0  0
   52.8424  101.3251   31.7360 N   0  0  0  0  0  0
   52.6111  102.6431   32.1046 C   0  0  0  0  0  0
   51.9575  103.4733   31.3703 N   0  0  0  0  0  0
   51.4470  103.1305   30.1168 C   0  0  0  0  0  0
   50.8379  103.9033   29.3797 O   0  0  0  0  0  0
   50.7282   99.4089   26.8375 C   0  0  0  0  0  0
   53.2110  103.1031   33.4725 C   0  0  1  0  0  0
   52.6103  104.3503   34.0055 N   0  0  0  0  0  0
   50.2876  100.1612   25.7554 C   0  0  0  0  0  0
   49.8877   99.2601   24.8117 N   0  0  0  0  0  0
   50.0429   97.9948   25.2110 N   0  0  0  0  0  0
   50.5416   98.0847   26.4159 C   0  0  0  0  0  0
   53.3471  102.0081   34.5521 C   0  0  0  0  0  0
   54.5983  101.7708   35.1360 C   0  0  0  0  0  0
   54.7534  100.7623   36.0833 C   0  0  0  0  0  0
   53.6581   99.9834   36.4492 C   0  0  0  0  0  0
   52.4106  100.2017   35.8702 C   0  0  0  0  0  0
   52.2570  101.2046   34.9177 C   0  0  0  0  0  0
   53.8471   98.7338   37.6235 Cl  0  0  0  0  0  0
   51.3410  104.5542   34.4117 C   0  0  0  0  0  0
   50.4593  103.6993   34.2979 O   0  0  0  0  0  0
   51.0512  105.9536   35.0062 C   0  0  0  0  0  0
   49.6277  106.3026   35.0103 N   0  0  0  0  0  0
   48.8654  105.6653   36.0874 C   0  0  0  0  0  0
   49.4264  107.7476   35.0851 C   0  0  0  0  0  0
   52.0433   97.9722   28.7454 H   0  0  0  0  0  0
   53.0137   98.7994   30.8524 H   0  0  0  0  0  0
   50.5932  101.9040   27.8271 H   0  0  0  0  0  0
   53.3710  100.7186   32.3428 H   0  0  0  0  0  0
   54.2271  103.4097   33.2197 H   0  0  0  0  0  0
   53.2377  105.1413   34.0641 H   0  0  0  0  0  0
   50.2231  101.2244   25.5753 H   0  0  0  0  0  0
   49.5029   99.5034   23.9043 H   0  0  0  0  0  0
   50.7667   97.1962   26.9869 H   0  0  0  0  0  0
   55.4609  102.3592   34.8574 H   0  0  0  0  0  0
   55.7230  100.5822   36.5262 H   0  0  0  0  0  0
   51.5667   99.5924   36.1562 H   0  0  0  0  0  0
   51.2883  101.3515   34.4632 H   0  0  0  0  0  0
   51.4820  106.0016   36.0080 H   0  0  0  0  0  0
   51.6114  106.6768   34.4110 H   0  0  0  0  0  0
   47.8042  105.9034   36.0077 H   0  0  0  0  0  0
   48.9457  104.5789   36.0528 H   0  0  0  0  0  0
   49.2150  105.9903   37.0687 H   0  0  0  0  0  0
   48.3651  107.9942   35.0565 H   0  0  0  0  0  0
   49.8481  108.1639   36.0022 H   0  0  0  0  0  0
   49.9020  108.2493   34.2402 H   0  0  0  0  0  0
  1  4  2  0  0  0
  1 12  1  0  0  0
  1  2  1  0  0  0
  2 32  1  0  0  0
  2  3  2  0  0  0
  3 33  1  0  0  0
  3  6  1  0  0  0
  4  5  1  0  0  0
  4 34  1  0  0  0
  5 10  1  0  0  0
  5  6  2  0  0  0
  6  7  1  0  0  0
  7 35  1  0  0  0
  7  8  1  0  0  0
  8 13  1  0  0  0
  8  9  2  0  0  0
  9 10  1  0  0  0
 10 11  2  0  0  0
 12 15  2  0  0  0
 12 18  1  0  0  0
 13 14  1  0  0  0
 13 19  1  0  0  0
 13 36  1  0  0  0
 14 26  1  0  0  0
 14 37  1  0  0  0
 15 16  1  0  0  0
 15 38  1  0  0  0
 16 17  1  0  0  0
 16 39  1  0  0  0
 17 18  2  0  0  0
 18 40  1  0  0  0
 19 20  2  0  0  0
 19 24  1  0  0  0
 20 21  1  0  0  0
 20 41  1  0  0  0
 21 22  2  0  0  0
 21 42  1  0  0  0
 22 23  1  0  0  0
 22 25  1  0  0  0
 23 24  2  0  0  0
 23 43  1  0  0  0
 24 44  1  0  0  0
 26 27  2  0  0  0
 26 28  1  0  0  0
 28 29  1  0  0  0
 28 45  1  0  0  0
 28 46  1  0  0  0
 29 30  1  0  0  0
 29 31  1  0  0  0
 30 47  1  0  0  0
 30 48  1  0  0  0
 30 49  1  0  0  0
 31 50  1  0  0  0
 31 51  1  0  0  0
 31 52  1  0  0  0
M  END
> <s_m_entry_id>
28175

> <s_m_entry_name>
dock_pv.336

> <s_m_Source_Path>
/home/csk/Desktop/cluster/DUD-E-result/rock1

> <s_m_Source_File>
dock_pv.maegz

> <i_m_Source_File_Index>
336

> <chembl_id>
CHEMBL2333882

> <chembl_pref_name>
None

> <i_lp_mmshare_version>
53161

> <r_lp_tautomer_probability>
0.0616002225126304

> <s_lp_Force_Field>
OPLS_2005

> <r_lp_Energy>
19.096284

> <b_lp_Chiralities_Consistent>
1

> <s_lp_Variant>
CHEMBL3231_lig407-4

> <s_i_glide_gridfile>
glide-grid_2etr

> <i_i_glide_lignum>
576

> <i_i_glide_rotatable_bonds>
7

> <r_i_docking_score>
-7.68176684980284

> <r_i_glide_ligand_efficiency>
-0.247798930638801

> <r_i_glide_ligand_efficiency_sa>
-0.778430765500967

> <r_i_glide_ligand_efficiency_ln>
-1.73247384251187

> <r_i_glide_gscore>
-7.68176684980284

> <r_i_glide_lipo>
-2.25108811465857

> <r_i_glide_hbond>
-0.661522041558531

> <r_i_glide_metal>
0

> <r_i_glide_rewards>
-1.39661548557181

> <r_i_glide_evdw>
-46.1624908447266

> <r_i_glide_ecoul>
-9.20759773254395

> <r_i_glide_erotb>
0.438683229705781

> <r_i_glide_esite>
-0.121960235601796

> <r_i_glide_emodel>
-81.3773516482

> <r_i_glide_energy>
-55.3700885772705

> <r_i_glide_einternal>
4.0093150138855

> <i_i_glide_confnum>
23

> <i_i_glide_posenum>
180

> <r_i_glide_eff_state_penalty>
0

> <s_user_duplicate_titles>
CHEMBL3231_lig407

> <i_f3d_flags>
0

> <s_m_subgroup_title>
dock_pv

> <s_m_subgroupid>
dock_pv

> <b_m_subgroup_collapsed>
1

$$$$
CHEMBL3231_lig672
                    3D
 Schrodinger Suite 2021-1.
 40 42  0  0  1  0            999 V2000
   51.2352   97.1032   30.4062 C   0  0  0  0  0  0
   51.2432   98.0444   29.3383 O   0  0  0  0  0  0
   51.5973   99.3595   29.5806 C   0  0  0  0  0  0
   52.0403   99.7979   30.8413 C   0  0  0  0  0  0
   52.3053  101.1469   31.1007 C   0  0  0  0  0  0
   52.1899  102.0625   30.0486 C   0  0  0  0  0  0
   51.7721  101.6387   28.7896 C   0  0  0  0  0  0
   51.4565  100.2972   28.5364 C   0  0  0  0  0  0
   50.9424   99.9369   27.1642 C   0  0  0  0  0  0
   50.4346  100.7847   26.1825 C   0  0  0  0  0  0
   50.0648   99.9924   25.1289 N   0  0  0  0  0  0
   50.3076   98.7010   25.3450 N   0  0  0  0  0  0
   50.8424   98.6732   26.5448 C   0  0  0  0  0  0
   52.6666  101.5797   32.5028 C   0  0  0  0  0  0
   53.2276  100.8067   33.2798 O   0  0  0  0  0  0
   52.2399  102.8038   32.8659 N   0  0  0  0  0  0
   52.2813  103.3571   34.2221 C   0  0  0  0  0  0
   50.9006  103.4173   34.8795 C   0  0  0  0  0  0
   50.2264  102.2362   35.2285 C   0  0  0  0  0  0
   50.7823  101.0257   34.9987 F   0  0  0  0  0  0
   48.9684  102.2931   35.8259 C   0  0  0  0  0  0
   48.3702  103.5234   36.0870 C   0  0  0  0  0  0
   49.0317  104.7024   35.7536 C   0  0  0  0  0  0
   48.4438  105.8940   36.0083 F   0  0  0  0  0  0
   50.2911  104.6525   35.1507 C   0  0  0  0  0  0
   50.9043  105.8108   34.8140 F   0  0  0  0  0  0
   50.8663   96.1509   30.0272 H   0  0  0  0  0  0
   52.2346   96.9363   30.8107 H   0  0  0  0  0  0
   50.5669   97.4143   31.2108 H   0  0  0  0  0  0
   52.1431   99.0935   31.6538 H   0  0  0  0  0  0
   52.4197  103.1086   30.1925 H   0  0  0  0  0  0
   51.6803  102.3779   28.0118 H   0  0  0  0  0  0
   50.2857  101.8541   26.1474 H   0  0  0  0  0  0
   49.6440  100.3194   24.2677 H   0  0  0  0  0  0
   51.1531   97.7332   26.9755 H   0  0  0  0  0  0
   51.8737  103.4023   32.1452 H   0  0  0  0  0  0
   52.7473  104.3431   34.1783 H   0  0  0  0  0  0
   52.9259  102.7599   34.8721 H   0  0  0  0  0  0
   48.4605  101.3781   36.0922 H   0  0  0  0  0  0
   47.3939  103.5627   36.5476 H   0  0  0  0  0  0
  1  2  1  0  0  0
  1 27  1  0  0  0
  1 28  1  0  0  0
  1 29  1  0  0  0
  2  3  1  0  0  0
  3  4  2  0  0  0
  3  8  1  0  0  0
  4  5  1  0  0  0
  4 30  1  0  0  0
  5  6  2  0  0  0
  5 14  1  0  0  0
  6  7  1  0  0  0
  6 31  1  0  0  0
  7  8  2  0  0  0
  7 32  1  0  0  0
  8  9  1  0  0  0
  9 10  2  0  0  0
  9 13  1  0  0  0
 10 11  1  0  0  0
 10 33  1  0  0  0
 11 12  1  0  0  0
 11 34  1  0  0  0
 12 13  2  0  0  0
 13 35  1  0  0  0
 14 15  2  0  0  0
 14 16  1  0  0  0
 16 17  1  0  0  0
 16 36  1  0  0  0
 17 18  1  0  0  0
 17 37  1  0  0  0
 17 38  1  0  0  0
 18 19  2  0  0  0
 18 25  1  0  0  0
 19 20  1  0  0  0
 19 21  1  0  0  0
 21 22  2  0  0  0
 21 39  1  0  0  0
 22 23  1  0  0  0
 22 40  1  0  0  0
 23 24  1  0  0  0
 23 25  2  0  0  0
 25 26  1  0  0  0
M  END
> <s_m_entry_id>
28176

> <s_m_entry_name>
dock_pv.337

> <s_m_Source_Path>
/home/csk/Desktop/cluster/DUD-E-result/rock1

> <s_m_Source_File>
dock_pv.maegz

> <i_m_Source_File_Index>
337

> <chembl_id>
CHEMBL3965554

> <chembl_pref_name>
None

> <i_lp_mmshare_version>
53161

> <r_lp_tautomer_probability>
0.5

> <s_lp_Force_Field>
OPLS_2005

> <r_lp_Energy>
21.339498

> <b_lp_Chiralities_Consistent>
1

> <s_lp_Variant>
CHEMBL3231_lig672-1

> <s_i_glide_gridfile>
glide-grid_2etr

> <i_i_glide_lignum>
963

> <i_i_glide_rotatable_bonds>
6

> <r_i_docking_score>
-7.67733627421591

> <r_i_glide_ligand_efficiency>
-0.295282164392919

> <r_i_glide_ligand_efficiency_sa>
-0.874772250134812

> <r_i_glide_ligand_efficiency_ln>
-1.80299723260459

> <r_i_glide_gscore>
-7.67733627421591

> <r_i_glide_lipo>
-2.60621110620249

> <r_i_glide_hbond>
-0.0177612873248056

> <r_i_glide_metal>
0

> <r_i_glide_rewards>
-3.04541331858362

> <r_i_glide_evdw>
-43.7119636535645

> <r_i_glide_ecoul>
-2.11578249931335

> <r_i_glide_erotb>
0.587944535574803

> <r_i_glide_esite>
-0.0929295401045623

> <r_i_glide_emodel>
-65.4984119365183

> <r_i_glide_energy>
-45.8277461528778

> <r_i_glide_einternal>
2.90524244308472

> <i_i_glide_confnum>
12

> <i_i_glide_posenum>
210

> <r_i_glide_eff_state_penalty>
0

> <s_user_duplicate_titles>
CHEMBL3231_lig672

> <i_f3d_flags>
0

> <s_m_subgroup_title>
dock_pv

> <s_m_subgroupid>
dock_pv

> <b_m_subgroup_collapsed>
1

$$$$
CHEMBL3231_lig899
                    3D
 Schrodinger Suite 2021-1.
 39 42  0  0  1  0            999 V2000
   53.4427  100.8290   32.1472 C   0  0  0  0  0  0
   54.8424  100.8424   32.8143 C   0  0  0  0  0  0
   55.4556   99.4306   32.9401 C   0  0  0  0  0  0
   54.5242   98.4746   33.7111 C   0  0  0  0  0  0
   53.0798   98.4853   33.1644 C   0  0  0  0  0  0
   52.5262   99.9248   33.0195 C   0  0  0  0  0  0
   53.5519  100.3077   30.7694 N   0  0  0  0  0  0
   52.9191  102.2213   32.1410 N   0  0  0  0  0  0
   52.0985  102.7766   31.2182 C   0  0  0  0  0  0
   52.5247  100.6595   29.9267 C   0  0  0  0  0  0
   51.8632  101.8638   30.1312 C   0  0  0  0  0  0
   50.7466  102.1794   28.8360 S   0  0  0  0  0  0
   51.1241  100.6600   28.0733 C   0  0  0  0  0  0
   52.0693   99.9597   28.8123 C   0  0  0  0  0  0
   51.6430  103.9029   31.3828 O   0  0  0  0  0  0
   50.5252  100.2678   26.8108 C   0  0  0  0  0  0
   50.0725  101.1031   25.8063 C   0  0  0  0  0  0
   49.6428  100.2785   24.8110 N   0  0  0  0  0  0
   49.7835   98.9885   25.1041 N   0  0  0  0  0  0
   50.2934   98.9697   26.3139 C   0  0  0  0  0  0
   50.5684   97.6448   26.9686 C   0  0  0  0  0  0
   55.5219  101.5124   32.2821 H   0  0  0  0  0  0
   54.7629  101.2433   33.8270 H   0  0  0  0  0  0
   55.6471   99.0237   31.9470 H   0  0  0  0  0  0
   56.4294   99.4851   33.4307 H   0  0  0  0  0  0
   54.9299   97.4620   33.6807 H   0  0  0  0  0  0
   54.5130   98.7613   34.7641 H   0  0  0  0  0  0
   53.0482   97.9755   32.2001 H   0  0  0  0  0  0
   52.4441   97.9030   33.8291 H   0  0  0  0  0  0
   52.4619  100.3421   34.0265 H   0  0  0  0  0  0
   51.5062   99.9112   32.6321 H   0  0  0  0  0  0
   54.0777   99.4503   30.6855 H   0  0  0  0  0  0
   53.0917  102.7868   32.9569 H   0  0  0  0  0  0
   52.4490   98.9933   28.5264 H   0  0  0  0  0  0
   50.0303  102.1777   25.7094 H   0  0  0  0  0  0
   49.2636  100.5766   23.9190 H   0  0  0  0  0  0
   50.1337   97.5970   27.9676 H   0  0  0  0  0  0
   50.1844   96.7922   26.4087 H   0  0  0  0  0  0
   51.6410   97.5034   27.0777 H   0  0  0  0  0  0
  1  2  1  0  0  0
  1  6  1  0  0  0
  1  7  1  0  0  0
  1  8  1  0  0  0
  2  3  1  0  0  0
  2 22  1  0  0  0
  2 23  1  0  0  0
  3  4  1  0  0  0
  3 24  1  0  0  0
  3 25  1  0  0  0
  4  5  1  0  0  0
  4 26  1  0  0  0
  4 27  1  0  0  0
  5  6  1  0  0  0
  5 28  1  0  0  0
  5 29  1  0  0  0
  6 30  1  0  0  0
  6 31  1  0  0  0
  7 10  1  0  0  0
  7 32  1  0  0  0
  8  9  1  0  0  0
  8 33  1  0  0  0
  9 11  1  0  0  0
  9 15  2  0  0  0
 10 11  2  0  0  0
 10 14  1  0  0  0
 11 12  1  0  0  0
 12 13  1  0  0  0
 13 14  2  0  0  0
 13 16  1  0  0  0
 14 34  1  0  0  0
 16 17  2  0  0  0
 16 20  1  0  0  0
 17 18  1  0  0  0
 17 35  1  0  0  0
 18 19  1  0  0  0
 18 36  1  0  0  0
 19 20  2  0  0  0
 20 21  1  0  0  0
 21 37  1  0  0  0
 21 38  1  0  0  0
 21 39  1  0  0  0
M  END
> <s_m_entry_id>
28178

> <s_m_entry_name>
dock_pv.339

> <s_m_Source_Path>
/home/csk/Desktop/cluster/DUD-E-result/rock1

> <s_m_Source_File>
dock_pv.maegz

> <i_m_Source_File_Index>
339

> <chembl_id>
CHEMBL4216005

> <chembl_pref_name>
None

> <i_lp_mmshare_version>
53161

> <r_lp_tautomer_probability>
0.499999092751646

> <s_lp_Force_Field>
OPLS_2005

> <r_lp_Energy>
25.28256

> <b_lp_Chiralities_Consistent>
1

> <s_lp_Variant>
CHEMBL3231_lig899-1

> <s_i_glide_gridfile>
glide-grid_2etr

> <i_i_glide_lignum>
1287

> <i_i_glide_rotatable_bonds>
1

> <r_i_docking_score>
-7.66899420747178

> <r_i_glide_ligand_efficiency>
-0.365190200355799

> <r_i_glide_ligand_efficiency_sa>
-1.0075320717166

> <r_i_glide_ligand_efficiency_ln>
-1.89614332113546

> <r_i_glide_gscore>
-7.66899420747178

> <r_i_glide_lipo>
-1.93560774722725

> <r_i_glide_hbond>
-0.447863988833982

> <r_i_glide_metal>
0

> <r_i_glide_rewards>
-2.58396925757576

> <r_i_glide_evdw>
-36.1068229675293

> <r_i_glide_ecoul>
-6.59425401687622

> <r_i_glide_erotb>
0.201343374507968

> <r_i_glide_esite>
-0.108417337434869

> <r_i_glide_emodel>
-62.73255413347

> <r_i_glide_energy>
-42.7010769844055

> <r_i_glide_einternal>
0.062141764909029

> <i_i_glide_confnum>
5

> <i_i_glide_posenum>
54

> <r_i_glide_eff_state_penalty>
0

> <s_user_duplicate_titles>
CHEMBL3231_lig899

> <i_f3d_flags>
0

> <s_m_subgroup_title>
dock_pv

> <s_m_subgroupid>
dock_pv

> <b_m_subgroup_collapsed>
1

$$$$
CHEMBL3231_lig800
                    3D
 Schrodinger Suite 2021-1.
 58 61  0  0  1  0            999 V2000
   51.8175   98.6710   29.2536 C   0  0  0  0  0  0
   51.6625  100.1764   29.1326 C   0  0  0  0  0  0
   52.2030  100.9485   30.1619 C   0  0  0  0  0  0
   52.0813  102.3406   30.1674 C   0  0  0  0  0  0
   51.3625  102.9618   29.1491 C   0  0  0  0  0  0
   50.8426  102.1998   28.1027 C   0  0  0  0  0  0
   51.0101  100.8043   28.0497 C   0  0  0  0  0  0
   50.5093  100.1034   26.8094 C   0  0  0  0  0  0
   49.9045  100.7014   25.7112 C   0  0  0  0  0  0
   49.6430   99.7167   24.8107 N   0  0  0  0  0  0
   50.0430   98.5177   25.2191 N   0  0  0  0  0  0
   50.5425   98.7457   26.4092 C   0  0  0  0  0  0
   52.6876  103.1506   31.2761 C   0  0  0  0  0  0
   51.9850  103.9029   31.9528 O   0  0  0  0  0  0
   53.9993  102.9365   31.4780 N   0  0  0  0  0  0
   54.7250  103.2524   32.7098 C   0  0  0  0  0  0
   54.5661  102.1912   33.8050 C   0  0  0  0  0  0
   54.6609  102.5487   35.1522 C   0  0  0  0  0  0
   54.4552  101.5938   36.1509 C   0  0  0  0  0  0
   54.1253  100.2786   35.8138 C   0  0  0  0  0  0
   54.0108   99.9039   34.4666 C   0  0  0  0  0  0
   54.2611  100.8630   33.4804 C   0  0  0  0  0  0
   53.5865   98.5178   34.0506 C   0  0  0  0  0  0
   52.8563   98.3560   33.0692 O   0  0  0  0  0  0
   54.0643   97.4996   34.7862 N   0  0  0  0  0  0
   53.8796   96.0845   34.4442 C   0  0  0  0  0  0
   54.7977   95.5830   33.3064 C   0  0  1  0  0  0
   56.2733   95.9965   33.4169 C   0  0  0  0  0  0
   57.0249   94.8227   32.7942 C   0  0  0  0  0  0
   55.9322   93.9128   32.2384 C   0  0  0  0  0  0
   54.7708   94.1479   33.0825 N   0  0  2  0  0  0
   50.8453   98.1789   29.1983 H   0  0  0  0  0  0
   52.4430   98.3026   28.4454 H   0  0  0  0  0  0
   52.2750   98.3683   30.1985 H   0  0  0  0  0  0
   52.7096  100.4511   30.9733 H   0  0  0  0  0  0
   51.2394  104.0354   29.1349 H   0  0  0  0  0  0
   50.3351  102.7311   27.3137 H   0  0  0  0  0  0
   49.6428  101.7244   25.4909 H   0  0  0  0  0  0
   49.2192   99.8658   23.8984 H   0  0  0  0  0  0
   50.9390   97.9077   26.9594 H   0  0  0  0  0  0
   54.5057  102.3841   30.7998 H   0  0  0  0  0  0
   54.4029  104.2262   33.0889 H   0  0  0  0  0  0
   55.7863  103.3444   32.4716 H   0  0  0  0  0  0
   54.8904  103.5666   35.4302 H   0  0  0  0  0  0
   54.5318  101.8773   37.1898 H   0  0  0  0  0  0
   53.9409   99.5660   36.6054 H   0  0  0  0  0  0
   54.2130  100.5686   32.4452 H   0  0  0  0  0  0
   54.7000   97.7079   35.5419 H   0  0  0  0  0  0
   52.8431   95.9106   34.1596 H   0  0  0  0  0  0
   54.0589   95.4893   35.3419 H   0  0  0  0  0  0
   54.3970   96.0606   32.4103 H   0  0  0  0  0  0
   56.5929   96.1822   34.4412 H   0  0  0  0  0  0
   56.4645   96.8858   32.8148 H   0  0  0  0  0  0
   57.6255   94.3030   33.5387 H   0  0  0  0  0  0
   57.7121   95.1366   32.0111 H   0  0  0  0  0  0
   56.2330   92.8682   32.3072 H   0  0  0  0  0  0
   55.7249   94.1434   31.1919 H   0  0  0  0  0  0
   53.8960   93.9023   32.6366 H   0  0  0  0  0  0
  1  2  1  0  0  0
  1 32  1  0  0  0
  1 33  1  0  0  0
  1 34  1  0  0  0
  2  3  2  0  0  0
  2  7  1  0  0  0
  3  4  1  0  0  0
  3 35  1  0  0  0
  4  5  2  0  0  0
  4 13  1  0  0  0
  5  6  1  0  0  0
  5 36  1  0  0  0
  6  7  2  0  0  0
  6 37  1  0  0  0
  7  8  1  0  0  0
  8  9  2  0  0  0
  8 12  1  0  0  0
  9 10  1  0  0  0
  9 38  1  0  0  0
 10 11  1  0  0  0
 10 39  1  0  0  0
 11 12  2  0  0  0
 12 40  1  0  0  0
 13 14  2  0  0  0
 13 15  1  0  0  0
 15 16  1  0  0  0
 15 41  1  0  0  0
 16 17  1  0  0  0
 16 42  1  0  0  0
 16 43  1  0  0  0
 17 18  2  0  0  0
 17 22  1  0  0  0
 18 19  1  0  0  0
 18 44  1  0  0  0
 19 20  2  0  0  0
 19 45  1  0  0  0
 20 21  1  0  0  0
 20 46  1  0  0  0
 21 22  2  0  0  0
 21 23  1  0  0  0
 22 47  1  0  0  0
 23 24  2  0  0  0
 23 25  1  0  0  0
 25 26  1  0  0  0
 25 48  1  0  0  0
 26 27  1  0  0  0
 26 49  1  0  0  0
 26 50  1  0  0  0
 27 28  1  0  0  0
 27 31  1  0  0  0
 27 51  1  0  0  0
 28 29  1  0  0  0
 28 52  1  0  0  0
 28 53  1  0  0  0
 29 30  1  0  0  0
 29 54  1  0  0  0
 29 55  1  0  0  0
 30 31  1  0  0  0
 30 56  1  0  0  0
 30 57  1  0  0  0
 31 58  1  0  0  0
M  END
> <s_m_entry_id>
28179

> <s_m_entry_name>
dock_pv.340

> <s_m_Source_Path>
/home/csk/Desktop/cluster/DUD-E-result/rock1

> <s_m_Source_File>
dock_pv.maegz

> <i_m_Source_File_Index>
340

> <chembl_id>
CHEMBL4107343

> <chembl_pref_name>
None

> <i_lp_mmshare_version>
53161

> <r_lp_tautomer_probability>
0.5

> <s_lp_Force_Field>
OPLS_2005

> <r_lp_Energy>
39.372674

> <b_lp_Chiralities_Consistent>
1

> <s_lp_Variant>
CHEMBL3231_lig800-1

> <s_i_glide_gridfile>
glide-grid_2etr

> <i_i_glide_lignum>
1128

> <i_i_glide_rotatable_bonds>
9

> <r_i_docking_score>
-7.66412424007757

> <r_i_glide_ligand_efficiency>
-0.247229814196051

> <r_i_glide_ligand_efficiency_sa>
-0.776642954120799

> <r_i_glide_ligand_efficiency_ln>
-1.72849489333777

> <r_i_glide_gscore>
-7.66412424007757

> <r_i_glide_lipo>
-2.23597927344013

> <r_i_glide_hbond>
-0.62798948757216

> <r_i_glide_metal>
0

> <r_i_glide_rewards>
-1.53532441066855

> <r_i_glide_evdw>
-48.2989120483398

> <r_i_glide_ecoul>
-9.13084983825684

> <r_i_glide_erotb>
0.63501025217253

> <r_i_glide_esite>
-0.115268242413744

> <r_i_glide_emodel>
-78.6563472522507

> <r_i_glide_energy>
-57.4297618865967

> <r_i_glide_einternal>
8.64203929901123

> <i_i_glide_confnum>
33

> <i_i_glide_posenum>
56

> <r_i_glide_eff_state_penalty>
0

> <s_user_duplicate_titles>
CHEMBL3231_lig800

> <i_f3d_flags>
0

> <s_m_subgroup_title>
dock_pv

> <s_m_subgroupid>
dock_pv

> <b_m_subgroup_collapsed>
1

$$$$
CHEMBL3231_lig895
                    3D
 Schrodinger Suite 2021-1.
 56 60  0  0  1  0            999 V2000
   54.5647   99.0358   35.0285 O   0  0  0  0  0  0
   54.4872   98.5161   33.7091 C   0  0  1  0  0  0
   54.9455   97.0289   33.6486 C   0  0  0  0  0  0
   53.5343  100.9471   32.1007 C   0  0  1  0  0  0
   52.5779  100.2368   33.0863 C   0  0  0  0  0  0
   52.9798   98.7769   33.3802 C   0  0  0  0  0  0
   55.4718   99.5040   33.0027 C   0  0  0  0  0  0
   54.9330  100.9274   32.7483 C   0  0  0  0  0  0
   53.5580  100.2869   30.7765 N   0  0  0  0  0  0
   53.1304  102.3626   31.9629 N   0  0  0  0  0  0
   52.1641  102.8169   31.1343 C   0  0  0  0  0  0
   52.5392  100.6424   29.9181 C   0  0  0  0  0  0
   51.9101  101.8719   30.0833 C   0  0  0  0  0  0
   50.7651  102.1667   28.8114 S   0  0  0  0  0  0
   51.1322  100.6400   28.0623 C   0  0  0  0  0  0
   52.0717   99.9330   28.8114 C   0  0  0  0  0  0
   51.6449  103.9031   31.3253 O   0  0  0  0  0  0
   50.5226  100.2614   26.7988 C   0  0  0  0  0  0
   50.0579  101.1024   25.8023 C   0  0  0  0  0  0
   49.6426  100.2834   24.7961 N   0  0  0  0  0  0
   49.7840   98.9918   25.0851 N   0  0  0  0  0  0
   50.2923   98.9671   26.2954 C   0  0  0  0  0  0
   50.5692   97.6449   26.9513 C   0  0  0  0  0  0
   54.0708   96.1157   34.5474 C   0  0  0  0  0  0
   54.6345   94.6916   34.6189 C   0  0  0  0  0  0
   54.7770   94.0755   33.2111 C   0  0  0  0  0  0
   55.5670   94.9907   32.2497 C   0  0  0  0  0  0
   54.9742   96.4131   32.2237 C   0  0  0  0  0  0
   55.4930   99.1481   35.2485 H   0  0  0  0  0  0
   55.9668   96.9849   34.0344 H   0  0  0  0  0  0
   52.5992  100.7635   34.0427 H   0  0  0  0  0  0
   51.5429  100.2927   32.7429 H   0  0  0  0  0  0
   52.3419   98.3753   34.1678 H   0  0  0  0  0  0
   52.7180   98.1838   32.5047 H   0  0  0  0  0  0
   56.4414   99.5388   33.5058 H   0  0  0  0  0  0
   55.7370   99.1017   32.0280 H   0  0  0  0  0  0
   55.6400  101.5064   32.1520 H   0  0  0  0  0  0
   54.8920  101.4241   33.7192 H   0  0  0  0  0  0
   54.0463   99.4020   30.7383 H   0  0  0  0  0  0
   53.3811  102.9935   32.7095 H   0  0  0  0  0  0
   52.4440   98.9609   28.5366 H   0  0  0  0  0  0
   50.0151  102.1778   25.7142 H   0  0  0  0  0  0
   49.2610  100.5841   23.9063 H   0  0  0  0  0  0
   50.1503   97.5984   27.9570 H   0  0  0  0  0  0
   50.1753   96.7906   26.3984 H   0  0  0  0  0  0
   51.6434   97.5029   27.0458 H   0  0  0  0  0  0
   54.0194   96.5232   35.5585 H   0  0  0  0  0  0
   53.0365   96.1063   34.1981 H   0  0  0  0  0  0
   55.6081   94.7031   35.1128 H   0  0  0  0  0  0
   53.9869   94.0656   35.2358 H   0  0  0  0  0  0
   55.2658   93.1047   33.2875 H   0  0  0  0  0  0
   53.7821   93.8921   32.8020 H   0  0  0  0  0  0
   56.6122   95.0374   32.5627 H   0  0  0  0  0  0
   55.5737   94.5671   31.2446 H   0  0  0  0  0  0
   53.9783   96.4168   31.7783 H   0  0  0  0  0  0
   55.5788   97.0200   31.5515 H   0  0  0  0  0  0
  1  2  1  0  0  0
  1 29  1  0  0  0
  2  3  1  0  0  0
  2  6  1  0  0  0
  2  7  1  0  0  0
  3 24  1  0  0  0
  3 28  1  0  0  0
  3 30  1  0  0  0
  4  5  1  0  0  0
  4  8  1  0  0  0
  4  9  1  0  0  0
  4 10  1  0  0  0
  5  6  1  0  0  0
  5 31  1  0  0  0
  5 32  1  0  0  0
  6 33  1  0  0  0
  6 34  1  0  0  0
  7  8  1  0  0  0
  7 35  1  0  0  0
  7 36  1  0  0  0
  8 37  1  0  0  0
  8 38  1  0  0  0
  9 12  1  0  0  0
  9 39  1  0  0  0
 10 11  1  0  0  0
 10 40  1  0  0  0
 11 13  1  0  0  0
 11 17  2  0  0  0
 12 13  2  0  0  0
 12 16  1  0  0  0
 13 14  1  0  0  0
 14 15  1  0  0  0
 15 16  2  0  0  0
 15 18  1  0  0  0
 16 41  1  0  0  0
 18 19  2  0  0  0
 18 22  1  0  0  0
 19 20  1  0  0  0
 19 42  1  0  0  0
 20 21  1  0  0  0
 20 43  1  0  0  0
 21 22  2  0  0  0
 22 23  1  0  0  0
 23 44  1  0  0  0
 23 45  1  0  0  0
 23 46  1  0  0  0
 24 25  1  0  0  0
 24 47  1  0  0  0
 24 48  1  0  0  0
 25 26  1  0  0  0
 25 49  1  0  0  0
 25 50  1  0  0  0
 26 27  1  0  0  0
 26 51  1  0  0  0
 26 52  1  0  0  0
 27 28  1  0  0  0
 27 53  1  0  0  0
 27 54  1  0  0  0
 28 55  1  0  0  0
 28 56  1  0  0  0
M  END
> <s_m_entry_id>
28180

> <s_m_entry_name>
dock_pv.341

> <s_m_Source_Path>
/home/csk/Desktop/cluster/DUD-E-result/rock1

> <s_m_Source_File>
dock_pv.maegz

> <i_m_Source_File_Index>
341

> <chembl_id>
CHEMBL4209416

> <chembl_pref_name>
None

> <i_lp_mmshare_version>
53161

> <r_lp_tautomer_probability>
0.499999092751646

> <s_lp_Force_Field>
OPLS_2005

> <r_lp_Energy>
39.030033

> <b_lp_Chiralities_Consistent>
1

> <s_lp_Variant>
CHEMBL3231_lig895-1

> <s_i_glide_gridfile>
glide-grid_2etr

> <i_i_glide_lignum>
1279

> <i_i_glide_rotatable_bonds>
3

> <r_i_docking_score>
-7.66248567176288

> <r_i_glide_ligand_efficiency>
-0.27366020256296

> <r_i_glide_ligand_efficiency_sa>
-0.830993552220931

> <r_i_glide_ligand_efficiency_ln>
-1.7687266733982

> <r_i_glide_gscore>
-7.66248567176288

> <r_i_glide_lipo>
-2.03673723377899

> <r_i_glide_hbond>
-0.444908645190188

> <r_i_glide_metal>
0

> <r_i_glide_rewards>
-1.91481243939394

> <r_i_glide_evdw>
-46.8862152099609

> <r_i_glide_ecoul>
-7.0078911781311

> <r_i_glide_erotb>
0.244407253615978

> <r_i_glide_esite>
-0.11494016979804

> <r_i_glide_emodel>
-79.0554615187707

> <r_i_glide_energy>
-53.894106388092

> <r_i_glide_einternal>
0.527122378349304

> <i_i_glide_confnum>
11

> <i_i_glide_posenum>
140

> <r_i_glide_eff_state_penalty>
0

> <s_user_duplicate_titles>
CHEMBL3231_lig895

> <i_f3d_flags>
0

> <s_m_subgroup_title>
dock_pv

> <s_m_subgroupid>
dock_pv

> <b_m_subgroup_collapsed>
1

$$$$
CHEMBL3231_lig1451
                    3D
 Schrodinger Suite 2021-1.
 39 42  0  0  1  0            999 V2000
   52.7079  102.0171   30.2807 O   0  0  0  0  0  0
   52.6790  100.7189   34.3586 O   0  0  0  0  0  0
   52.8430   97.1030   31.7883 O   0  0  0  0  0  0
   54.1624   99.2763   33.3740 N   0  0  0  0  0  0
   53.2578  101.9130   31.5616 N   0  0  0  0  0  0
   49.9384  100.0028   24.8911 N   0  0  0  0  0  0
   50.0336   98.6668   24.8111 N   0  0  0  0  0  0
   51.9792  100.9005   30.0261 C   0  0  0  0  0  0
   52.8271  100.7717   32.0601 C   0  0  0  0  0  0
   51.3707  100.7437   28.6817 C   0  0  0  0  0  0
   53.2118  100.2550   33.3468 C   0  0  0  0  0  0
   52.0192  100.1010   31.1418 C   0  0  0  0  0  0
   50.7389   99.3180   26.8485 C   0  0  0  0  0  0
   50.3566  100.4705   26.1200 C   0  0  0  0  0  0
   51.2444   99.4585   28.1462 C   0  0  0  0  0  0
   50.9574  101.8614   27.9537 C   0  0  0  0  0  0
   50.4434  101.7551   26.6586 C   0  0  0  0  0  0
   50.4793   98.2368   25.9609 C   0  0  0  0  0  0
   54.7342   98.6046   32.1815 C   0  0  0  0  0  0
   54.5745   98.6786   34.6552 C   0  0  0  0  0  0
   54.2174   97.1381   32.1307 C   0  0  1  0  0  0
   53.9822   97.2525   34.6894 C   0  0  0  0  0  0
   54.4458   96.4140   33.4784 C   0  0  0  0  0  0
   52.4817   96.2332   32.0108 H   0  0  0  0  0  0
   49.5887  100.5320   24.1030 H   0  0  0  0  0  0
   51.5411   99.1419   31.2664 H   0  0  0  0  0  0
   51.5606   98.5907   28.7074 H   0  0  0  0  0  0
   51.0600  102.8424   28.3970 H   0  0  0  0  0  0
   50.1544  102.6279   26.0936 H   0  0  0  0  0  0
   50.6351   97.1832   26.1401 H   0  0  0  0  0  0
   55.8221   98.6002   32.2673 H   0  0  0  0  0  0
   54.5718   99.1510   31.2524 H   0  0  0  0  0  0
   54.3295   99.2945   35.5223 H   0  0  0  0  0  0
   55.6651   98.6325   34.6518 H   0  0  0  0  0  0
   54.7550   96.5956   31.3514 H   0  0  0  0  0  0
   52.8934   97.3104   34.7193 H   0  0  0  0  0  0
   54.2806   96.7569   35.6136 H   0  0  0  0  0  0
   53.9414   95.4460   33.4838 H   0  0  0  0  0  0
   55.5094   96.1918   33.5809 H   0  0  0  0  0  0
  1  5  1  0  0  0
  1  8  1  0  0  0
  2 11  2  0  0  0
  3 21  1  0  0  0
  3 24  1  0  0  0
  4 11  1  0  0  0
  4 19  1  0  0  0
  4 20  1  0  0  0
  5  9  2  0  0  0
  6  7  1  0  0  0
  6 14  1  0  0  0
  6 25  1  0  0  0
  7 18  2  0  0  0
  8 10  1  0  0  0
  8 12  2  0  0  0
  9 11  1  0  0  0
  9 12  1  0  0  0
 10 15  1  0  0  0
 10 16  2  0  0  0
 12 26  1  0  0  0
 13 14  1  0  0  0
 13 15  2  0  0  0
 13 18  1  0  0  0
 14 17  2  0  0  0
 15 27  1  0  0  0
 16 17  1  0  0  0
 16 28  1  0  0  0
 17 29  1  0  0  0
 18 30  1  0  0  0
 19 21  1  0  0  0
 19 31  1  0  0  0
 19 32  1  0  0  0
 20 22  1  0  0  0
 20 33  1  0  0  0
 20 34  1  0  0  0
 21 23  1  0  0  0
 21 35  1  0  0  0
 22 23  1  0  0  0
 22 36  1  0  0  0
 22 37  1  0  0  0
 23 38  1  0  0  0
 23 39  1  0  0  0
M  END
> <s_m_entry_id>
28182

> <s_m_entry_name>
dock_pv.343

> <s_m_Source_Path>
/home/csk/Desktop/cluster/DUD-E-result/rock1

> <s_m_Source_File>
dock_pv.maegz

> <i_m_Source_File_Index>
343

> <chembl_id>
CHEMBL1997340

> <chembl_pref_name>
None

> <i_lp_mmshare_version>
53161

> <r_lp_tautomer_probability>
0.980392156862745

> <s_lp_Force_Field>
OPLS_2005

> <r_lp_Energy>
32.990028

> <b_lp_Chiralities_Consistent>
1

> <s_lp_Variant>
CHEMBL3231_lig1451-2

> <s_i_glide_gridfile>
glide-grid_2etr

> <i_i_glide_lignum>
2039

> <i_i_glide_rotatable_bonds>
4

> <r_i_docking_score>
-7.65911361214462

> <r_i_glide_ligand_efficiency>
-0.333004939658462

> <r_i_glide_ligand_efficiency_sa>
-0.947021751032369

> <r_i_glide_ligand_efficiency_ln>
-1.85204312041911

> <r_i_glide_gscore>
-7.65911361214462

> <r_i_glide_lipo>
-2.00083310323978

> <r_i_glide_hbond>
-0.58794790573046

> <r_i_glide_metal>
0

> <r_i_glide_rewards>
-2.47953465976598

> <r_i_glide_evdw>
-36.0672302246094

> <r_i_glide_ecoul>
-7.36465120315552

> <r_i_glide_erotb>
0.399524359473748

> <r_i_glide_esite>
-0.0822631111783575

> <r_i_glide_emodel>
-62.3369685511392

> <r_i_glide_energy>
-43.4318814277649

> <r_i_glide_einternal>
5.41615724563599

> <i_i_glide_confnum>
22

> <i_i_glide_posenum>
169

> <r_i_glide_eff_state_penalty>
0

> <s_user_duplicate_titles>
CHEMBL3231_lig1451,CHEMBL3231_lig1451

> <i_f3d_flags>
0

> <s_m_subgroup_title>
dock_pv

> <s_m_subgroupid>
dock_pv

> <b_m_subgroup_collapsed>
1

$$$$
CHEMBL3231_lig1627
                    3D
 Schrodinger Suite 2021-1.
 42 44  0  0  1  0            999 V2000
   51.3138  101.8493   29.1165 S   0  0  0  0  0  0
   51.6430  103.9030   31.2591 O   0  0  0  0  0  0
   49.4951  106.7007   35.5129 O   0  0  0  0  0  0
   53.0151  102.7063   32.6045 N   0  0  0  0  0  0
   50.0430   98.3032   25.2109 N   0  0  0  0  0  0
   52.2817  101.7694   30.5660 C   0  0  0  0  0  0
   51.7287  100.2167   28.6769 C   0  0  0  0  0  0
   52.2998  102.8867   31.4785 C   0  0  0  0  0  0
   51.1343   99.5846   27.4611 C   0  0  0  0  0  0
   52.9293  100.5384   30.6598 C   0  0  0  0  0  0
   52.6083   99.6717   29.6114 C   0  0  0  0  0  0
   53.0604  103.6571   33.7254 C   0  0  1  0  0  0
   51.7020  103.8974   34.4080 C   0  0  0  0  0  0
   50.9871   98.1926   27.4273 C   0  0  0  0  0  0
   50.7140  100.3265   26.3459 C   0  0  0  0  0  0
   51.2690  105.2020   34.6762 C   0  0  0  0  0  0
   50.0136  105.4446   35.2614 C   0  0  0  0  0  0
   50.8683  102.8242   34.7473 C   0  0  0  0  0  0
   50.4432   97.5941   26.2925 C   0  0  0  0  0  0
   50.1756   99.6526   25.2482 C   0  0  0  0  0  0
   49.2109  104.3555   35.6057 C   0  0  0  0  0  0
   49.6321  103.0507   35.3513 C   0  0  0  0  0  0
   54.1173  103.2125   34.7491 C   0  0  0  0  0  0
   50.2565  107.8498   35.1527 C   0  0  0  0  0  0
   53.7681  102.0370   32.5671 H   0  0  0  0  0  0
   53.5939  100.2593   31.4646 H   0  0  0  0  0  0
   53.0096   98.6716   29.5402 H   0  0  0  0  0  0
   53.4062  104.6082   33.3081 H   0  0  0  0  0  0
   51.2833   97.5770   28.2637 H   0  0  0  0  0  0
   50.8071  101.4026   26.3202 H   0  0  0  0  0  0
   51.9165  106.0248   34.4107 H   0  0  0  0  0  0
   51.1823  101.8104   34.5457 H   0  0  0  0  0  0
   50.3303   96.5217   26.2386 H   0  0  0  0  0  0
   49.8422  100.1933   24.3730 H   0  0  0  0  0  0
   48.2459  104.5242   36.0610 H   0  0  0  0  0  0
   48.9981  102.2170   35.6164 H   0  0  0  0  0  0
   54.2288  103.9505   35.5438 H   0  0  0  0  0  0
   53.8518  102.2616   35.2128 H   0  0  0  0  0  0
   55.0952  103.0889   34.2812 H   0  0  0  0  0  0
   49.6990  108.7488   35.4181 H   0  0  0  0  0  0
   51.2079  107.8841   35.6861 H   0  0  0  0  0  0
   50.4481  107.8858   34.0788 H   0  0  0  0  0  0
  1  6  1  0  0  0
  1  7  1  0  0  0
  2  8  2  0  0  0
  3 17  1  0  0  0
  3 24  1  0  0  0
  4  8  1  0  0  0
  4 12  1  0  0  0
  4 25  1  0  0  0
  5 19  2  0  0  0
  5 20  1  0  0  0
  6  8  1  0  0  0
  6 10  2  0  0  0
  7  9  1  0  0  0
  7 11  2  0  0  0
  9 14  2  0  0  0
  9 15  1  0  0  0
 10 11  1  0  0  0
 10 26  1  0  0  0
 11 27  1  0  0  0
 12 13  1  0  0  0
 12 23  1  0  0  0
 12 28  1  0  0  0
 13 16  2  0  0  0
 13 18  1  0  0  0
 14 19  1  0  0  0
 14 29  1  0  0  0
 15 20  2  0  0  0
 15 30  1  0  0  0
 16 17  1  0  0  0
 16 31  1  0  0  0
 17 21  2  0  0  0
 18 22  2  0  0  0
 18 32  1  0  0  0
 19 33  1  0  0  0
 20 34  1  0  0  0
 21 22  1  0  0  0
 21 35  1  0  0  0
 22 36  1  0  0  0
 23 37  1  0  0  0
 23 38  1  0  0  0
 23 39  1  0  0  0
 24 40  1  0  0  0
 24 41  1  0  0  0
 24 42  1  0  0  0
M  END
> <s_m_entry_id>
28183

> <s_m_entry_name>
dock_pv.344

> <s_m_Source_Path>
/home/csk/Desktop/cluster/DUD-E-result/rock1

> <s_m_Source_File>
dock_pv.maegz

> <i_m_Source_File_Index>
344

> <chembl_id>
CHEMBL1994724

> <chembl_pref_name>
None

> <i_lp_mmshare_version>
53161

> <r_lp_tautomer_probability>
1

> <s_lp_Force_Field>
OPLS_2005

> <r_lp_Energy>
12.940502

> <b_lp_Chiralities_Consistent>
1

> <s_lp_Variant>
CHEMBL3231_lig1627-2

> <s_i_glide_gridfile>
glide-grid_2etr

> <i_i_glide_lignum>
2320

> <i_i_glide_rotatable_bonds>
6

> <r_i_docking_score>
-7.64954622242641

> <r_i_glide_ligand_efficiency>
-0.3187310926011

> <r_i_glide_ligand_efficiency_sa>
-0.91937956172115

> <r_i_glide_ligand_efficiency_ln>
-1.83088742583036

> <r_i_glide_gscore>
-7.64954622242641

> <r_i_glide_lipo>
-2.34870744552342

> <r_i_glide_hbond>
-0.396017142872728

> <r_i_glide_metal>
0

> <r_i_glide_rewards>
-2.46678395609132

> <r_i_glide_evdw>
-39.6798286437988

> <r_i_glide_ecoul>
-8.10788631439209

> <r_i_glide_erotb>
0.825618962875588

> <r_i_glide_esite>
-0.0634822614657676

> <r_i_glide_emodel>
-70.2598804179478

> <r_i_glide_energy>
-47.7877149581909

> <r_i_glide_einternal>
2.71628427505493

> <i_i_glide_confnum>
59

> <i_i_glide_posenum>
340

> <r_i_glide_eff_state_penalty>
0

> <s_user_duplicate_titles>
CHEMBL3231_lig1627

> <i_f3d_flags>
0

> <s_m_subgroup_title>
dock_pv

> <s_m_subgroupid>
dock_pv

> <b_m_subgroup_collapsed>
1

$$$$
CHEMBL3231_lig707
                    3D
 Schrodinger Suite 2021-1.
 57 60  0  0  1  0            999 V2000
   51.4395   97.4981   30.4050 C   0  0  0  0  0  0
   51.2885   98.2947   29.2310 O   0  0  0  0  0  0
   51.4025   99.6721   29.3008 C   0  0  0  0  0  0
   51.8158  100.3363   30.4705 C   0  0  0  0  0  0
   51.8454  101.7368   30.5469 C   0  0  0  0  0  0
   51.4830  102.4752   29.4192 C   0  0  0  0  0  0
   51.0994  101.8318   28.2492 C   0  0  0  0  0  0
   51.0519  100.4343   28.1664 C   0  0  0  0  0  0
   50.5867   99.8400   26.8611 C   0  0  0  0  0  0
   50.0925  100.5184   25.7516 C   0  0  0  0  0  0
   49.8036   99.5747   24.8105 N   0  0  0  0  0  0
   50.0446   98.3330   25.2272 N   0  0  0  0  0  0
   50.5289   98.4939   26.4375 C   0  0  0  0  0  0
   52.2023  102.4529   31.8251 C   0  0  0  0  0  0
   51.6436  103.5118   32.1187 O   0  0  0  0  0  0
   53.1414  101.8647   32.5859 N   0  0  0  0  0  0
   53.6728  102.3685   33.8580 C   0  0  0  0  0  0
   53.0256  101.7335   35.1293 C   0  0  1  0  0  0
   53.6320  102.1477   36.4184 N   0  0  0  0  0  0
   53.2291  101.2118   37.4910 C   0  0  0  0  0  0
   53.7413  101.6879   38.8711 C   0  0  0  0  0  0
   55.1987  101.7770   38.8824 N   0  0  0  0  0  0
   55.6376  102.6664   37.8060 C   0  0  0  0  0  0
   55.1071  102.1966   36.4280 C   0  0  0  0  0  0
   51.5099  101.9764   35.1733 C   0  0  0  0  0  0
   51.0029  103.2767   35.2840 C   0  0  0  0  0  0
   49.6292  103.4878   35.3489 C   0  0  0  0  0  0
   48.7621  102.3987   35.3086 C   0  0  0  0  0  0
   49.2601  101.1031   35.2119 C   0  0  0  0  0  0
   50.6322  100.8903   35.1374 C   0  0  0  0  0  0
   51.2411   96.4560   30.1555 H   0  0  0  0  0  0
   52.4546   97.5536   30.8027 H   0  0  0  0  0  0
   50.7285   97.7877   31.1801 H   0  0  0  0  0  0
   52.0771   99.7644   31.3473 H   0  0  0  0  0  0
   51.4987  103.5561   29.4401 H   0  0  0  0  0  0
   50.8294  102.4465   27.4058 H   0  0  0  0  0  0
   49.9175  101.5649   25.5521 H   0  0  0  0  0  0
   49.4107   99.7708   23.8941 H   0  0  0  0  0  0
   50.8306   97.6303   27.0117 H   0  0  0  0  0  0
   53.6089  101.0594   32.1985 H   0  0  0  0  0  0
   53.6148  103.4582   33.9088 H   0  0  0  0  0  0
   54.7396  102.1480   33.8269 H   0  0  0  0  0  0
   53.2013  100.6602   35.0336 H   0  0  0  0  0  0
   52.1441  101.1205   37.5374 H   0  0  0  0  0  0
   53.6066  100.2082   37.2856 H   0  0  0  0  0  0
   53.4227  100.9986   39.6552 H   0  0  0  0  0  0
   53.3044  102.6543   39.1238 H   0  0  0  0  0  0
   55.5322  102.1081   39.7774 H   0  0  0  0  0  0
   56.7270  102.7017   37.8044 H   0  0  0  0  0  0
   55.3086  103.6854   38.0151 H   0  0  0  0  0  0
   55.5322  101.2276   36.1594 H   0  0  0  0  0  0
   55.4608  102.9173   35.6917 H   0  0  0  0  0  0
   51.6788  104.1187   35.3240 H   0  0  0  0  0  0
   49.2420  104.4915   35.4435 H   0  0  0  0  0  0
   47.6954  102.5580   35.3655 H   0  0  0  0  0  0
   48.5826  100.2641   35.1898 H   0  0  0  0  0  0
   51.0125   99.8834   35.0656 H   0  0  0  0  0  0
  1  2  1  0  0  0
  1 31  1  0  0  0
  1 32  1  0  0  0
  1 33  1  0  0  0
  2  3  1  0  0  0
  3  4  2  0  0  0
  3  8  1  0  0  0
  4  5  1  0  0  0
  4 34  1  0  0  0
  5  6  2  0  0  0
  5 14  1  0  0  0
  6  7  1  0  0  0
  6 35  1  0  0  0
  7  8  2  0  0  0
  7 36  1  0  0  0
  8  9  1  0  0  0
  9 10  2  0  0  0
  9 13  1  0  0  0
 10 11  1  0  0  0
 10 37  1  0  0  0
 11 12  1  0  0  0
 11 38  1  0  0  0
 12 13  2  0  0  0
 13 39  1  0  0  0
 14 15  2  0  0  0
 14 16  1  0  0  0
 16 17  1  0  0  0
 16 40  1  0  0  0
 17 18  1  0  0  0
 17 41  1  0  0  0
 17 42  1  0  0  0
 18 19  1  0  0  0
 18 25  1  0  0  0
 18 43  1  0  0  0
 19 20  1  0  0  0
 19 24  1  0  0  0
 20 21  1  0  0  0
 20 44  1  0  0  0
 20 45  1  0  0  0
 21 22  1  0  0  0
 21 46  1  0  0  0
 21 47  1  0  0  0
 22 23  1  0  0  0
 22 48  1  0  0  0
 23 24  1  0  0  0
 23 49  1  0  0  0
 23 50  1  0  0  0
 24 51  1  0  0  0
 24 52  1  0  0  0
 25 26  2  0  0  0
 25 30  1  0  0  0
 26 27  1  0  0  0
 26 53  1  0  0  0
 27 28  2  0  0  0
 27 54  1  0  0  0
 28 29  1  0  0  0
 28 55  1  0  0  0
 29 30  2  0  0  0
 29 56  1  0  0  0
 30 57  1  0  0  0
M  END
> <s_m_entry_id>
28184

> <s_m_entry_name>
dock_pv.345

> <s_m_Source_Path>
/home/csk/Desktop/cluster/DUD-E-result/rock1

> <s_m_Source_File>
dock_pv.maegz

> <i_m_Source_File_Index>
345

> <chembl_id>
CHEMBL3919291

> <chembl_pref_name>
None

> <i_lp_mmshare_version>
53161

> <r_lp_tautomer_probability>
0.5

> <s_lp_Force_Field>
OPLS_2005

> <r_lp_Energy>
47.910785

> <b_lp_Chiralities_Consistent>
1

> <s_lp_Variant>
CHEMBL3231_lig707-2

> <s_i_glide_gridfile>
glide-grid_2etr

> <i_i_glide_lignum>
1006

> <i_i_glide_rotatable_bonds>
8

> <r_i_docking_score>
-7.64916247135214

> <r_i_glide_ligand_efficiency>
-0.254972082378405

> <r_i_glide_ligand_efficiency_sa>
-0.792257541578716

> <r_i_glide_ligand_efficiency_ln>
-1.73797305779169

> <r_i_glide_gscore>
-7.64916247135214

> <r_i_glide_lipo>
-2.9066120808673

> <r_i_glide_hbond>
-0.590635375682225

> <r_i_glide_metal>
0

> <r_i_glide_rewards>
-1.59031886646399

> <r_i_glide_evdw>
-44.7349128723145

> <r_i_glide_ecoul>
-5.77123069763184

> <r_i_glide_erotb>
0.585684973384151

> <r_i_glide_esite>
-0.0448508734622844

> <r_i_glide_emodel>
-63.9494186145303

> <r_i_glide_energy>
-50.5061435699463

> <r_i_glide_einternal>
21.0642566680908

> <i_i_glide_confnum>
33

> <i_i_glide_posenum>
367

> <r_i_glide_eff_state_penalty>
0

> <s_user_duplicate_titles>
CHEMBL3231_lig707

> <i_f3d_flags>
0

> <s_m_subgroup_title>
dock_pv

> <s_m_subgroupid>
dock_pv

> <b_m_subgroup_collapsed>
1

$$$$
CHEMBL3231_lig267
                    3D
 Schrodinger Suite 2021-1.
 33 35  0  0  1  0            999 V2000
   50.0428   98.4030   25.2110 N   0  0  0  0  0  0
   50.2743   99.7182   24.9872 C   0  0  0  0  0  0
   50.8420  100.5697   25.9340 C   0  0  0  0  0  0
   50.3683   97.9037   26.4221 C   0  0  0  0  0  0
   50.9297   98.6663   27.4695 C   0  0  0  0  0  0
   51.1830  100.0451   27.2080 C   0  0  0  0  0  0
   51.7647  100.8381   28.2229 C   0  0  0  0  0  0
   52.0803  100.2831   29.4735 C   0  0  0  0  0  0
   51.8082   98.9394   29.7143 C   0  0  0  0  0  0
   51.2430   98.1312   28.7372 C   0  0  0  0  0  0
   52.6521  100.9746   30.5203 O   0  0  0  0  0  0
   53.0275  102.3419   30.3568 C   0  0  1  0  0  0
   51.7927  103.2682   30.4679 C   0  0  0  0  0  0
   51.1445  103.1026   31.7707 N   0  0  2  0  0  0
   52.0420  103.5993   32.8191 C   0  0  0  0  0  0
   53.3375  102.7600   32.8497 C   0  0  0  0  0  0
   54.0261  102.7054   31.4707 C   0  0  0  0  0  0
   49.9974  100.0904   24.0116 H   0  0  0  0  0  0
   51.0209  101.6110   25.7100 H   0  0  0  0  0  0
   50.1716   96.8517   26.5715 H   0  0  0  0  0  0
   51.9615  101.8750   27.9939 H   0  0  0  0  0  0
   52.0485   98.5167   30.6782 H   0  0  0  0  0  0
   51.0426   97.0915   28.9447 H   0  0  0  0  0  0
   53.5305  102.4970   29.3999 H   0  0  0  0  0  0
   52.0862  104.3019   30.3071 H   0  0  0  0  0  0
   51.0615  103.0359   29.6937 H   0  0  0  0  0  0
   51.0961  102.1003   31.9101 H   0  0  0  0  0  0
   51.5293  103.5353   33.7804 H   0  0  0  0  0  0
   52.2746  104.6533   32.6501 H   0  0  0  0  0  0
   53.1230  101.7570   33.2195 H   0  0  0  0  0  0
   54.0287  103.1873   33.5781 H   0  0  0  0  0  0
   54.8484  101.9945   31.4770 H   0  0  0  0  0  0
   54.4495  103.6904   31.2615 H   0  0  0  0  0  0
  1  4  1  0  0  0
  1  2  2  0  0  0
  2  3  1  0  0  0
  2 18  1  0  0  0
  3  6  2  0  0  0
  3 19  1  0  0  0
  4  5  2  0  0  0
  4 20  1  0  0  0
  5 10  1  0  0  0
  5  6  1  0  0  0
  6  7  1  0  0  0
  7  8  2  0  0  0
  7 21  1  0  0  0
  8  9  1  0  0  0
  8 11  1  0  0  0
  9 10  2  0  0  0
  9 22  1  0  0  0
 10 23  1  0  0  0
 11 12  1  0  0  0
 12 13  1  0  0  0
 12 17  1  0  0  0
 12 24  1  0  0  0
 13 14  1  0  0  0
 13 25  1  0  0  0
 13 26  1  0  0  0
 14 15  1  0  0  0
 14 27  1  0  0  0
 15 16  1  0  0  0
 15 28  1  0  0  0
 15 29  1  0  0  0
 16 17  1  0  0  0
 16 30  1  0  0  0
 16 31  1  0  0  0
 17 32  1  0  0  0
 17 33  1  0  0  0
M  END
> <s_m_entry_id>
28185

> <s_m_entry_name>
dock_pv.346

> <s_m_Source_Path>
/home/csk/Desktop/cluster/DUD-E-result/rock1

> <s_m_Source_File>
dock_pv.maegz

> <i_m_Source_File_Index>
346

> <chembl_id>
CHEMBL1667964

> <chembl_pref_name>
None

> <i_lp_mmshare_version>
53161

> <r_lp_tautomer_probability>
1

> <s_lp_Force_Field>
OPLS_2005

> <r_lp_Energy>
22.714264

> <b_lp_Chiralities_Consistent>
1

> <s_lp_Variant>
CHEMBL3231_lig267-2

> <s_i_glide_gridfile>
glide-grid_2etr

> <i_i_glide_lignum>
413

> <i_i_glide_rotatable_bonds>
2

> <r_i_docking_score>
-7.64539600535835

> <r_i_glide_ligand_efficiency>
-0.449729176785785

> <r_i_glide_ligand_efficiency_sa>
-1.15638035195908

> <r_i_glide_ligand_efficiency_ln>
-1.99451356319974

> <r_i_glide_gscore>
-7.64539600535835

> <r_i_glide_lipo>
-2.36685866198094

> <r_i_glide_hbond>
-0.328001506978587

> <r_i_glide_metal>
0

> <r_i_glide_rewards>
-3.2477558753654

> <r_i_glide_evdw>
-30.7649898529053

> <r_i_glide_ecoul>
-5.45561456680298

> <r_i_glide_erotb>
0.65381171663229

> <r_i_glide_esite>
0

> <r_i_glide_emodel>
-54.9241129118002

> <r_i_glide_energy>
-36.2206044197083

> <r_i_glide_einternal>
0.0924330875277519

> <i_i_glide_confnum>
28

> <i_i_glide_posenum>
103

> <r_i_glide_eff_state_penalty>
0

> <s_user_duplicate_titles>
CHEMBL3231_lig267

> <i_f3d_flags>
0

> <s_m_subgroup_title>
dock_pv

> <s_m_subgroupid>
dock_pv

> <b_m_subgroup_collapsed>
1

$$$$
CHEMBL3231_lig407
                    3D
 Schrodinger Suite 2021-1.
 52 55  0  0  1  0            999 V2000
   51.2132  100.3234   28.0916 C   0  0  0  0  0  0
   51.2826  101.6991   28.3471 C   0  0  0  0  0  0
   51.6848  102.1770   29.5987 C   0  0  0  0  0  0
   51.5837   99.4245   29.0958 C   0  0  0  0  0  0
   51.9502   99.8982   30.3601 C   0  0  0  0  0  0
   51.9932  101.2739   30.6101 C   0  0  0  0  0  0
   52.2485  101.6968   31.9188 N   0  0  0  0  0  0
   52.3880  100.7692   32.9439 C   0  0  0  0  0  0
   52.3806   99.4981   32.7488 N   0  0  0  0  0  0
   52.2403   98.9225   31.4841 C   0  0  0  0  0  0
   52.3178   97.7232   31.2368 O   0  0  0  0  0  0
   50.6814   99.8017   26.7973 C   0  0  0  0  0  0
   52.5517  101.3279   34.3862 C   0  0  2  0  0  0
   52.7690  100.2053   35.3201 N   0  0  0  0  0  0
   50.1331  100.5108   25.7367 C   0  0  0  0  0  0
   49.7524   99.5776   24.8106 N   0  0  0  0  0  0
   50.0203   98.3284   25.1964 N   0  0  0  0  0  0
   50.5830   98.4631   26.3727 C   0  0  0  0  0  0
   51.3967  102.2560   34.8049 C   0  0  0  0  0  0
   50.1928  101.7368   35.2948 C   0  0  0  0  0  0
   49.1939  102.6010   35.7434 C   0  0  0  0  0  0
   49.4018  103.9802   35.7105 C   0  0  0  0  0  0
   50.5906  104.5075   35.2125 C   0  0  0  0  0  0
   51.5841  103.6433   34.7547 C   0  0  0  0  0  0
   48.1809  105.0442   36.3107 Cl  0  0  0  0  0  0
   53.1167  100.2506   36.6159 C   0  0  0  0  0  0
   53.2450  101.3184   37.2189 O   0  0  0  0  0  0
   53.4065   98.9169   37.3558 C   0  0  0  0  0  0
   53.0478   97.7024   36.6061 N   0  0  0  0  0  0
   54.0181   97.3297   35.5717 C   0  0  0  0  0  0
   52.8722   96.5506   37.4879 C   0  0  0  0  0  0
   51.0032  102.4027   27.5789 H   0  0  0  0  0  0
   51.7268  103.2395   29.7832 H   0  0  0  0  0  0
   51.5211   98.3579   28.9187 H   0  0  0  0  0  0
   52.2662  102.6806   32.1220 H   0  0  0  0  0  0
   53.4819  101.9022   34.4009 H   0  0  0  0  0  0
   52.7152   99.2959   34.8852 H   0  0  0  0  0  0
   49.9634  101.5647   25.5714 H   0  0  0  0  0  0
   49.3057   99.7842   23.9227 H   0  0  0  0  0  0
   50.9042   97.5921   26.9247 H   0  0  0  0  0  0
   50.0382  100.6675   35.3494 H   0  0  0  0  0  0
   48.2696  102.2011   36.1381 H   0  0  0  0  0  0
   50.7536  105.5777   35.1898 H   0  0  0  0  0  0
   52.5082  104.0644   34.3810 H   0  0  0  0  0  0
   54.4611   98.9100   37.6422 H   0  0  0  0  0  0
   52.8527   98.9829   38.2931 H   0  0  0  0  0  0
   53.6724   96.4618   35.0096 H   0  0  0  0  0  0
   54.1775   98.1268   34.8479 H   0  0  0  0  0  0
   54.9887   97.0840   36.0054 H   0  0  0  0  0  0
   52.5045   95.6869   36.9379 H   0  0  0  0  0  0
   53.8084   96.2664   37.9659 H   0  0  0  0  0  0
   52.1420   96.7353   38.2712 H   0  0  0  0  0  0
  1  4  2  0  0  0
  1 12  1  0  0  0
  1  2  1  0  0  0
  2 32  1  0  0  0
  2  3  2  0  0  0
  3 33  1  0  0  0
  3  6  1  0  0  0
  4  5  1  0  0  0
  4 34  1  0  0  0
  5 10  1  0  0  0
  5  6  2  0  0  0
  6  7  1  0  0  0
  7 35  1  0  0  0
  7  8  1  0  0  0
  8 13  1  0  0  0
  8  9  2  0  0  0
  9 10  1  0  0  0
 10 11  2  0  0  0
 12 15  2  0  0  0
 12 18  1  0  0  0
 13 14  1  0  0  0
 13 19  1  0  0  0
 13 36  1  0  0  0
 14 26  1  0  0  0
 14 37  1  0  0  0
 15 16  1  0  0  0
 15 38  1  0  0  0
 16 17  1  0  0  0
 16 39  1  0  0  0
 17 18  2  0  0  0
 18 40  1  0  0  0
 19 20  2  0  0  0
 19 24  1  0  0  0
 20 21  1  0  0  0
 20 41  1  0  0  0
 21 22  2  0  0  0
 21 42  1  0  0  0
 22 23  1  0  0  0
 22 25  1  0  0  0
 23 24  2  0  0  0
 23 43  1  0  0  0
 24 44  1  0  0  0
 26 27  2  0  0  0
 26 28  1  0  0  0
 28 29  1  0  0  0
 28 45  1  0  0  0
 28 46  1  0  0  0
 29 30  1  0  0  0
 29 31  1  0  0  0
 30 47  1  0  0  0
 30 48  1  0  0  0
 30 49  1  0  0  0
 31 50  1  0  0  0
 31 51  1  0  0  0
 31 52  1  0  0  0
M  END
> <s_m_entry_id>
28186

> <s_m_entry_name>
dock_pv.347

> <s_m_Source_Path>
/home/csk/Desktop/cluster/DUD-E-result/rock1

> <s_m_Source_File>
dock_pv.maegz

> <i_m_Source_File_Index>
347

> <chembl_id>
CHEMBL2333882

> <chembl_pref_name>
None

> <i_lp_mmshare_version>
53161

> <r_lp_tautomer_probability>
0.0616002225126304

> <s_lp_Force_Field>
OPLS_2005

> <r_lp_Energy>
17.188693

> <b_lp_Chiralities_Consistent>
1

> <s_lp_Variant>
CHEMBL3231_lig407-3

> <s_i_glide_gridfile>
glide-grid_2etr

> <i_i_glide_lignum>
575

> <i_i_glide_rotatable_bonds>
7

> <r_i_docking_score>
-7.64450449486887

> <r_i_glide_ligand_efficiency>
-0.246596919189318

> <r_i_glide_ligand_efficiency_sa>
-0.774654789993931

> <r_i_glide_ligand_efficiency_ln>
-1.72407003952022

> <r_i_glide_gscore>
-7.64450449486887

> <r_i_glide_lipo>
-2.84866109074512

> <r_i_glide_hbond>
-0.534646556581959

> <r_i_glide_metal>
0

> <r_i_glide_rewards>
-1.47608600582987

> <r_i_glide_evdw>
-48.8367347717285

> <r_i_glide_ecoul>
-5.06982612609863

> <r_i_glide_erotb>
0.438683229705781

> <r_i_glide_esite>
-0.0214834139164811

> <r_i_glide_emodel>
-75.5347731302517

> <r_i_glide_energy>
-53.9065608978271

> <r_i_glide_einternal>
8.29762172698975

> <i_i_glide_confnum>
1

> <i_i_glide_posenum>
53

> <r_i_glide_eff_state_penalty>
0

> <s_user_duplicate_titles>
CHEMBL3231_lig407

> <i_f3d_flags>
0

> <s_m_subgroup_title>
dock_pv

> <s_m_subgroupid>
dock_pv

> <b_m_subgroup_collapsed>
1

$$$$
CHEMBL3231_lig1327
                    3D
 Schrodinger Suite 2021-1.
 45 47  0  0  1  0            999 V2000
   51.6433  103.9027   32.4617 O   0  0  0  0  0  0
   55.2114  104.9526   33.6296 O   0  0  0  0  0  0
   53.4796  102.6124   32.7801 N   0  0  0  0  0  0
   50.0431   98.7025   24.9857 N   0  0  0  0  0  0
   51.4198  100.9201   28.4164 C   0  0  0  0  0  0
   52.1407  102.3123   30.7618 C   0  0  0  0  0  0
   50.9729  100.1516   27.2183 C   0  0  0  0  0  0
   52.4101  103.0218   32.0712 C   0  0  0  0  0  0
   52.3541  100.3811   29.3086 C   0  0  0  0  0  0
   50.8884  102.1854   28.6882 C   0  0  0  0  0  0
   52.7070  101.0620   30.4702 C   0  0  0  0  0  0
   51.2513  102.8765   29.8385 C   0  0  0  0  0  0
   53.8369  102.9823   34.1626 C   0  0  2  0  0  0
   50.8409   98.7537   27.2634 C   0  0  0  0  0  0
   50.6405  100.8004   26.0181 C   0  0  0  0  0  0
   52.9400  102.3192   35.2504 C   0  0  0  0  0  0
   51.4921  102.7948   35.3824 C   0  0  0  0  0  0
   50.3817   98.0719   26.1369 C   0  0  0  0  0  0
   50.1748  100.0497   24.9393 C   0  0  0  0  0  0
   54.1133  104.4916   34.3964 C   0  0  0  0  0  0
   51.2097  104.0185   35.9977 C   0  0  0  0  0  0
   50.4417  101.9762   34.9509 C   0  0  0  0  0  0
   49.8888  104.4239   36.1779 C   0  0  0  0  0  0
   49.1203  102.3773   35.1389 C   0  0  0  0  0  0
   48.8494  103.5986   35.7521 C   0  0  0  0  0  0
   54.9380  105.1001   32.7134 H   0  0  0  0  0  0
   54.1262  101.9953   32.3121 H   0  0  0  0  0  0
   52.7994   99.4159   29.1195 H   0  0  0  0  0  0
   50.1701  102.6341   28.0182 H   0  0  0  0  0  0
   53.4023  100.5871   31.1456 H   0  0  0  0  0  0
   50.8122  103.8463   30.0108 H   0  0  0  0  0  0
   54.8078  102.5032   34.3102 H   0  0  0  0  0  0
   51.0749   98.2001   28.1614 H   0  0  0  0  0  0
   50.7253  101.8730   25.9186 H   0  0  0  0  0  0
   53.4083  102.4602   36.2272 H   0  0  0  0  0  0
   52.9405  101.2383   35.1016 H   0  0  0  0  0  0
   50.2734   96.9977   26.1536 H   0  0  0  0  0  0
   49.8964  100.5280   24.0111 H   0  0  0  0  0  0
   53.2385  105.1074   34.1846 H   0  0  0  0  0  0
   54.3914  104.6562   35.4391 H   0  0  0  0  0  0
   52.0114  104.6527   36.3463 H   0  0  0  0  0  0
   50.6485  101.0265   34.4800 H   0  0  0  0  0  0
   49.6754  105.3695   36.6538 H   0  0  0  0  0  0
   48.3086  101.7452   34.8118 H   0  0  0  0  0  0
   47.8244  103.9075   35.8980 H   0  0  0  0  0  0
  1  8  2  0  0  0
  2 20  1  0  0  0
  2 26  1  0  0  0
  3  8  1  0  0  0
  3 13  1  0  0  0
  3 27  1  0  0  0
  4 18  2  0  0  0
  4 19  1  0  0  0
  5  7  1  0  0  0
  5  9  2  0  0  0
  5 10  1  0  0  0
  6  8  1  0  0  0
  6 11  2  0  0  0
  6 12  1  0  0  0
  7 14  2  0  0  0
  7 15  1  0  0  0
  9 11  1  0  0  0
  9 28  1  0  0  0
 10 12  2  0  0  0
 10 29  1  0  0  0
 11 30  1  0  0  0
 12 31  1  0  0  0
 13 16  1  0  0  0
 13 20  1  0  0  0
 13 32  1  0  0  0
 14 18  1  0  0  0
 14 33  1  0  0  0
 15 19  2  0  0  0
 15 34  1  0  0  0
 16 17  1  0  0  0
 16 35  1  0  0  0
 16 36  1  0  0  0
 17 21  2  0  0  0
 17 22  1  0  0  0
 18 37  1  0  0  0
 19 38  1  0  0  0
 20 39  1  0  0  0
 20 40  1  0  0  0
 21 23  1  0  0  0
 21 41  1  0  0  0
 22 24  2  0  0  0
 22 42  1  0  0  0
 23 25  2  0  0  0
 23 43  1  0  0  0
 24 25  1  0  0  0
 24 44  1  0  0  0
 25 45  1  0  0  0
M  END
> <s_m_entry_id>
28187

> <s_m_entry_name>
dock_pv.348

> <s_m_Source_Path>
/home/csk/Desktop/cluster/DUD-E-result/rock1

> <s_m_Source_File>
dock_pv.maegz

> <i_m_Source_File_Index>
348

> <chembl_id>
CHEMBL1998545

> <chembl_pref_name>
None

> <i_lp_mmshare_version>
53161

> <r_lp_tautomer_probability>
1

> <s_lp_Force_Field>
OPLS_2005

> <r_lp_Energy>
17.302386

> <b_lp_Chiralities_Consistent>
1

> <s_lp_Variant>
CHEMBL3231_lig1327-1

> <s_i_glide_gridfile>
glide-grid_2etr

> <i_i_glide_lignum>
1844

> <i_i_glide_rotatable_bonds>
8

> <r_i_docking_score>
-7.64234250200878

> <r_i_glide_ligand_efficiency>
-0.305693700080351

> <r_i_glide_ligand_efficiency_sa>
-0.893853800535803

> <r_i_glide_ligand_efficiency_ln>
-1.81146419549988

> <r_i_glide_gscore>
-7.64234250200878

> <r_i_glide_lipo>
-3.06330970343968

> <r_i_glide_hbond>
-0.402120939630615

> <r_i_glide_metal>
0

> <r_i_glide_rewards>
-2.0815689824036

> <r_i_glide_evdw>
-41.5329093933105

> <r_i_glide_ecoul>
-6.56148195266724

> <r_i_glide_erotb>
1.02277610095143

> <r_i_glide_esite>
-0.0572512149207076

> <r_i_glide_emodel>
-68.7064137497046

> <r_i_glide_energy>
-48.0943913459778

> <r_i_glide_einternal>
6.22925710678101

> <i_i_glide_confnum>
69

> <i_i_glide_posenum>
135

> <r_i_glide_eff_state_penalty>
0

> <s_user_duplicate_titles>
CHEMBL3231_lig1327

> <i_f3d_flags>
0

> <s_m_subgroup_title>
dock_pv

> <s_m_subgroupid>
dock_pv

> <b_m_subgroup_collapsed>
1

$$$$
CHEMBL3231_lig947 
                    3D
 Schrodinger Suite 2021-1.
 56 58  0  0  1  0            999 V2000
   50.4427   97.7727   26.3945 C   0  0  0  0  0  0
   50.0431   98.2920   25.2101 N   0  0  0  0  0  0
   50.0834   99.6352   25.0524 C   0  0  0  0  0  0
   50.5326  100.4948   26.0551 C   0  0  0  0  0  0
   50.9371   99.9569   27.2868 C   0  0  0  0  0  0
   50.8817   98.5655   27.4495 C   0  0  0  0  0  0
   51.4161  100.8310   28.3900 C   0  0  0  0  0  0
   50.8417  102.0879   28.6092 C   0  0  0  0  0  0
   51.2780  102.8892   29.6564 C   0  0  0  0  0  0
   52.3037  102.4505   30.5000 C   0  0  0  0  0  0
   52.8911  101.2010   30.2787 C   0  0  0  0  0  0
   52.4435  100.3999   29.2349 C   0  0  0  0  0  0
   52.7311  103.3028   31.6597 C   0  0  0  0  0  0
   54.0532  103.3614   31.8934 N   0  0  0  0  0  0
   51.8821  103.9078   32.3130 O   0  0  0  0  0  0
   54.6980  104.1374   32.9574 C   0  0  0  0  0  0
   54.4017  103.6380   34.3640 C   0  0  0  0  0  0
   55.2111  102.6655   34.9569 C   0  0  0  0  0  0
   54.9426  102.2264   36.2537 C   0  0  0  0  0  0
   53.8594  102.7527   36.9565 C   0  0  0  0  0  0
   53.0440  103.7330   36.3879 C   0  0  0  0  0  0
   53.3470  104.1931   35.0946 C   0  0  0  0  0  0
   51.9831  104.1679   37.1575 O   0  0  0  0  0  0
   51.0431  105.1006   36.6259 C   0  0  0  0  0  0
   49.7124  104.8805   37.3599 C   0  0  0  0  0  0
   49.0317  103.5469   36.9785 C   0  0  0  0  0  0
   48.5113  103.5897   35.6100 N   0  0  0  0  0  0
   48.3123  102.2458   35.0870 C   0  0  0  0  0  0
   47.2403  104.3033   35.5582 C   0  0  0  0  0  0
   50.4052   96.6983   26.4903 H   0  0  0  0  0  0
   49.7583  100.0201   24.0954 H   0  0  0  0  0  0
   50.5665  101.5583   25.8684 H   0  0  0  0  0  0
   51.1745   98.0981   28.3776 H   0  0  0  0  0  0
   50.0433  102.4448   27.9736 H   0  0  0  0  0  0
   50.8178  103.8557   29.7994 H   0  0  0  0  0  0
   53.6807  100.8308   30.9176 H   0  0  0  0  0  0
   52.9077   99.4361   29.0922 H   0  0  0  0  0  0
   54.6726  102.8947   31.2466 H   0  0  0  0  0  0
   54.4244  105.1901   32.8595 H   0  0  0  0  0  0
   55.7782  104.1089   32.8098 H   0  0  0  0  0  0
   56.0428  102.2393   34.4130 H   0  0  0  0  0  0
   55.5681  101.4705   36.7064 H   0  0  0  0  0  0
   53.6455  102.3920   37.9531 H   0  0  0  0  0  0
   52.7599  104.9646   34.6204 H   0  0  0  0  0  0
   50.8641  104.9845   35.5558 H   0  0  0  0  0  0
   51.4144  106.1131   36.7917 H   0  0  0  0  0  0
   49.0549  105.7278   37.1627 H   0  0  0  0  0  0
   49.9006  104.8894   38.4284 H   0  0  0  0  0  0
   48.2623  103.2694   37.7012 H   0  0  0  0  0  0
   49.7869  102.7604   37.0306 H   0  0  0  0  0  0
   49.2609  101.7125   35.0107 H   0  0  0  0  0  0
   47.8822  102.3030   34.0852 H   0  0  0  0  0  0
   47.6432  101.6631   35.7199 H   0  0  0  0  0  0
   47.3637  105.3402   35.8525 H   0  0  0  0  0  0
   46.8291  104.3055   34.5462 H   0  0  0  0  0  0
   46.4884  103.8595   36.2161 H   0  0  0  0  0  0
  1  2  2  0  0  0
  1  6  1  0  0  0
  1 30  1  0  0  0
  2  3  1  0  0  0
  3  4  2  0  0  0
  3 31  1  0  0  0
  4  5  1  0  0  0
  4 32  1  0  0  0
  5  6  2  0  0  0
  5  7  1  0  0  0
  6 33  1  0  0  0
  7  8  2  0  0  0
  7 12  1  0  0  0
  8  9  1  0  0  0
  8 34  1  0  0  0
  9 10  2  0  0  0
  9 35  1  0  0  0
 10 11  1  0  0  0
 10 13  1  0  0  0
 11 12  2  0  0  0
 11 36  1  0  0  0
 12 37  1  0  0  0
 13 14  1  0  0  0
 13 15  2  0  0  0
 14 16  1  0  0  0
 14 38  1  0  0  0
 16 17  1  0  0  0
 16 39  1  0  0  0
 16 40  1  0  0  0
 17 18  2  0  0  0
 17 22  1  0  0  0
 18 19  1  0  0  0
 18 41  1  0  0  0
 19 20  2  0  0  0
 19 42  1  0  0  0
 20 21  1  0  0  0
 20 43  1  0  0  0
 21 22  2  0  0  0
 21 23  1  0  0  0
 22 44  1  0  0  0
 23 24  1  0  0  0
 24 25  1  0  0  0
 24 45  1  0  0  0
 24 46  1  0  0  0
 25 26  1  0  0  0
 25 47  1  0  0  0
 25 48  1  0  0  0
 26 27  1  0  0  0
 26 49  1  0  0  0
 26 50  1  0  0  0
 27 28  1  0  0  0
 27 29  1  0  0  0
 28 51  1  0  0  0
 28 52  1  0  0  0
 28 53  1  0  0  0
 29 54  1  0  0  0
 29 55  1  0  0  0
 29 56  1  0  0  0
M  END
> <s_m_entry_id>
28188

> <s_m_entry_name>
dock_pv.349

> <s_m_Source_Path>
/home/csk/Desktop/cluster/DUD-E-result/rock1

> <s_m_Source_File>
dock_pv.maegz

> <i_m_Source_File_Index>
349

> <chembl_id>
CHEMBL4436040

> <chembl_pref_name>
None

> <i_lp_mmshare_version>
53161

> <r_lp_tautomer_probability>
1

> <s_lp_Force_Field>
OPLS_2005

> <r_lp_Energy>
22.407195

> <b_lp_Chiralities_Consistent>
1

> <s_lp_Variant>
CHEMBL3231_lig947 -1

> <s_i_glide_gridfile>
glide-grid_2etr

> <i_i_glide_lignum>
1361

> <i_i_glide_rotatable_bonds>
10

> <r_i_docking_score>
-7.64028243772897

> <r_i_glide_ligand_efficiency>
-0.263458015094103

> <r_i_glide_ligand_efficiency_sa>
-0.809426491726881

> <r_i_glide_ligand_efficiency_ln>
-1.74943093739373

> <r_i_glide_gscore>
-7.64028243772897

> <r_i_glide_lipo>
-2.99296334839449

> <r_i_glide_hbond>
-0.286422883382099

> <r_i_glide_metal>
0

> <r_i_glide_rewards>
-2.11175845483798

> <r_i_glide_evdw>
-48.4248390197754

> <r_i_glide_ecoul>
-5.99569129943848

> <r_i_glide_erotb>
1.15656034607269

> <r_i_glide_esite>
-0.0851024512825578

> <r_i_glide_emodel>
-78.7587425049317

> <r_i_glide_energy>
-54.4205303192139

> <r_i_glide_einternal>
3.7798376083374

> <i_i_glide_confnum>
17

> <i_i_glide_posenum>
135

> <r_i_glide_eff_state_penalty>
0

> <s_user_duplicate_titles>
CHEMBL3231_lig947 

> <i_f3d_flags>
0

> <s_m_subgroup_title>
dock_pv

> <s_m_subgroupid>
dock_pv

> <b_m_subgroup_collapsed>
1

$$$$
CHEMBL3231_lig234
                    3D
 Schrodinger Suite 2021-1.
 40 42  0  0  1  0            999 V2000
   50.0426   98.6236   25.4466 N   0  0  0  0  0  0
   50.6397   97.8089   26.3444 C   0  0  0  0  0  0
   51.1875   98.2548   27.5448 C   0  0  0  0  0  0
   49.9605   99.9390   25.7459 C   0  0  0  0  0  0
   50.5021  100.5195   26.9306 C   0  0  0  0  0  0
   51.1386   99.6351   27.8536 C   0  0  0  0  0  0
   51.6898  100.1552   29.0512 C   0  0  0  0  0  0
   51.6192  101.5222   29.3294 C   0  0  0  0  0  0
   50.9914  102.3808   28.4294 C   0  0  0  0  0  0
   50.4431  101.9029   27.2444 C   0  0  0  0  0  0
   49.2687  100.7030   24.8110 N   0  0  0  0  0  0
   52.1778  102.0878   30.6270 C   0  0  0  0  0  0
   53.6356  102.0202   30.6940 N   0  0  1  0  0  0
   54.1800  100.9685   31.5513 C   0  0  0  0  0  0
   54.2635  101.4118   33.0306 C   0  0  0  0  0  0
   52.9199  101.4997   33.7456 C   0  0  0  0  0  0
   52.3063  100.3406   34.2271 C   0  0  0  0  0  0
   51.0581  100.4142   34.8429 C   0  0  0  0  0  0
   50.4069  101.6399   34.9795 C   0  0  0  0  0  0
   51.0207  102.8077   34.5054 C   0  0  0  0  0  0
   52.2773  102.7334   33.8990 C   0  0  0  0  0  0
   50.2456  104.3480   34.6366 Cl  0  0  0  0  0  0
   48.8436  101.6719   35.7207 Cl  0  0  0  0  0  0
   50.6751   96.7600   26.0860 H   0  0  0  0  0  0
   51.6429   97.5604   28.2340 H   0  0  0  0  0  0
   52.1630   99.4788   29.7476 H   0  0  0  0  0  0
   50.9355  103.4387   28.6414 H   0  0  0  0  0  0
   49.9828  102.5957   26.5571 H   0  0  0  0  0  0
   49.2380  101.7040   24.9258 H   0  0  0  0  0  0
   49.0075  100.2870   23.9197 H   0  0  0  0  0  0
   51.7048  101.5502   31.4485 H   0  0  0  0  0  0
   51.8849  103.1328   30.7353 H   0  0  0  0  0  0
   54.0718  102.0170   29.7806 H   0  0  0  0  0  0
   55.1768  100.6859   31.2092 H   0  0  0  0  0  0
   53.5684  100.0704   31.4550 H   0  0  0  0  0  0
   54.7906  102.3645   33.1060 H   0  0  0  0  0  0
   54.8917  100.7060   33.5762 H   0  0  0  0  0  0
   52.7924   99.3816   34.1157 H   0  0  0  0  0  0
   50.5895   99.5149   35.2101 H   0  0  0  0  0  0
   52.7454  103.6326   33.5228 H   0  0  0  0  0  0
  1  2  2  0  0  0
  1  4  1  0  0  0
  2  3  1  0  0  0
  2 24  1  0  0  0
  3  6  2  0  0  0
  3 25  1  0  0  0
  4 11  1  0  0  0
  4  5  2  0  0  0
  5  6  1  0  0  0
  5 10  1  0  0  0
  6  7  1  0  0  0
  7  8  2  0  0  0
  7 26  1  0  0  0
  8 12  1  0  0  0
  8  9  1  0  0  0
  9 10  2  0  0  0
  9 27  1  0  0  0
 10 28  1  0  0  0
 11 29  1  0  0  0
 11 30  1  0  0  0
 12 13  1  0  0  0
 12 31  1  0  0  0
 12 32  1  0  0  0
 13 14  1  0  0  0
 13 33  1  0  0  0
 14 15  1  0  0  0
 14 34  1  0  0  0
 14 35  1  0  0  0
 15 16  1  0  0  0
 15 36  1  0  0  0
 15 37  1  0  0  0
 16 17  2  0  0  0
 16 21  1  0  0  0
 17 18  1  0  0  0
 17 38  1  0  0  0
 18 19  2  0  0  0
 18 39  1  0  0  0
 19 20  1  0  0  0
 19 23  1  0  0  0
 20 21  2  0  0  0
 20 22  1  0  0  0
 21 40  1  0  0  0
M  END
> <s_m_entry_id>
28189

> <s_m_entry_name>
dock_pv.350

> <s_m_Source_Path>
/home/csk/Desktop/cluster/DUD-E-result/rock1

> <s_m_Source_File>
dock_pv.maegz

> <i_m_Source_File_Index>
350

> <chembl_id>
CHEMBL1643358

> <chembl_pref_name>
None

> <i_lp_mmshare_version>
53161

> <r_lp_tautomer_probability>
1

> <s_lp_Force_Field>
OPLS_2005

> <r_lp_Energy>
15.301048

> <b_lp_Chiralities_Consistent>
1

> <s_lp_Variant>
CHEMBL3231_lig234-1

> <s_i_glide_gridfile>
glide-grid_2etr

> <i_i_glide_lignum>
378

> <i_i_glide_rotatable_bonds>
5

> <r_i_docking_score>
-7.63690076969807

> <r_i_glide_ligand_efficiency>
-0.332039163899916

> <r_i_glide_ligand_efficiency_sa>
-0.944275213245571

> <r_i_glide_ligand_efficiency_ln>
-1.84667185370062

> <r_i_glide_gscore>
-7.63690076969807

> <r_i_glide_lipo>
-3.00856492812698

> <r_i_glide_hbond>
-0.32

> <r_i_glide_metal>
0

> <r_i_glide_rewards>
-2.35660778787879

> <r_i_glide_evdw>
-38.0665702819824

> <r_i_glide_ecoul>
-4.55090665817261

> <r_i_glide_erotb>
0.63423645913271

> <r_i_glide_esite>
0

> <r_i_glide_emodel>
-59.5607898041844

> <r_i_glide_energy>
-42.617476940155

> <r_i_glide_einternal>
3.90158104896545

> <i_i_glide_confnum>
22

> <i_i_glide_posenum>
380

> <r_i_glide_eff_state_penalty>
0

> <s_user_duplicate_titles>
CHEMBL3231_lig234

> <i_f3d_flags>
0

> <s_m_subgroup_title>
dock_pv

> <s_m_subgroupid>
dock_pv

> <b_m_subgroup_collapsed>
1

$$$$
CHEMBL3231_lig761
                    3D
 Schrodinger Suite 2021-1.
 40 42  0  0  1  0            999 V2000
   56.0430   99.4823   32.8122 O   0  0  0  0  0  0
   55.7754   98.3005   33.5442 C   0  0  0  0  0  0
   54.2781   98.1304   33.9006 C   0  0  1  0  0  0
   53.4188   98.2780   32.7223 N   0  0  0  0  0  0
   52.6246   99.3249   32.4510 C   0  0  0  0  0  0
   52.3645  100.2188   33.2593 O   0  0  0  0  0  0
   52.1047   99.3859   31.0409 C   0  0  0  0  0  0
   51.6891   98.2372   30.3570 C   0  0  0  0  0  0
   51.2432   98.3264   29.0404 C   0  0  0  0  0  0
   51.1793   99.5582   28.3705 C   0  0  0  0  0  0
   51.5739  100.7135   29.0769 C   0  0  0  0  0  0
   51.4955  102.3039   28.4108 Cl  0  0  0  0  0  0
   52.0409  100.6164   30.3861 C   0  0  0  0  0  0
   50.6450   99.5402   26.9616 C   0  0  0  0  0  0
   50.0508  100.5486   26.2065 C   0  0  0  0  0  0
   49.7191   99.9902   25.0021 N   0  0  0  0  0  0
   50.0427   98.7032   24.9231 N   0  0  0  0  0  0
   50.6054   98.4421   26.0780 C   0  0  0  0  0  0
   54.0450   96.7868   34.5954 C   0  0  0  0  0  0
   53.8067   96.7333   35.9750 C   0  0  0  0  0  0
   53.7396   97.8683   36.7083 F   0  0  0  0  0  0
   53.6418   95.5067   36.6155 C   0  0  0  0  0  0
   53.6947   94.3216   35.8832 C   0  0  0  0  0  0
   53.9139   94.3638   34.5096 C   0  0  0  0  0  0
   54.1028   95.5864   33.8683 C   0  0  0  0  0  0
   54.3511   95.5972   32.5383 F   0  0  0  0  0  0
   56.7677   99.2742   32.2006 H   0  0  0  0  0  0
   56.3859   98.3119   34.4492 H   0  0  0  0  0  0
   56.1232   97.4531   32.9502 H   0  0  0  0  0  0
   54.0418   98.9249   34.6121 H   0  0  0  0  0  0
   53.5748   97.6060   31.9865 H   0  0  0  0  0  0
   51.7074   97.2659   30.8367 H   0  0  0  0  0  0
   50.9204   97.4175   28.5511 H   0  0  0  0  0  0
   52.3585  101.5143   30.9003 H   0  0  0  0  0  0
   49.8329  101.5872   26.4114 H   0  0  0  0  0  0
   49.2609  100.4678   24.2343 H   0  0  0  0  0  0
   50.9849   97.4500   26.2830 H   0  0  0  0  0  0
   53.4723   95.4800   37.6825 H   0  0  0  0  0  0
   53.5681   93.3689   36.3801 H   0  0  0  0  0  0
   53.9510   93.4473   33.9380 H   0  0  0  0  0  0
  1  2  1  0  0  0
  1 27  1  0  0  0
  2  3  1  0  0  0
  2 28  1  0  0  0
  2 29  1  0  0  0
  3  4  1  0  0  0
  3 19  1  0  0  0
  3 30  1  0  0  0
  4  5  1  0  0  0
  4 31  1  0  0  0
  5  6  2  0  0  0
  5  7  1  0  0  0
  7  8  2  0  0  0
  7 13  1  0  0  0
  8  9  1  0  0  0
  8 32  1  0  0  0
  9 10  2  0  0  0
  9 33  1  0  0  0
 10 11  1  0  0  0
 10 14  1  0  0  0
 11 12  1  0  0  0
 11 13  2  0  0  0
 13 34  1  0  0  0
 14 15  2  0  0  0
 14 18  1  0  0  0
 15 16  1  0  0  0
 15 35  1  0  0  0
 16 17  1  0  0  0
 16 36  1  0  0  0
 17 18  2  0  0  0
 18 37  1  0  0  0
 19 20  2  0  0  0
 19 25  1  0  0  0
 20 21  1  0  0  0
 20 22  1  0  0  0
 22 23  2  0  0  0
 22 38  1  0  0  0
 23 24  1  0  0  0
 23 39  1  0  0  0
 24 25  2  0  0  0
 24 40  1  0  0  0
 25 26  1  0  0  0
M  END
> <s_m_entry_id>
28190

> <s_m_entry_name>
dock_pv.351

> <s_m_Source_Path>
/home/csk/Desktop/cluster/DUD-E-result/rock1

> <s_m_Source_File>
dock_pv.maegz

> <i_m_Source_File_Index>
351

> <chembl_id>
CHEMBL4107563

> <chembl_pref_name>
None

> <i_lp_mmshare_version>
53161

> <r_lp_tautomer_probability>
0.5

> <s_lp_Force_Field>
OPLS_2005

> <r_lp_Energy>
17.376402

> <b_lp_Chiralities_Consistent>
1

> <s_lp_Variant>
CHEMBL3231_lig761-1

> <s_i_glide_gridfile>
glide-grid_2etr

> <i_i_glide_lignum>
1079

> <i_i_glide_rotatable_bonds>
7

> <r_i_docking_score>
-7.63608410121218

> <r_i_glide_ligand_efficiency>
-0.293695542354315

> <r_i_glide_ligand_efficiency_sa>
-0.870071888588501

> <r_i_glide_ligand_efficiency_ln>
-1.79330929513408

> <r_i_glide_gscore>
-7.63608410121218

> <r_i_glide_lipo>
-2.66496452507935

> <r_i_glide_hbond>
-0.418054709467901

> <r_i_glide_metal>
0

> <r_i_glide_rewards>
-2.04859145963396

> <r_i_glide_evdw>
-39.1461143493652

> <r_i_glide_ecoul>
-6.67082071304321

> <r_i_glide_erotb>
0.47509813698004

> <r_i_glide_esite>
-0.0216427195862702

> <r_i_glide_emodel>
-64.4864375213852

> <r_i_glide_energy>
-45.8169350624084

> <r_i_glide_einternal>
6.65755271911621

> <i_i_glide_confnum>
72

> <i_i_glide_posenum>
284

> <r_i_glide_eff_state_penalty>
0

> <s_user_duplicate_titles>
CHEMBL3231_lig761

> <i_f3d_flags>
0

> <s_m_subgroup_title>
dock_pv

> <s_m_subgroupid>
dock_pv

> <b_m_subgroup_collapsed>
1

$$$$
CHEMBL3231_lig919
                    3D
 Schrodinger Suite 2021-1.
 58 61  0  0  1  0            999 V2000
   51.1353  101.2482   28.0061 C   0  0  0  0  0  0
   52.0951  101.1767   28.9172 N   0  0  0  0  0  0
   52.1913  102.2656   29.6399 C   0  0  0  0  0  0
   51.0493  103.5071   29.2110 S   0  0  0  0  0  0
   50.4433  102.4589   27.9880 C   0  0  0  0  0  0
   53.7218  102.8832   34.8524 C   0  0  0  0  0  0
   54.4324  102.4620   33.7238 C   0  0  0  0  0  0
   55.1169  101.2435   33.7605 C   0  0  0  0  0  0
   55.1577  100.4729   34.9357 C   0  0  0  0  0  0
   54.4427  100.9158   36.0516 C   0  0  0  0  0  0
   53.7188  102.1078   36.0115 C   0  0  0  0  0  0
   54.4721  103.3328   32.4701 C   0  0  0  0  0  0
   53.1757  103.2536   31.6537 C   0  0  0  0  0  0
   53.2035  102.4365   30.5772 N   0  0  0  0  0  0
   52.1925  103.9011   32.0207 O   0  0  0  0  0  0
   50.8452  100.1034   27.0964 C   0  0  0  0  0  0
   50.3213  100.3518   25.8214 C   0  0  0  0  0  0
   50.0152   99.2749   24.9978 C   0  0  0  0  0  0
   50.1818   97.9842   25.3781 N   0  0  0  0  0  0
   50.7047   97.7530   26.6076 C   0  0  0  0  0  0
   51.0534   98.7768   27.4887 C   0  0  0  0  0  0
   55.8732   99.3019   35.0852 O   0  0  0  0  0  0
   56.6682   98.8192   34.0014 C   0  0  0  0  0  0
   57.5623   97.6555   34.4674 C   0  0  0  0  0  0
   56.8286   96.5045   35.1905 C   0  0  0  0  0  0
   55.7038   95.9688   34.4208 N   0  0  0  0  0  0
   56.1459   95.2507   33.2157 C   0  0  0  0  0  0
   54.9126   94.7830   32.4107 C   0  0  0  0  0  0
   54.0431   93.9029   33.1962 N   0  0  0  0  0  0
   53.6686   94.5600   34.4486 C   0  0  0  0  0  0
   54.9130   95.0399   35.2407 C   0  0  0  0  0  0
   49.6454  102.7736   27.3349 H   0  0  0  0  0  0
   53.1758  103.8149   34.8309 H   0  0  0  0  0  0
   55.6447  100.9200   32.8758 H   0  0  0  0  0  0
   54.4596  100.3309   36.9602 H   0  0  0  0  0  0
   53.1713  102.4363   36.8837 H   0  0  0  0  0  0
   55.3244  103.0591   31.8468 H   0  0  0  0  0  0
   54.6321  104.3738   32.7553 H   0  0  0  0  0  0
   54.0102  101.8375   30.4755 H   0  0  0  0  0  0
   50.1526  101.3593   25.4690 H   0  0  0  0  0  0
   49.6122   99.4423   24.0107 H   0  0  0  0  0  0
   50.8426   96.7195   26.8822 H   0  0  0  0  0  0
   51.4545   98.5388   28.4630 H   0  0  0  0  0  0
   56.0231   98.4949   33.1831 H   0  0  0  0  0  0
   57.3169   99.6062   33.6124 H   0  0  0  0  0  0
   58.1518   97.2729   33.6333 H   0  0  0  0  0  0
   58.3090   98.0600   35.1499 H   0  0  0  0  0  0
   57.5311   95.7036   35.4255 H   0  0  0  0  0  0
   56.4529   96.8884   36.1406 H   0  0  0  0  0  0
   56.7477   95.9012   32.5805 H   0  0  0  0  0  0
   56.7747   94.3965   33.4790 H   0  0  0  0  0  0
   55.2426   94.2637   31.5102 H   0  0  0  0  0  0
   54.3406   95.6465   32.0619 H   0  0  0  0  0  0
   53.1918   93.7052   32.6831 H   0  0  0  0  0  0
   53.0809   93.8623   35.0447 H   0  0  0  0  0  0
   53.0038   95.3995   34.2342 H   0  0  0  0  0  0
   55.5187   94.1863   35.5558 H   0  0  0  0  0  0
   54.5803   95.5456   36.1488 H   0  0  0  0  0  0
  1  2  1  0  0  0
  1  5  2  0  0  0
  1 16  1  0  0  0
  2  3  2  0  0  0
  3  4  1  0  0  0
  3 14  1  0  0  0
  4  5  1  0  0  0
  5 32  1  0  0  0
  6  7  2  0  0  0
  6 11  1  0  0  0
  6 33  1  0  0  0
  7  8  1  0  0  0
  7 12  1  0  0  0
  8  9  2  0  0  0
  8 34  1  0  0  0
  9 10  1  0  0  0
  9 22  1  0  0  0
 10 11  2  0  0  0
 10 35  1  0  0  0
 11 36  1  0  0  0
 12 13  1  0  0  0
 12 37  1  0  0  0
 12 38  1  0  0  0
 13 14  1  0  0  0
 13 15  2  0  0  0
 14 39  1  0  0  0
 16 17  2  0  0  0
 16 21  1  0  0  0
 17 18  1  0  0  0
 17 40  1  0  0  0
 18 19  2  0  0  0
 18 41  1  0  0  0
 19 20  1  0  0  0
 20 21  2  0  0  0
 20 42  1  0  0  0
 21 43  1  0  0  0
 22 23  1  0  0  0
 23 24  1  0  0  0
 23 44  1  0  0  0
 23 45  1  0  0  0
 24 25  1  0  0  0
 24 46  1  0  0  0
 24 47  1  0  0  0
 25 26  1  0  0  0
 25 48  1  0  0  0
 25 49  1  0  0  0
 26 27  1  0  0  0
 26 31  1  0  0  0
 27 28  1  0  0  0
 27 50  1  0  0  0
 27 51  1  0  0  0
 28 29  1  0  0  0
 28 52  1  0  0  0
 28 53  1  0  0  0
 29 30  1  0  0  0
 29 54  1  0  0  0
 30 31  1  0  0  0
 30 55  1  0  0  0
 30 56  1  0  0  0
 31 57  1  0  0  0
 31 58  1  0  0  0
M  END
> <s_m_entry_id>
28192

> <s_m_entry_name>
dock_pv.353

> <s_m_Source_Path>
/home/csk/Desktop/cluster/DUD-E-result/rock1

> <s_m_Source_File>
dock_pv.maegz

> <i_m_Source_File_Index>
353

> <chembl_id>
CHEMBL4245507

> <chembl_pref_name>
None

> <i_lp_mmshare_version>
53161

> <r_lp_tautomer_probability>
0.999000488399163

> <s_lp_Force_Field>
OPLS_2005

> <r_lp_Energy>
38.51461

> <b_lp_Chiralities_Consistent>
1

> <s_lp_Variant>
CHEMBL3231_lig919-1

> <s_i_glide_gridfile>
glide-grid_2etr

> <i_i_glide_lignum>
1317

> <i_i_glide_rotatable_bonds>
10

> <r_i_docking_score>
-7.63518808363586

> <r_i_glide_ligand_efficiency>
-0.246296389794705

> <r_i_glide_ligand_efficiency_sa>
-0.773710712769298

> <r_i_glide_ligand_efficiency_ln>
-1.72196890327346

> <r_i_glide_gscore>
-7.63518808363586

> <r_i_glide_lipo>
-2.46471951118177

> <r_i_glide_hbond>
-0.496236456508281

> <r_i_glide_metal>
0

> <r_i_glide_rewards>
-1.79188217253423

> <r_i_glide_evdw>
-47.3636932373047

> <r_i_glide_ecoul>
-9.20034599304199

> <r_i_glide_erotb>
0.937445937608012

> <r_i_glide_esite>
-0.0715593201980524

> <r_i_glide_emodel>
-78.8086024156156

> <r_i_glide_energy>
-56.5640392303467

> <r_i_glide_einternal>
8.55386257171631

> <i_i_glide_confnum>
32

> <i_i_glide_posenum>
135

> <r_i_glide_eff_state_penalty>
0

> <s_user_duplicate_titles>
CHEMBL3231_lig919

> <i_f3d_flags>
0

> <s_m_subgroup_title>
dock_pv

> <s_m_subgroupid>
dock_pv

> <b_m_subgroup_collapsed>
1

$$$$
CHEMBL3231_lig1831
                    3D
 Schrodinger Suite 2021-1.
 36 37  0  0  1  0            999 V2000
   50.4430   97.2264   26.4138 O   0  0  0  0  0  0
   49.6430   99.0148   24.4110 O   0  0  0  0  0  0
   51.2432  103.5028   31.8623 O   0  0  0  0  0  0
   52.4740  101.6224   31.9898 N   0  0  0  0  0  0
   50.4431  104.2996   28.7110 N   0  0  0  0  0  0
   51.0968  100.4792   28.0389 C   0  0  0  0  0  0
   51.3772  102.2120   29.9262 C   0  0  0  0  0  0
   50.5410   98.5827   26.6046 C   0  0  0  0  0  0
   51.4791  100.9624   29.3928 C   0  0  0  0  0  0
   51.0101   99.0935   27.8198 C   0  0  0  0  0  0
   50.1503   99.4651   25.5945 C   0  0  0  0  0  0
   51.7060  102.5028   31.3135 C   0  0  0  0  0  0
   50.7503  101.3341   26.9830 C   0  0  0  0  0  0
   50.2639  100.8311   25.7841 C   0  0  0  0  0  0
   50.8700  103.3499   29.2207 C   0  0  0  0  0  0
   51.6553  101.9363   34.3645 C   0  0  0  0  0  0
   52.8358  101.7375   33.4107 C   0  0  0  0  0  0
   51.4813  103.1620   35.0163 C   0  0  0  0  0  0
   50.7449  100.8980   34.5783 C   0  0  0  0  0  0
   50.3817  103.3599   35.8482 C   0  0  0  0  0  0
   49.6431  101.0999   35.4064 C   0  0  0  0  0  0
   49.4628  102.3297   36.0331 C   0  0  0  0  0  0
   50.7850   96.7089   27.1465 H   0  0  0  0  0  0
   49.3280   99.6957   23.8027 H   0  0  0  0  0  0
   52.9611  100.9073   31.4720 H   0  0  0  0  0  0
   51.8697  100.1725   30.0198 H   0  0  0  0  0  0
   51.2772   98.4038   28.6078 H   0  0  0  0  0  0
   50.8258  102.4025   27.0506 H   0  0  0  0  0  0
   49.9515  101.5029   25.0054 H   0  0  0  0  0  0
   53.3503  100.8183   33.6951 H   0  0  0  0  0  0
   53.5766  102.5305   33.5348 H   0  0  0  0  0  0
   52.1808  103.9703   34.8566 H   0  0  0  0  0  0
   50.8778   99.9466   34.0841 H   0  0  0  0  0  0
   50.2398  104.3105   36.3406 H   0  0  0  0  0  0
   48.9303  100.3032   35.5627 H   0  0  0  0  0  0
   48.6067  102.4803   36.6750 H   0  0  0  0  0  0
  1  8  1  0  0  0
  1 23  1  0  0  0
  2 11  1  0  0  0
  2 24  1  0  0  0
  3 12  2  0  0  0
  4 12  1  0  0  0
  4 17  1  0  0  0
  4 25  1  0  0  0
  5 15  3  0  0  0
  6  9  1  0  0  0
  6 10  1  0  0  0
  6 13  2  0  0  0
  7  9  2  3  0  0
  7 12  1  0  0  0
  7 15  1  0  0  0
  8 10  2  0  0  0
  8 11  1  0  0  0
  9 26  1  0  0  0
 10 27  1  0  0  0
 11 14  2  0  0  0
 13 14  1  0  0  0
 13 28  1  0  0  0
 14 29  1  0  0  0
 16 17  1  0  0  0
 16 18  2  0  0  0
 16 19  1  0  0  0
 17 30  1  0  0  0
 17 31  1  0  0  0
 18 20  1  0  0  0
 18 32  1  0  0  0
 19 21  2  0  0  0
 19 33  1  0  0  0
 20 22  2  0  0  0
 20 34  1  0  0  0
 21 22  1  0  0  0
 21 35  1  0  0  0
 22 36  1  0  0  0
M  END
> <s_m_entry_id>
28193

> <s_m_entry_name>
dock_pv.354

> <s_m_Source_Path>
/home/csk/Desktop/cluster/DUD-E-result/rock1

> <s_m_Source_File>
dock_pv.maegz

> <i_m_Source_File_Index>
354

> <chembl_id>
CHEMBL1974157

> <chembl_pref_name>
None

> <i_lp_mmshare_version>
53161

> <r_lp_tautomer_probability>
1

> <s_lp_Force_Field>
OPLS_2005

> <r_lp_Energy>
15.4253

> <b_lp_Chiralities_Consistent>
1

> <s_lp_Variant>
CHEMBL3231_lig1831-2

> <s_i_glide_gridfile>
glide-grid_2etr

> <i_i_glide_lignum>
2633

> <i_i_glide_rotatable_bonds>
7

> <r_i_docking_score>
-7.63378561360678

> <r_i_glide_ligand_efficiency>
-0.346990255163945

> <r_i_glide_ligand_efficiency_sa>
-0.972280341321735

> <r_i_glide_ligand_efficiency_ln>
-1.8659756530613

> <r_i_glide_gscore>
-7.63378561360678

> <r_i_glide_lipo>
-2.95779618776217

> <r_i_glide_hbond>
-0.16

> <r_i_glide_metal>
0

> <r_i_glide_rewards>
-1.9778710239796

> <r_i_glide_evdw>
-34.4532127380371

> <r_i_glide_ecoul>
-10.6907806396484

> <r_i_glide_erotb>
0.84449489236459

> <r_i_glide_esite>
-0.0563355613804862

> <r_i_glide_emodel>
-64.6926634253557

> <r_i_glide_energy>
-45.1439933776855

> <r_i_glide_einternal>
4.96396398544312

> <i_i_glide_confnum>
19

> <i_i_glide_posenum>
95

> <r_i_glide_eff_state_penalty>
0

> <s_user_duplicate_titles>
CHEMBL3231_lig1831

> <i_f3d_flags>
0

> <s_m_subgroup_title>
dock_pv

> <s_m_subgroupid>
dock_pv

> <b_m_subgroup_collapsed>
1

$$$$
CHEMBL3231_lig1309
                    3D
 Schrodinger Suite 2021-1.
 48 50  0  0  1  0            999 V2000
   52.0431  104.3029   32.0872 O   0  0  0  0  0  0
   49.2157  106.9334   35.4117 O   0  0  0  0  0  0
   52.2820  102.4439   33.3525 N   0  0  0  0  0  0
   50.0430   98.3802   25.2077 N   0  0  0  0  0  0
   51.2731  100.5869   28.7123 C   0  0  0  0  0  0
   51.8499  102.2102   30.9696 C   0  0  0  0  0  0
   52.0454  100.0841   29.7868 C   0  0  0  0  0  0
   50.8870   99.7943   27.5004 C   0  0  0  0  0  0
   52.0952  103.0777   32.1799 C   0  0  0  0  0  0
   52.3225  100.8944   30.8932 C   0  0  0  0  0  0
   50.8308  101.9150   28.7931 C   0  0  0  0  0  0
   51.1220  102.7166   29.8898 C   0  0  0  0  0  0
   52.3518  103.0934   34.6637 C   0  0  1  0  0  0
   50.9970  103.6646   35.1104 C   0  0  0  0  0  0
   50.4634   98.4573   27.5824 C   0  0  0  0  0  0
   50.8781  100.3981   26.2309 C   0  0  0  0  0  0
   50.7622  105.0450   35.0479 C   0  0  0  0  0  0
   49.5344  105.5902   35.4634 C   0  0  0  0  0  0
   49.9905  102.8269   35.6075 C   0  0  0  0  0  0
   52.6424   98.6843   29.8077 C   0  0  0  0  0  0
   48.5495  104.7311   35.9553 C   0  0  0  0  0  0
   48.7731  103.3576   36.0275 C   0  0  0  0  0  0
   50.0682   97.7895   26.4226 C   0  0  0  0  0  0
   50.4426   99.6712   25.1242 C   0  0  0  0  0  0
   52.9691  102.1353   35.6996 C   0  0  0  0  0  0
   50.1864  107.8613   34.9352 C   0  0  0  0  0  0
   52.3922  101.4421   33.3427 H   0  0  0  0  0  0
   52.9197  100.4847   31.6960 H   0  0  0  0  0  0
   50.2377  102.3418   27.9973 H   0  0  0  0  0  0
   50.7590  103.7333   29.8928 H   0  0  0  0  0  0
   53.0591  103.9243   34.5802 H   0  0  0  0  0  0
   50.4255   97.9393   28.5287 H   0  0  0  0  0  0
   51.1932  101.4229   26.0997 H   0  0  0  0  0  0
   51.5416  105.6838   34.6571 H   0  0  0  0  0  0
   50.1439  101.7593   35.6649 H   0  0  0  0  0  0
   51.9834   97.9906   30.3308 H   0  0  0  0  0  0
   52.8404   98.3037   28.8110 H   0  0  0  0  0  0
   53.6081   98.6809   30.3159 H   0  0  0  0  0  0
   47.6004  105.1325   36.2781 H   0  0  0  0  0  0
   48.0030  102.7032   36.4093 H   0  0  0  0  0  0
   49.7506   96.7581   26.4496 H   0  0  0  0  0  0
   50.4073  100.1227   24.1426 H   0  0  0  0  0  0
   53.0563  102.6143   36.6757 H   0  0  0  0  0  0
   52.3794  101.2270   35.8260 H   0  0  0  0  0  0
   53.9721  101.8289   35.3997 H   0  0  0  0  0  0
   49.7793  108.8709   34.9939 H   0  0  0  0  0  0
   51.0966  107.8389   35.5363 H   0  0  0  0  0  0
   50.4423  107.6709   33.8928 H   0  0  0  0  0  0
  1  9  2  0  0  0
  2 18  1  0  0  0
  2 26  1  0  0  0
  3  9  1  0  0  0
  3 13  1  0  0  0
  3 27  1  0  0  0
  4 23  2  0  0  0
  4 24  1  0  0  0
  5  7  1  0  0  0
  5  8  1  0  0  0
  5 11  2  0  0  0
  6  9  1  0  0  0
  6 10  1  0  0  0
  6 12  2  0  0  0
  7 10  2  0  0  0
  7 20  1  0  0  0
  8 15  2  0  0  0
  8 16  1  0  0  0
 10 28  1  0  0  0
 11 12  1  0  0  0
 11 29  1  0  0  0
 12 30  1  0  0  0
 13 14  1  0  0  0
 13 25  1  0  0  0
 13 31  1  0  0  0
 14 17  2  0  0  0
 14 19  1  0  0  0
 15 23  1  0  0  0
 15 32  1  0  0  0
 16 24  2  0  0  0
 16 33  1  0  0  0
 17 18  1  0  0  0
 17 34  1  0  0  0
 18 21  2  0  0  0
 19 22  2  0  0  0
 19 35  1  0  0  0
 20 36  1  0  0  0
 20 37  1  0  0  0
 20 38  1  0  0  0
 21 22  1  0  0  0
 21 39  1  0  0  0
 22 40  1  0  0  0
 23 41  1  0  0  0
 24 42  1  0  0  0
 25 43  1  0  0  0
 25 44  1  0  0  0
 25 45  1  0  0  0
 26 46  1  0  0  0
 26 47  1  0  0  0
 26 48  1  0  0  0
M  END
> <s_m_entry_id>
28194

> <s_m_entry_name>
dock_pv.355

> <s_m_Source_Path>
/home/csk/Desktop/cluster/DUD-E-result/rock1

> <s_m_Source_File>
dock_pv.maegz

> <i_m_Source_File_Index>
355

> <chembl_id>
CHEMBL1969049

> <chembl_pref_name>
None

> <i_lp_mmshare_version>
53161

> <r_lp_tautomer_probability>
1

> <s_lp_Force_Field>
OPLS_2005

> <r_lp_Energy>
18.656881

> <b_lp_Chiralities_Consistent>
1

> <s_lp_Variant>
CHEMBL3231_lig1309-2

> <s_i_glide_gridfile>
glide-grid_2etr

> <i_i_glide_lignum>
1821

> <i_i_glide_rotatable_bonds>
6

> <r_i_docking_score>
-7.63231454957412

> <r_i_glide_ligand_efficiency>
-0.293550559599005

> <r_i_glide_ligand_efficiency_sa>
-0.869642377746376

> <r_i_glide_ligand_efficiency_ln>
-1.79242402830079

> <r_i_glide_gscore>
-7.63231454957412

> <r_i_glide_lipo>
-2.99482446967341

> <r_i_glide_hbond>
-0.259588334874989

> <r_i_glide_metal>
0

> <r_i_glide_rewards>
-2.4635922379855

> <r_i_glide_evdw>
-42.7593955993652

> <r_i_glide_ecoul>
-3.40521049499512

> <r_i_glide_erotb>
0.792108022378983

> <r_i_glide_esite>
-0.0576661752016729

> <r_i_glide_emodel>
-66.3592536787315

> <r_i_glide_energy>
-46.1646060943604

> <r_i_glide_einternal>
2.98394560813904

> <i_i_glide_confnum>
59

> <i_i_glide_posenum>
219

> <r_i_glide_eff_state_penalty>
0

> <s_user_duplicate_titles>
CHEMBL3231_lig1309

> <i_f3d_flags>
0

> <s_m_subgroup_title>
dock_pv

> <s_m_subgroupid>
dock_pv

> <b_m_subgroup_collapsed>
1

$$$$
CHEMBL3231_lig975 
                    3D
 Schrodinger Suite 2021-1.
 58 60  0  0  1  0            999 V2000
   50.2467   98.0512   26.0073 C   0  0  0  0  0  0
   50.0423   98.7026   24.8350 N   0  0  0  0  0  0
   50.2207  100.0444   24.8120 C   0  0  0  0  0  0
   50.6114  100.7697   25.9371 C   0  0  0  0  0  0
   50.8211  100.0989   27.1528 C   0  0  0  0  0  0
   50.6284   98.7085   27.1764 C   0  0  0  0  0  0
   51.2253  100.8351   28.3837 C   0  0  0  0  0  0
   52.0720  100.2471   29.3280 C   0  0  0  0  0  0
   52.4477  100.9035   30.5117 C   0  0  0  0  0  0
   51.9288  102.2022   30.7637 C   0  0  0  0  0  0
   51.1219  102.8022   29.7856 C   0  0  0  0  0  0
   50.7676  102.1291   28.6244 C   0  0  0  0  0  0
   52.1431  102.9833   32.0465 C   0  0  0  0  0  0
   52.3210  102.2800   33.1787 N   0  0  0  0  0  0
   52.0428  104.2111   32.0506 O   0  0  0  0  0  0
   52.3724  102.8360   34.5332 C   0  0  1  0  0  0
   51.0172  103.3832   35.0120 C   0  0  0  0  0  0
   50.0156  102.5250   35.4868 C   0  0  0  0  0  0
   48.8077  103.0364   35.9552 C   0  0  0  0  0  0
   48.5869  104.4123   35.9511 C   0  0  0  0  0  0
   49.5610  105.2917   35.4805 C   0  0  0  0  0  0
   50.7793  104.7661   35.0153 C   0  0  0  0  0  0
   49.2434  106.6374   35.4979 O   0  0  0  0  0  0
   50.2158  107.5879   35.0756 C   0  0  0  0  0  0
   52.9834  101.8098   35.5062 C   0  0  0  0  0  0
   53.3408  100.2799   31.4128 N   0  0  0  0  0  0
   53.8657   98.9375   31.1814 C   0  0  0  0  0  0
   54.7566   98.4292   32.3202 C   0  0  0  0  0  0
   55.0945   96.9359   32.1776 C   0  0  0  0  0  0
   56.0433   96.5627   33.2101 N   0  0  0  0  0  0
   50.1042   96.9806   26.0069 H   0  0  0  0  0  0
   50.0481  100.5334   23.8649 H   0  0  0  0  0  0
   50.7503  101.8376   25.8581 H   0  0  0  0  0  0
   50.7665   98.1386   28.0830 H   0  0  0  0  0  0
   52.4531   99.2627   29.1136 H   0  0  0  0  0  0
   50.7276  103.7962   29.9257 H   0  0  0  0  0  0
   50.1157  102.6245   27.9186 H   0  0  0  0  0  0
   52.4644  101.2832   33.0851 H   0  0  0  0  0  0
   53.0809  103.6694   34.5136 H   0  0  0  0  0  0
   50.1692  101.4562   35.4943 H   0  0  0  0  0  0
   48.0434  102.3665   36.3199 H   0  0  0  0  0  0
   47.6471  104.7998   36.3156 H   0  0  0  0  0  0
   51.5528  105.4204   34.6434 H   0  0  0  0  0  0
   49.8086  108.5936   35.1907 H   0  0  0  0  0  0
   51.1226  107.5303   35.6805 H   0  0  0  0  0  0
   50.4776  107.4578   34.0239 H   0  0  0  0  0  0
   53.0561  102.2203   36.5139 H   0  0  0  0  0  0
   52.3994  100.8908   35.5613 H   0  0  0  0  0  0
   53.9931  101.5321   35.1986 H   0  0  0  0  0  0
   53.9933  100.9124   31.8588 H   0  0  0  0  0  0
   53.0285   98.2528   31.0410 H   0  0  0  0  0  0
   54.4074   98.8934   30.2348 H   0  0  0  0  0  0
   55.6728   99.0259   32.3418 H   0  0  0  0  0  0
   54.2618   98.5971   33.2791 H   0  0  0  0  0  0
   54.1960   96.3237   32.2718 H   0  0  0  0  0  0
   55.5375   96.7305   31.2001 H   0  0  0  0  0  0
   56.2708   95.5810   33.1298 H   0  0  0  0  0  0
   56.9103   97.0541   33.0022 H   0  0  0  0  0  0
  1  2  2  0  0  0
  1  6  1  0  0  0
  1 31  1  0  0  0
  2  3  1  0  0  0
  3  4  2  0  0  0
  3 32  1  0  0  0
  4  5  1  0  0  0
  4 33  1  0  0  0
  5  6  2  0  0  0
  5  7  1  0  0  0
  6 34  1  0  0  0
  7  8  2  0  0  0
  7 12  1  0  0  0
  8  9  1  0  0  0
  8 35  1  0  0  0
  9 10  2  0  0  0
  9 26  1  0  0  0
 10 11  1  0  0  0
 10 13  1  0  0  0
 11 12  2  0  0  0
 11 36  1  0  0  0
 12 37  1  0  0  0
 13 14  1  0  0  0
 13 15  2  0  0  0
 14 16  1  0  0  0
 14 38  1  0  0  0
 16 17  1  0  0  0
 16 25  1  0  0  0
 16 39  1  0  0  0
 17 18  2  0  0  0
 17 22  1  0  0  0
 18 19  1  0  0  0
 18 40  1  0  0  0
 19 20  2  0  0  0
 19 41  1  0  0  0
 20 21  1  0  0  0
 20 42  1  0  0  0
 21 22  2  0  0  0
 21 23  1  0  0  0
 22 43  1  0  0  0
 23 24  1  0  0  0
 24 44  1  0  0  0
 24 45  1  0  0  0
 24 46  1  0  0  0
 25 47  1  0  0  0
 25 48  1  0  0  0
 25 49  1  0  0  0
 26 27  1  0  0  0
 26 50  1  0  0  0
 27 28  1  0  0  0
 27 51  1  0  0  0
 27 52  1  0  0  0
 28 29  1  0  0  0
 28 53  1  0  0  0
 28 54  1  0  0  0
 29 30  1  0  0  0
 29 55  1  0  0  0
 29 56  1  0  0  0
 30 57  1  0  0  0
 30 58  1  0  0  0
M  END
> <s_m_entry_id>
28195

> <s_m_entry_name>
dock_pv.356

> <s_m_Source_Path>
/home/csk/Desktop/cluster/DUD-E-result/rock1

> <s_m_Source_File>
dock_pv.maegz

> <i_m_Source_File_Index>
356

> <chembl_id>
CHEMBL4553926

> <chembl_pref_name>
None

> <i_lp_mmshare_version>
53161

> <r_lp_tautomer_probability>
1

> <s_lp_Force_Field>
OPLS_2005

> <r_lp_Energy>
26.212487

> <b_lp_Chiralities_Consistent>
1

> <s_lp_Variant>
CHEMBL3231_lig975 -1

> <s_i_glide_gridfile>
glide-grid_2etr

> <i_i_glide_lignum>
1389

> <i_i_glide_rotatable_bonds>
10

> <r_i_docking_score>
-7.63023907675425

> <r_i_glide_ligand_efficiency>
-0.254341302558475

> <r_i_glide_ligand_efficiency_sa>
-0.790297562020353

> <r_i_glide_ligand_efficiency_ln>
-1.73367345635215

> <r_i_glide_gscore>
-7.63023907675425

> <r_i_glide_lipo>
-3.05003002378823

> <r_i_glide_hbond>
-0.279528819301416

> <r_i_glide_metal>
0

> <r_i_glide_rewards>
-2.03148854552851

> <r_i_glide_evdw>
-48.5012168884277

> <r_i_glide_ecoul>
-4.84355688095093

> <r_i_glide_erotb>
0.960433376537783

> <r_i_glide_esite>
-0.07803068810985

> <r_i_glide_emodel>
-75.0403116304436

> <r_i_glide_energy>
-53.3447737693787

> <r_i_glide_einternal>
7.56684684753418

> <i_i_glide_confnum>
27

> <i_i_glide_posenum>
340

> <r_i_glide_eff_state_penalty>
0

> <s_user_duplicate_titles>
CHEMBL3231_lig975 ,CHEMBL3231_lig1631

> <i_f3d_flags>
0

> <s_m_subgroup_title>
dock_pv

> <s_m_subgroupid>
dock_pv

> <b_m_subgroup_collapsed>
1

$$$$
CHEMBL3231_lig1431
                    3D
 Schrodinger Suite 2021-1.
 39 42  0  0  1  0            999 V2000
   53.8720  100.6203   31.4013 C   0  0  0  0  0  0
   52.8090  101.5960   30.9343 C   0  0  0  0  0  0
   51.8224  101.5407   29.9408 C   0  0  0  0  0  0
   51.1593  102.6854   29.9007 N   0  0  0  0  0  0
   51.6435  103.5049   30.8914 N   0  0  0  0  0  0
   52.6294  102.8417   31.4946 N   0  0  0  0  0  0
   53.2272  103.4192   32.6944 C   0  0  0  0  0  0
   52.2788  103.3891   33.8917 C   0  0  0  0  0  0
   51.8567  102.1654   34.4231 C   0  0  0  0  0  0
   50.9607  102.1390   35.4892 C   0  0  0  0  0  0
   50.4901  103.3366   36.0242 C   0  0  0  0  0  0
   50.9114  104.5597   35.5048 C   0  0  0  0  0  0
   51.8057  104.5858   34.4370 C   0  0  0  0  0  0
   51.4656  100.4188   29.0243 C   0  0  0  0  0  0
   51.5652   99.0945   29.4650 C   0  0  0  0  0  0
   51.2156   98.0116   28.6567 C   0  0  0  0  0  0
   50.7958   98.3030   27.3586 C   0  0  0  0  0  0
   50.4422   97.5030   26.2912 N   0  0  0  0  0  0
   50.0407   98.2278   25.2305 N   0  0  0  0  0  0
   50.0911   99.4804   25.5929 C   0  0  0  0  0  0
   49.6461  100.4989   24.8105 N   0  0  0  0  0  0
   50.6403   99.6305   26.8988 C   0  0  0  0  0  0
   50.9803  100.6971   27.7414 C   0  0  0  0  0  0
   53.6444  100.1946   32.3775 H   0  0  0  0  0  0
   54.0116   99.7922   30.7072 H   0  0  0  0  0  0
   54.8457  101.1026   31.4816 H   0  0  0  0  0  0
   54.1479  102.8860   32.9307 H   0  0  0  0  0  0
   53.5279  104.4438   32.4601 H   0  0  0  0  0  0
   52.2143  101.2354   34.0056 H   0  0  0  0  0  0
   50.6313  101.1947   35.8983 H   0  0  0  0  0  0
   49.7939  103.3147   36.8501 H   0  0  0  0  0  0
   50.5466  105.4846   35.9271 H   0  0  0  0  0  0
   52.1263  105.5354   34.0302 H   0  0  0  0  0  0
   51.8887   98.8919   30.4756 H   0  0  0  0  0  0
   51.2441   96.9990   29.0297 H   0  0  0  0  0  0
   50.4634   96.4940   26.2483 H   0  0  0  0  0  0
   49.4408  101.4097   25.1936 H   0  0  0  0  0  0
   49.2830  100.3123   23.8790 H   0  0  0  0  0  0
   50.8705  101.7160   27.4008 H   0  0  0  0  0  0
  1  2  1  0  0  0
  1 24  1  0  0  0
  1 25  1  0  0  0
  1 26  1  0  0  0
  2  3  2  0  0  0
  2  6  1  0  0  0
  3  4  1  0  0  0
  3 14  1  0  0  0
  4  5  2  0  0  0
  5  6  1  0  0  0
  6  7  1  0  0  0
  7  8  1  0  0  0
  7 27  1  0  0  0
  7 28  1  0  0  0
  8  9  2  0  0  0
  8 13  1  0  0  0
  9 10  1  0  0  0
  9 29  1  0  0  0
 10 11  2  0  0  0
 10 30  1  0  0  0
 11 12  1  0  0  0
 11 31  1  0  0  0
 12 13  2  0  0  0
 12 32  1  0  0  0
 13 33  1  0  0  0
 14 15  2  0  0  0
 14 23  1  0  0  0
 15 16  1  0  0  0
 15 34  1  0  0  0
 16 17  2  0  0  0
 16 35  1  0  0  0
 17 18  1  0  0  0
 17 22  1  0  0  0
 18 19  1  0  0  0
 18 36  1  0  0  0
 19 20  2  0  0  0
 20 21  1  0  0  0
 20 22  1  0  0  0
 21 37  1  0  0  0
 21 38  1  0  0  0
 22 23  2  0  0  0
 23 39  1  0  0  0
M  END
> <s_m_entry_id>
28197

> <s_m_entry_name>
dock_pv.358

> <s_m_Source_Path>
/home/csk/Desktop/cluster/DUD-E-result/rock1

> <s_m_Source_File>
dock_pv.maegz

> <i_m_Source_File_Index>
358

> <chembl_id>
CHEMBL1989646

> <chembl_pref_name>
None

> <i_lp_mmshare_version>
53161

> <r_lp_tautomer_probability>
1

> <s_lp_Force_Field>
OPLS_2005

> <r_lp_Energy>
13.663844

> <b_lp_Chiralities_Consistent>
1

> <s_lp_Variant>
CHEMBL3231_lig1431-1

> <s_i_glide_gridfile>
glide-grid_2etr

> <i_i_glide_lignum>
2007

> <i_i_glide_rotatable_bonds>
3

> <r_i_docking_score>
-7.62849737819004

> <r_i_glide_ligand_efficiency>
-0.331673799051741

> <r_i_glide_ligand_efficiency_sa>
-0.943236164219333

> <r_i_glide_ligand_efficiency_ln>
-1.84463983743624

> <r_i_glide_gscore>
-7.62849737819004

> <r_i_glide_lipo>
-2.06173548934595

> <r_i_glide_hbond>
-0.552518845895124

> <r_i_glide_metal>
0

> <r_i_glide_rewards>
-2.45398313636364

> <r_i_glide_evdw>
-37.8237380981445

> <r_i_glide_ecoul>
-6.28469038009644

> <r_i_glide_erotb>
0.418077481728168

> <r_i_glide_esite>
-0.144446926391808

> <r_i_glide_emodel>
-64.2839057190394

> <r_i_glide_energy>
-44.108428478241

> <r_i_glide_einternal>
0.393277674913406

> <i_i_glide_confnum>
4

> <i_i_glide_posenum>
253

> <r_i_glide_eff_state_penalty>
0

> <s_user_duplicate_titles>
CHEMBL3231_lig1431

> <i_f3d_flags>
0

> <s_m_subgroup_title>
dock_pv

> <s_m_subgroupid>
dock_pv

> <b_m_subgroup_collapsed>
1

$$$$
CHEMBL3231_lig520
                    3D
 Schrodinger Suite 2021-1.
 59 63  0  0  1  0            999 V2000
   52.4419  102.1754   33.9554 C   0  0  1  0  0  0
   52.7693  102.5353   32.4862 C   0  0  0  0  0  0
   53.9508  103.1263   32.2015 C   0  0  0  0  0  0
   54.8704  103.3985   33.1627 N   0  0  0  0  0  0
   54.7208  103.1781   34.4867 C   0  0  0  0  0  0
   53.6363  102.4265   34.8141 N   0  0  0  0  0  0
   55.4300  103.7321   35.3236 O   0  0  0  0  0  0
   54.4345  103.5027   30.8118 C   0  0  0  0  0  0
   51.7744  102.3327   31.4546 C   0  0  0  0  0  0
   52.0723  101.3235   30.6051 N   0  0  0  0  0  0
   50.8193  103.1027   31.3397 O   0  0  0  0  0  0
   51.4916  101.0459   29.3522 C   0  0  0  0  0  0
   51.5402   99.7230   28.9007 C   0  0  0  0  0  0
   50.4430  101.7855   27.2591 C   0  0  0  0  0  0
   50.9565  102.0519   28.5303 C   0  0  0  0  0  0
   50.4760  100.4569   26.8329 C   0  0  0  0  0  0
   51.0129   99.4191   27.6329 C   0  0  0  0  0  0
   50.8423   98.2462   26.8355 C   0  0  0  0  0  0
   50.2854   98.5173   25.6829 N   0  0  0  0  0  0
   50.0588   99.8438   25.6669 N   0  0  0  0  0  0
   51.1604  102.7767   34.5375 C   0  0  0  0  0  0
   51.0177  104.1646   34.6649 C   0  0  0  0  0  0
   49.8407  104.7283   35.1932 C   0  0  0  0  0  0
   48.8118  103.8555   35.6104 C   0  0  0  0  0  0
   48.9622  102.4760   35.4966 C   0  0  0  0  0  0
   50.1250  101.9379   34.9568 C   0  0  0  0  0  0
   47.6429  104.3152   36.1184 F   0  0  0  0  0  0
   49.6626  106.2306   35.2929 C   0  0  0  0  0  0
   50.4429  107.0169   34.5270 N   0  0  0  0  0  0
   48.7885  106.7029   36.0109 O   0  0  0  0  0  0
   50.2843  108.4747   34.4115 C   0  0  0  0  0  0
   51.2565  109.2954   35.2554 C   0  0  0  0  0  0
   50.7058  110.2830   36.0117 N   0  0  0  0  0  0
   51.5355  111.0743   36.7374 C   0  0  0  0  0  0
   52.9226  110.9142   36.7434 C   0  0  0  0  0  0
   53.4773  109.8955   35.9652 C   0  0  0  0  0  0
   52.6381  109.0731   35.2102 C   0  0  0  0  0  0
   52.2996  101.0914   33.9951 H   0  0  0  0  0  0
   55.7389  103.8425   32.9052 H   0  0  0  0  0  0
   53.5600  102.1931   35.7922 H   0  0  0  0  0  0
   54.0436  104.4872   30.5422 H   0  0  0  0  0  0
   55.5239  103.5030   30.7997 H   0  0  0  0  0  0
   54.1264  102.7989   30.0408 H   0  0  0  0  0  0
   52.7873  100.6799   30.9083 H   0  0  0  0  0  0
   51.9643   98.9404   29.5154 H   0  0  0  0  0  0
   50.0457  102.5764   26.6411 H   0  0  0  0  0  0
   50.9605  103.0797   28.8649 H   0  0  0  0  0  0
   51.1157   97.2359   27.0933 H   0  0  0  0  0  0
   49.6337  100.2770   24.8596 H   0  0  0  0  0  0
   51.8373  104.7926   34.3394 H   0  0  0  0  0  0
   48.1636  101.8235   35.8212 H   0  0  0  0  0  0
   50.2152  100.8643   34.8724 H   0  0  0  0  0  0
   51.2634  106.6369   34.0707 H   0  0  0  0  0  0
   49.2558  108.7696   34.6398 H   0  0  0  0  0  0
   50.4448  108.7487   33.3687 H   0  0  0  0  0  0
   51.0639  111.8520   37.3211 H   0  0  0  0  0  0
   53.5523  111.5655   37.3338 H   0  0  0  0  0  0
   54.5481  109.7535   35.9385 H   0  0  0  0  0  0
   53.0578  108.3002   34.5817 H   0  0  0  0  0  0
  1  2  1  0  0  0
  1  6  1  0  0  0
  1 21  1  0  0  0
  1 38  1  0  0  0
  2  3  2  0  0  0
  2  9  1  0  0  0
  3  4  1  0  0  0
  3  8  1  0  0  0
  4  5  1  0  0  0
  4 39  1  0  0  0
  5  6  1  0  0  0
  5  7  2  0  0  0
  6 40  1  0  0  0
  8 41  1  0  0  0
  8 42  1  0  0  0
  8 43  1  0  0  0
  9 10  1  0  0  0
  9 11  2  0  0  0
 10 12  1  0  0  0
 10 44  1  0  0  0
 12 13  2  0  0  0
 12 15  1  0  0  0
 13 17  1  0  0  0
 13 45  1  0  0  0
 14 16  1  0  0  0
 14 15  2  0  0  0
 14 46  1  0  0  0
 15 47  1  0  0  0
 16 17  2  0  0  0
 16 20  1  0  0  0
 17 18  1  0  0  0
 18 19  2  0  0  0
 18 48  1  0  0  0
 19 20  1  0  0  0
 20 49  1  0  0  0
 21 22  2  0  0  0
 21 26  1  0  0  0
 22 23  1  0  0  0
 22 50  1  0  0  0
 23 24  2  0  0  0
 23 28  1  0  0  0
 24 25  1  0  0  0
 24 27  1  0  0  0
 25 26  2  0  0  0
 25 51  1  0  0  0
 26 52  1  0  0  0
 28 29  1  0  0  0
 28 30  2  0  0  0
 29 31  1  0  0  0
 29 53  1  0  0  0
 31 32  1  0  0  0
 31 54  1  0  0  0
 31 55  1  0  0  0
 32 33  2  0  0  0
 32 37  1  0  0  0
 33 34  1  0  0  0
 34 35  2  0  0  0
 34 56  1  0  0  0
 35 36  1  0  0  0
 35 57  1  0  0  0
 36 37  2  0  0  0
 36 58  1  0  0  0
 37 59  1  0  0  0
M  END
> <s_m_entry_id>
28198

> <s_m_entry_name>
dock_pv.359

> <s_m_Source_Path>
/home/csk/Desktop/cluster/DUD-E-result/rock1

> <s_m_Source_File>
dock_pv.maegz

> <i_m_Source_File_Index>
359

> <chembl_id>
CHEMBL3808660

> <chembl_pref_name>
None

> <i_lp_mmshare_version>
53161

> <r_lp_tautomer_probability>
0.980392156860701

> <s_lp_Force_Field>
OPLS_2005

> <r_lp_Energy>
45.847424

> <b_lp_Chiralities_Consistent>
1

> <s_lp_Variant>
CHEMBL3231_lig520-2

> <s_i_glide_gridfile>
glide-grid_2etr

> <i_i_glide_lignum>
758

> <i_i_glide_rotatable_bonds>
8

> <r_i_docking_score>
-7.62753598722082

> <r_i_glide_ligand_efficiency>
-0.206149621276238

> <r_i_glide_ligand_efficiency_sa>
-0.686936271898395

> <r_i_glide_ligand_efficiency_ln>
-1.65423374081423

> <r_i_glide_gscore>
-7.62753598722082

> <r_i_glide_lipo>
-2.62893972766411

> <r_i_glide_hbond>
-0.210049356382146

> <r_i_glide_metal>
0

> <r_i_glide_rewards>
-0.709062413057161

> <r_i_glide_evdw>
-56.0734329223633

> <r_i_glide_ecoul>
-11.4297971725464

> <r_i_glide_erotb>
0.572723771701763

> <r_i_glide_esite>
-0.134067039819044

> <r_i_glide_emodel>
-93.7570279572195

> <r_i_glide_energy>
-67.5032300949097

> <r_i_glide_einternal>
12.3438310623169

> <i_i_glide_confnum>
4

> <i_i_glide_posenum>
9

> <r_i_glide_eff_state_penalty>
0

> <s_user_duplicate_titles>
CHEMBL3231_lig520,CHEMBL3231_lig520

> <i_f3d_flags>
0

> <s_m_subgroup_title>
dock_pv

> <s_m_subgroupid>
dock_pv

> <b_m_subgroup_collapsed>
1

$$$$
CHEMBL3231_lig904
                    3D
 Schrodinger Suite 2021-1.
 32 34  0  0  1  0            999 V2000
   53.4642  100.1702   33.7840 C   0  0  0  0  0  0
   53.2293  100.5639   32.3067 C   0  0  0  0  0  0
   54.5909  100.7703   31.5913 C   0  0  0  0  0  0
   52.3780   99.5596   31.5904 N   0  0  0  0  0  0
   52.4625  101.8450   32.3400 N   0  0  0  0  0  0
   51.7998  102.3955   31.2894 C   0  0  0  0  0  0
   51.9223  100.0526   30.3844 C   0  0  0  0  0  0
   51.6841  101.4245   30.2283 C   0  0  0  0  0  0
   51.0596  101.8075   28.6563 S   0  0  0  0  0  0
   51.1414  100.1401   28.1727 C   0  0  0  0  0  0
   51.6422   99.3476   29.2020 C   0  0  0  0  0  0
   51.2722  103.5028   31.3716 O   0  0  0  0  0  0
   50.6838   99.7059   26.8672 C   0  0  0  0  0  0
   50.5083   98.3845   26.4282 C   0  0  0  0  0  0
   50.0429   98.3035   25.2056 N   0  0  0  0  0  0
   49.9166   99.5739   24.8110 N   0  0  0  0  0  0
   50.2950  100.4683   25.7744 C   0  0  0  0  0  0
   52.8707   98.1790   31.6492 C   0  0  0  0  0  0
   52.5292   99.9379   34.2961 H   0  0  0  0  0  0
   54.1199   99.3043   33.8791 H   0  0  0  0  0  0
   53.9487  100.9768   34.3364 H   0  0  0  0  0  0
   54.4755  101.0708   30.5488 H   0  0  0  0  0  0
   55.1800  101.5485   32.0782 H   0  0  0  0  0  0
   55.1994   99.8653   31.5998 H   0  0  0  0  0  0
   52.0978  102.1372   33.2322 H   0  0  0  0  0  0
   51.7681   98.2797   29.1056 H   0  0  0  0  0  0
   50.7072   97.4946   27.0081 H   0  0  0  0  0  0
   49.5533   99.8218   23.8964 H   0  0  0  0  0  0
   50.2359  101.5348   25.6117 H   0  0  0  0  0  0
   52.1405   97.4907   31.2211 H   0  0  0  0  0  0
   53.0351   97.8429   32.6723 H   0  0  0  0  0  0
   53.8036   98.0650   31.0955 H   0  0  0  0  0  0
  1  2  1  0  0  0
  1 19  1  0  0  0
  1 20  1  0  0  0
  1 21  1  0  0  0
  2  3  1  0  0  0
  2  4  1  0  0  0
  2  5  1  0  0  0
  3 22  1  0  0  0
  3 23  1  0  0  0
  3 24  1  0  0  0
  4  7  1  0  0  0
  4 18  1  0  0  0
  5  6  1  0  0  0
  5 25  1  0  0  0
  6  8  1  0  0  0
  6 12  2  0  0  0
  7  8  2  0  0  0
  7 11  1  0  0  0
  8  9  1  0  0  0
  9 10  1  0  0  0
 10 11  2  0  0  0
 10 13  1  0  0  0
 11 26  1  0  0  0
 13 17  2  0  0  0
 13 14  1  0  0  0
 14 27  1  0  0  0
 14 15  2  0  0  0
 15 16  1  0  0  0
 16 28  1  0  0  0
 16 17  1  0  0  0
 17 29  1  0  0  0
 18 30  1  0  0  0
 18 31  1  0  0  0
 18 32  1  0  0  0
M  END
> <s_m_entry_id>
28199

> <s_m_entry_name>
dock_pv.360

> <s_m_Source_Path>
/home/csk/Desktop/cluster/DUD-E-result/rock1

> <s_m_Source_File>
dock_pv.maegz

> <i_m_Source_File_Index>
360

> <chembl_id>
CHEMBL4209617

> <chembl_pref_name>
None

> <i_lp_mmshare_version>
53161

> <r_lp_tautomer_probability>
0.5

> <s_lp_Force_Field>
OPLS_2005

> <r_lp_Energy>
19.797214

> <b_lp_Chiralities_Consistent>
1

> <s_lp_Variant>
CHEMBL3231_lig904-1

> <s_i_glide_gridfile>
glide-grid_2etr

> <i_i_glide_lignum>
1298

> <i_i_glide_rotatable_bonds>
1

> <r_i_docking_score>
-7.62611553474834

> <r_i_glide_ligand_efficiency>
-0.423673085263797

> <r_i_glide_ligand_efficiency_sa>
-1.11033759109326

> <r_i_glide_ligand_efficiency_ln>
-1.96025367479852

> <r_i_glide_gscore>
-7.62611553474834

> <r_i_glide_lipo>
-1.80150143028525

> <r_i_glide_hbond>
-0.692479018730211

> <r_i_glide_metal>
0

> <r_i_glide_rewards>
-2.63569118613317

> <r_i_glide_evdw>
-31.1834468841553

> <r_i_glide_ecoul>
-7.01567363739014

> <r_i_glide_erotb>
0.180429210109149

> <r_i_glide_esite>
-0.0653497198925771

> <r_i_glide_emodel>
-56.5944751647936

> <r_i_glide_energy>
-38.1991205215454

> <r_i_glide_einternal>
0.00590094085782766

> <i_i_glide_confnum>
2

> <i_i_glide_posenum>
57

> <r_i_glide_eff_state_penalty>
0

> <s_user_duplicate_titles>
CHEMBL3231_lig904

> <i_f3d_flags>
0

> <s_m_subgroup_title>
dock_pv

> <s_m_subgroupid>
dock_pv

> <b_m_subgroup_collapsed>
1

$$$$
CHEMBL3231_lig1149
                    3D
 Schrodinger Suite 2021-1.
 29 31  0  0  1  0            999 V2000
   52.8430   98.6867   32.4917 S   0  0  0  0  0  0
   50.8821  101.6671   28.6405 F   0  0  0  0  0  0
   53.9751  101.1141   33.8978 O   0  0  0  0  0  0
   50.8430   97.6041   29.2388 N   0  0  0  0  0  0
   51.2626   97.3059   30.4855 N   0  0  0  0  0  0
   54.4426  102.2871   32.0110 N   0  0  0  0  0  0
   52.0505   99.3251   30.0572 C   0  0  0  0  0  0
   51.2830   98.8129   28.9566 C   0  0  0  0  0  0
   51.9973   98.3208   31.0131 C   0  0  0  0  0  0
   53.2612  100.2710   31.8287 C   0  0  0  0  0  0
   50.9507   99.4739   27.6539 C   0  0  0  0  0  0
   52.8052  100.4415   30.5214 C   0  0  0  0  0  0
   53.9326  101.2349   32.6713 C   0  0  0  0  0  0
   50.7761  100.8652   27.5564 C   0  0  0  0  0  0
   50.7698   98.6891   26.5044 C   0  0  0  0  0  0
   50.4430  101.4494   26.3362 C   0  0  0  0  0  0
   50.4105   99.2773   25.2927 C   0  0  0  0  0  0
   50.2448  100.6550   25.2107 C   0  0  0  0  0  0
   55.0690  103.4405   32.6415 C   0  0  0  0  0  0
   51.0491   96.4085   30.9032 H   0  0  0  0  0  0
   54.5822  102.2007   31.0145 H   0  0  0  0  0  0
   52.9639  101.3363   29.9378 H   0  0  0  0  0  0
   50.8948   97.6164   26.5505 H   0  0  0  0  0  0
   50.3011  102.5182   26.2716 H   0  0  0  0  0  0
   50.2552   98.6731   24.4128 H   0  0  0  0  0  0
   49.9502  101.1017   24.2731 H   0  0  0  0  0  0
   54.4793  104.3345   32.4370 H   0  0  0  0  0  0
   56.0599  103.5800   32.2162 H   0  0  0  0  0  0
   55.1761  103.3399   33.7230 H   0  0  0  0  0  0
  1  9  1  0  0  0
  1 10  1  0  0  0
  2 14  1  0  0  0
  3 13  2  0  0  0
  4  5  1  0  0  0
  4  8  2  0  0  0
  5  9  1  0  0  0
  5 20  1  0  0  0
  6 13  1  0  0  0
  6 19  1  0  0  0
  6 21  1  0  0  0
  7  8  1  0  0  0
  7  9  2  0  0  0
  7 12  1  0  0  0
  8 11  1  0  0  0
 10 12  2  0  0  0
 10 13  1  0  0  0
 11 14  1  0  0  0
 11 15  2  0  0  0
 12 22  1  0  0  0
 14 16  2  0  0  0
 15 17  1  0  0  0
 15 23  1  0  0  0
 16 18  1  0  0  0
 16 24  1  0  0  0
 17 18  2  0  0  0
 17 25  1  0  0  0
 18 26  1  0  0  0
 19 27  1  0  0  0
 19 28  1  0  0  0
 19 29  1  0  0  0
M  END
> <s_m_entry_id>
28200

> <s_m_entry_name>
dock_pv.361

> <s_m_Source_Path>
/home/csk/Desktop/cluster/DUD-E-result/rock1

> <s_m_Source_File>
dock_pv.maegz

> <i_m_Source_File_Index>
361

> <chembl_id>
CHEMBL1977681

> <chembl_pref_name>
None

> <i_lp_mmshare_version>
53161

> <r_lp_tautomer_probability>
1

> <s_lp_Force_Field>
OPLS_2005

> <r_lp_Energy>
44.198819

> <b_lp_Chiralities_Consistent>
1

> <s_lp_Variant>
CHEMBL3231_lig1149-1

> <s_i_glide_gridfile>
glide-grid_2etr

> <i_i_glide_lignum>
1594

> <i_i_glide_rotatable_bonds>
3

> <r_i_docking_score>
-7.62582913626085

> <r_i_glide_ligand_efficiency>
-0.401359428224255

> <r_i_glide_ligand_efficiency_sa>
-1.07098815895255

> <r_i_glide_ligand_efficiency_ln>
-1.93331147383408

> <r_i_glide_gscore>
-7.62582913626085

> <r_i_glide_lipo>
-2.39698368899525

> <r_i_glide_hbond>
-0.32

> <r_i_glide_metal>
0

> <r_i_glide_rewards>
-3.14867181876939

> <r_i_glide_evdw>
-32.939525604248

> <r_i_glide_ecoul>
-3.51659345626831

> <r_i_glide_erotb>
0.474247153318883

> <r_i_glide_esite>
-0.0599554831624458

> <r_i_glide_emodel>
-53.2273077221703

> <r_i_glide_energy>
-36.4561190605164

> <r_i_glide_einternal>
2.20165610313416

> <i_i_glide_confnum>
3

> <i_i_glide_posenum>
287

> <r_i_glide_eff_state_penalty>
0

> <s_user_duplicate_titles>
CHEMBL3231_lig1149

> <i_f3d_flags>
0

> <s_m_subgroup_title>
dock_pv

> <s_m_subgroupid>
dock_pv

> <b_m_subgroup_collapsed>
1

$$$$
CHEMBL3231_lig589
                    3D
 Schrodinger Suite 2021-1.
 55 58  0  0  1  0            999 V2000
   51.3934   97.4827   30.3783 C   0  0  0  0  0  0
   51.2747   98.2744   29.1980 O   0  0  0  0  0  0
   51.3422   99.6551   29.2711 C   0  0  0  0  0  0
   51.6521  100.3263   30.4646 C   0  0  0  0  0  0
   51.6509  101.7282   30.5503 C   0  0  0  0  0  0
   51.3750  102.4598   29.3924 C   0  0  0  0  0  0
   51.0772  101.8102   28.2002 C   0  0  0  0  0  0
   51.0500  100.4119   28.1187 C   0  0  0  0  0  0
   50.6591   99.8046   26.7998 C   0  0  0  0  0  0
   50.4175  100.4646   25.6000 C   0  0  0  0  0  0
   50.0427   99.5143   24.6973 N   0  0  0  0  0  0
   50.0430   98.2874   25.2110 N   0  0  0  0  0  0
   50.4212   98.4580   26.4542 C   0  0  0  0  0  0
   51.8747  102.4467   31.8639 C   0  0  0  0  0  0
   51.6430  103.6513   31.9739 O   0  0  0  0  0  0
   52.2923  101.6877   32.8917 N   0  0  0  0  0  0
   52.4828  102.1086   34.2828 C   0  0  2  0  0  0
   53.1201  100.9757   35.1343 C   0  0  0  0  0  0
   54.5187  100.6670   34.8029 N   0  0  0  0  0  0
   54.7321   99.9864   33.5269 C   0  0  0  0  0  0
   56.1082   99.3215   33.6111 C   0  0  0  0  0  0
   56.4066   99.2616   35.1086 C   0  0  0  0  0  0
   55.1147   99.7467   35.7632 C   0  0  0  0  0  0
   51.1771  102.6034   34.9252 C   0  0  0  0  0  0
   51.0770  103.9183   35.3933 C   0  0  0  0  0  0
   49.8897  104.3677   35.9675 C   0  0  0  0  0  0
   48.8025  103.5027   36.0752 C   0  0  0  0  0  0
   48.8915  102.1919   35.6132 C   0  0  0  0  0  0
   50.0785  101.7415   35.0416 C   0  0  0  0  0  0
   51.2427   96.4338   30.1224 H   0  0  0  0  0  0
   52.3857   97.5702   30.8231 H   0  0  0  0  0  0
   50.6387   97.7468   31.1210 H   0  0  0  0  0  0
   51.8558   99.7454   31.3493 H   0  0  0  0  0  0
   51.3719  103.5408   29.4085 H   0  0  0  0  0  0
   50.8433  102.4183   27.3403 H   0  0  0  0  0  0
   50.4523  101.5034   25.3159 H   0  0  0  0  0  0
   49.7544   99.7015   23.7430 H   0  0  0  0  0  0
   50.5002   97.6020   27.1064 H   0  0  0  0  0  0
   52.7159  100.8049   32.6558 H   0  0  0  0  0  0
   53.1986  102.9351   34.2737 H   0  0  0  0  0  0
   53.0935  101.2880   36.1803 H   0  0  0  0  0  0
   52.5136  100.0696   35.0773 H   0  0  0  0  0  0
   53.9477   99.2604   33.3053 H   0  0  0  0  0  0
   54.7098  100.7168   32.7174 H   0  0  0  0  0  0
   56.0881   98.3248   33.1680 H   0  0  0  0  0  0
   56.8646   99.8998   33.0793 H   0  0  0  0  0  0
   57.2430   99.9068   35.3790 H   0  0  0  0  0  0
   56.6643   98.2530   35.4335 H   0  0  0  0  0  0
   55.2977  100.2819   36.6962 H   0  0  0  0  0  0
   54.4440   98.9257   36.0253 H   0  0  0  0  0  0
   51.9143  104.5965   35.3054 H   0  0  0  0  0  0
   49.8140  105.3836   36.3264 H   0  0  0  0  0  0
   47.8805  103.8482   36.5202 H   0  0  0  0  0  0
   48.0442  101.5277   35.7033 H   0  0  0  0  0  0
   50.1427  100.7251   34.6806 H   0  0  0  0  0  0
  1  2  1  0  0  0
  1 30  1  0  0  0
  1 31  1  0  0  0
  1 32  1  0  0  0
  2  3  1  0  0  0
  3  4  2  0  0  0
  3  8  1  0  0  0
  4  5  1  0  0  0
  4 33  1  0  0  0
  5  6  2  0  0  0
  5 14  1  0  0  0
  6  7  1  0  0  0
  6 34  1  0  0  0
  7  8  2  0  0  0
  7 35  1  0  0  0
  8  9  1  0  0  0
  9 10  2  0  0  0
  9 13  1  0  0  0
 10 11  1  0  0  0
 10 36  1  0  0  0
 11 12  1  0  0  0
 11 37  1  0  0  0
 12 13  2  0  0  0
 13 38  1  0  0  0
 14 15  2  0  0  0
 14 16  1  0  0  0
 16 17  1  0  0  0
 16 39  1  0  0  0
 17 18  1  0  0  0
 17 24  1  0  0  0
 17 40  1  0  0  0
 18 19  1  0  0  0
 18 41  1  0  0  0
 18 42  1  0  0  0
 19 20  1  0  0  0
 19 23  1  0  0  0
 20 21  1  0  0  0
 20 43  1  0  0  0
 20 44  1  0  0  0
 21 22  1  0  0  0
 21 45  1  0  0  0
 21 46  1  0  0  0
 22 23  1  0  0  0
 22 47  1  0  0  0
 22 48  1  0  0  0
 23 49  1  0  0  0
 23 50  1  0  0  0
 24 25  2  0  0  0
 24 29  1  0  0  0
 25 26  1  0  0  0
 25 51  1  0  0  0
 26 27  2  0  0  0
 26 52  1  0  0  0
 27 28  1  0  0  0
 27 53  1  0  0  0
 28 29  2  0  0  0
 28 54  1  0  0  0
 29 55  1  0  0  0
M  END
> <s_m_entry_id>
28201

> <s_m_entry_name>
dock_pv.362

> <s_m_Source_Path>
/home/csk/Desktop/cluster/DUD-E-result/rock1

> <s_m_Source_File>
dock_pv.maegz

> <i_m_Source_File_Index>
362

> <chembl_id>
CHEMBL3943121

> <chembl_pref_name>
None

> <i_lp_mmshare_version>
53161

> <r_lp_tautomer_probability>
0.5

> <s_lp_Force_Field>
OPLS_2005

> <r_lp_Energy>
45.067823

> <b_lp_Chiralities_Consistent>
1

> <s_lp_Variant>
CHEMBL3231_lig589-1

> <s_i_glide_gridfile>
glide-grid_2etr

> <i_i_glide_lignum>
873

> <i_i_glide_rotatable_bonds>
8

> <r_i_docking_score>
-7.62351304938522

> <r_i_glide_ligand_efficiency>
-0.262879760323628

> <r_i_glide_ligand_efficiency_sa>
-0.807649909868014

> <r_i_glide_ligand_efficiency_ln>
-1.74559117269801

> <r_i_glide_gscore>
-7.62351304938522

> <r_i_glide_lipo>
-2.83795286411757

> <r_i_glide_hbond>
-0.662534166987504

> <r_i_glide_metal>
0

> <r_i_glide_rewards>
-1.59635303307143

> <r_i_glide_evdw>
-44.4483070373535

> <r_i_glide_ecoul>
-5.91322708129883

> <r_i_glide_erotb>
0.626824239267567

> <r_i_glide_esite>
-0.044097810413786

> <r_i_glide_emodel>
-72.2329985896495

> <r_i_glide_energy>
-50.3615341186523

> <r_i_glide_einternal>
3.62896323204041

> <i_i_glide_confnum>
64

> <i_i_glide_posenum>
109

> <r_i_glide_eff_state_penalty>
0

> <s_user_duplicate_titles>
CHEMBL3231_lig589

> <i_f3d_flags>
0

> <s_m_subgroup_title>
dock_pv

> <s_m_subgroupid>
dock_pv

> <b_m_subgroup_collapsed>
1

$$$$
CHEMBL3231_lig1888
                    3D
 Schrodinger Suite 2021-1.
 28 30  0  0  1  0            999 V2000
   52.9547  100.6717   32.2214 S   0  0  0  0  0  0
   52.3062  104.0310   31.6112 O   0  0  0  0  0  0
   51.2451   97.4015   30.5526 N   0  0  0  0  0  0
   54.4430  103.5030   31.0812 N   0  0  0  0  0  0
   51.9485  100.0260   29.8450 C   0  0  0  0  0  0
   52.2217   99.4971   31.1462 C   0  0  0  0  0  0
   51.2981   99.1893   28.8994 C   0  0  0  0  0  0
   52.8159  101.8747   30.9693 C   0  0  0  0  0  0
   52.3881  101.3778   29.7569 C   0  0  0  0  0  0
   50.8957   99.6210   27.5301 C   0  0  0  0  0  0
   51.8879   98.1775   31.4454 C   0  0  0  0  0  0
   50.9720   97.9020   29.3345 C   0  0  0  0  0  0
   53.1582  103.2187   31.2619 C   0  0  0  0  0  0
   50.9028   98.7028   26.4702 C   0  0  0  0  0  0
   50.4416  100.9215   27.2869 C   0  0  0  0  0  0
   50.4430   99.0691   25.2110 C   0  0  0  0  0  0
   50.0431  101.3029   26.0139 C   0  0  0  0  0  0
   50.0262  100.3725   24.9847 C   0  0  0  0  0  0
   55.0970  102.7805   30.8103 H   0  0  0  0  0  0
   54.7851  104.4526   31.2102 H   0  0  0  0  0  0
   52.3260  101.9814   28.8658 H   0  0  0  0  0  0
   52.0937   97.7384   32.4109 H   0  0  0  0  0  0
   50.4430   97.2175   28.6895 H   0  0  0  0  0  0
   51.2475   97.6906   26.6197 H   0  0  0  0  0  0
   50.3594  101.6446   28.0821 H   0  0  0  0  0  0
   50.4309   98.3506   24.4110 H   0  0  0  0  0  0
   49.6922  102.3072   25.8360 H   0  0  0  0  0  0
   49.6738  100.6687   24.0097 H   0  0  0  0  0  0
  1  6  1  0  0  0
  1  8  1  0  0  0
  2 13  2  0  0  0
  3 11  1  0  0  0
  3 12  2  0  0  0
  4 13  1  0  0  0
  4 19  1  0  0  0
  4 20  1  0  0  0
  5  6  1  0  0  0
  5  7  2  0  0  0
  5  9  1  0  0  0
  6 11  2  0  0  0
  7 10  1  0  0  0
  7 12  1  0  0  0
  8  9  2  0  0  0
  8 13  1  0  0  0
  9 21  1  0  0  0
 10 14  2  0  0  0
 10 15  1  0  0  0
 11 22  1  0  0  0
 12 23  1  0  0  0
 14 16  1  0  0  0
 14 24  1  0  0  0
 15 17  2  0  0  0
 15 25  1  0  0  0
 16 18  2  0  0  0
 16 26  1  0  0  0
 17 18  1  0  0  0
 17 27  1  0  0  0
 18 28  1  0  0  0
M  END
> <s_m_entry_id>
28202

> <s_m_entry_name>
dock_pv.363

> <s_m_Source_Path>
/home/csk/Desktop/cluster/DUD-E-result/rock1

> <s_m_Source_File>
dock_pv.maegz

> <i_m_Source_File_Index>
363

> <chembl_id>
CHEMBL1999556

> <chembl_pref_name>
None

> <i_lp_mmshare_version>
53161

> <r_lp_tautomer_probability>
1

> <s_lp_Force_Field>
OPLS_2005

> <r_lp_Energy>
9.550498

> <b_lp_Chiralities_Consistent>
1

> <s_lp_Variant>
CHEMBL3231_lig1888-1

> <s_i_glide_gridfile>
glide-grid_2etr

> <i_i_glide_lignum>
2734

> <i_i_glide_rotatable_bonds>
2

> <r_i_docking_score>
-7.62233914226277

> <r_i_glide_ligand_efficiency>
-0.423463285681265

> <r_i_glide_ligand_efficiency_sa>
-1.10978776064337

> <r_i_glide_ligand_efficiency_ln>
-1.95928297258275

> <r_i_glide_gscore>
-7.62233914226277

> <r_i_glide_lipo>
-2.52367587833083

> <r_i_glide_hbond>
-0.567083217641105

> <r_i_glide_metal>
0

> <r_i_glide_rewards>
-2.15850606060606

> <r_i_glide_evdw>
-30.2395763397217

> <r_i_glide_ecoul>
-6.93983554840088

> <r_i_glide_erotb>
0.271909952180359

> <r_i_glide_esite>
-0.0920297886189135

> <r_i_glide_emodel>
-49.8874773912617

> <r_i_glide_energy>
-37.1794118881226

> <r_i_glide_einternal>
7.59004783630371

> <i_i_glide_confnum>
4

> <i_i_glide_posenum>
313

> <r_i_glide_eff_state_penalty>
0

> <s_user_duplicate_titles>
CHEMBL3231_lig1888

> <i_f3d_flags>
0

> <s_m_subgroup_title>
dock_pv

> <s_m_subgroupid>
dock_pv

> <b_m_subgroup_collapsed>
1

$$$$
CHEMBL3231_lig816
                    3D
 Schrodinger Suite 2021-1.
 55 58  0  0  1  0            999 V2000
   51.4023   97.6288   30.4120 C   0  0  0  0  0  0
   51.2427   98.3781   29.2094 O   0  0  0  0  0  0
   51.3145   99.7616   29.2309 C   0  0  0  0  0  0
   51.6473  100.4815   30.3925 C   0  0  0  0  0  0
   51.6444  101.8866   30.4177 C   0  0  0  0  0  0
   51.3615  102.5681   29.2311 C   0  0  0  0  0  0
   51.0415  101.8715   28.0738 C   0  0  0  0  0  0
   50.9971  100.4729   28.0553 C   0  0  0  0  0  0
   50.5543   99.8240   26.7742 C   0  0  0  0  0  0
   50.0165  100.4452   25.6507 C   0  0  0  0  0  0
   49.7297   99.4544   24.7589 N   0  0  0  0  0  0
   50.0429   98.2436   25.2120 N   0  0  0  0  0  0
   50.5509   98.4651   26.4005 C   0  0  0  0  0  0
   51.8679  102.6717   31.6921 C   0  0  0  0  0  0
   51.6478  103.8825   31.7270 O   0  0  0  0  0  0
   52.2669  101.9821   32.7748 N   0  0  0  0  0  0
   52.4366  102.5275   34.1292 C   0  0  2  0  0  0
   53.1378  101.5074   35.0564 C   0  0  0  0  0  0
   54.3525  100.9304   34.4386 N   0  0  3  0  0  0
   55.0040   99.3931   34.9654 S   0  0  0  0  0  0
   55.8588   98.9074   33.8820 O   0  0  0  0  0  0
   53.8899   98.5762   35.4602 O   0  0  0  0  0  0
   56.1279   99.8691   36.4095 C   0  0  0  0  0  0
   55.5208   99.9474   37.7842 C   0  0  0  0  0  0
   56.4463   98.7921   37.4083 C   0  0  0  0  0  0
   51.1183  103.0194   34.7450 C   0  0  0  0  0  0
   50.9826  104.3536   35.1431 C   0  0  0  0  0  0
   49.7869  104.7985   35.7036 C   0  0  0  0  0  0
   48.7261  103.9098   35.8668 C   0  0  0  0  0  0
   48.8494  102.5801   35.4714 C   0  0  0  0  0  0
   50.0440  102.1358   34.9101 C   0  0  0  0  0  0
   51.2374   96.5715   30.2041 H   0  0  0  0  0  0
   52.4096   97.7305   30.8184 H   0  0  0  0  0  0
   50.6765   97.9236   31.1709 H   0  0  0  0  0  0
   51.8664   99.9401   31.2988 H   0  0  0  0  0  0
   51.3651  103.6489   29.1977 H   0  0  0  0  0  0
   50.8068  102.4438   27.1901 H   0  0  0  0  0  0
   49.7943  101.4756   25.4161 H   0  0  0  0  0  0
   49.3058   99.5969   23.8467 H   0  0  0  0  0  0
   50.9034   97.6369   26.9959 H   0  0  0  0  0  0
   52.6603  101.0655   32.6229 H   0  0  0  0  0  0
   53.1174  103.3788   34.0389 H   0  0  0  0  0  0
   52.4517  100.6875   35.2720 H   0  0  0  0  0  0
   53.4069  101.9565   36.0128 H   0  0  0  0  0  0
   54.8927  101.4827   33.7664 H   0  0  0  0  0  0
   56.9137  100.5569   36.0933 H   0  0  0  0  0  0
   54.4542   99.7591   37.9011 H   0  0  0  0  0  0
   55.8808  100.7148   38.4681 H   0  0  0  0  0  0
   57.4546   98.7531   37.8198 H   0  0  0  0  0  0
   56.0280   97.7973   37.2508 H   0  0  0  0  0  0
   51.7992  105.0495   35.0140 H   0  0  0  0  0  0
   49.6849  105.8296   36.0077 H   0  0  0  0  0  0
   47.7981  104.2524   36.3019 H   0  0  0  0  0  0
   48.0222  101.8974   35.6007 H   0  0  0  0  0  0
   50.1353  101.1047   34.6013 H   0  0  0  0  0  0
  1  2  1  0  0  0
  1 32  1  0  0  0
  1 33  1  0  0  0
  1 34  1  0  0  0
  2  3  1  0  0  0
  3  4  2  0  0  0
  3  8  1  0  0  0
  4  5  1  0  0  0
  4 35  1  0  0  0
  5  6  2  0  0  0
  5 14  1  0  0  0
  6  7  1  0  0  0
  6 36  1  0  0  0
  7  8  2  0  0  0
  7 37  1  0  0  0
  8  9  1  0  0  0
  9 10  2  0  0  0
  9 13  1  0  0  0
 10 11  1  0  0  0
 10 38  1  0  0  0
 11 12  1  0  0  0
 11 39  1  0  0  0
 12 13  2  0  0  0
 13 40  1  0  0  0
 14 15  2  0  0  0
 14 16  1  0  0  0
 16 17  1  0  0  0
 16 41  1  0  0  0
 17 18  1  0  0  0
 17 26  1  0  0  0
 17 42  1  0  0  0
 18 19  1  0  0  0
 18 43  1  0  0  0
 18 44  1  0  0  0
 19 20  1  0  0  0
 19 45  1  0  0  0
 20 21  2  0  0  0
 20 22  2  0  0  0
 20 23  1  0  0  0
 23 24  1  0  0  0
 23 25  1  0  0  0
 23 46  1  0  0  0
 24 25  1  0  0  0
 24 47  1  0  0  0
 24 48  1  0  0  0
 25 49  1  0  0  0
 25 50  1  0  0  0
 26 27  2  0  0  0
 26 31  1  0  0  0
 27 28  1  0  0  0
 27 51  1  0  0  0
 28 29  2  0  0  0
 28 52  1  0  0  0
 29 30  1  0  0  0
 29 53  1  0  0  0
 30 31  2  0  0  0
 30 54  1  0  0  0
 31 55  1  0  0  0
M  END
> <s_m_entry_id>
28203

> <s_m_entry_name>
dock_pv.364

> <s_m_Source_Path>
/home/csk/Desktop/cluster/DUD-E-result/rock1

> <s_m_Source_File>
dock_pv.maegz

> <i_m_Source_File_Index>
364

> <chembl_id>
CHEMBL4107417

> <chembl_pref_name>
None

> <i_lp_mmshare_version>
53161

> <r_lp_tautomer_probability>
0.5

> <s_lp_Force_Field>
OPLS_2005

> <r_lp_Energy>
25.979832

> <b_lp_Chiralities_Consistent>
1

> <s_lp_Variant>
CHEMBL3231_lig816-1

> <s_i_glide_gridfile>
glide-grid_2etr

> <i_i_glide_lignum>
1144

> <i_i_glide_rotatable_bonds>
10

> <r_i_docking_score>
-7.6173485092832

> <r_i_glide_ligand_efficiency>
-0.245720919654297

> <r_i_glide_ligand_efficiency_sa>
-0.77190294200626

> <r_i_glide_ligand_efficiency_ln>
-1.71794553253964

> <r_i_glide_gscore>
-7.6173485092832

> <r_i_glide_lipo>
-2.72801612462369

> <r_i_glide_hbond>
-0.698882024235992

> <r_i_glide_metal>
0

> <r_i_glide_rewards>
-1.32388931188176

> <r_i_glide_evdw>
-44.1208686828613

> <r_i_glide_ecoul>
-6.89959239959717

> <r_i_glide_erotb>
0.504186576703646

> <r_i_glide_esite>
-0.129765331162763

> <r_i_glide_emodel>
-72.0739592346188

> <r_i_glide_energy>
-51.0204610824585

> <r_i_glide_einternal>
7.8319878578186

> <i_i_glide_confnum>
27

> <i_i_glide_posenum>
50

> <r_i_glide_eff_state_penalty>
0

> <s_user_duplicate_titles>
CHEMBL3231_lig816

> <i_f3d_flags>
0

> <s_m_subgroup_title>
dock_pv

> <s_m_subgroupid>
dock_pv

> <b_m_subgroup_collapsed>
1

$$$$
CHEMBL3231_lig1277
                    3D
 Schrodinger Suite 2021-1.
 46 50  0  0  1  0            999 V2000
   49.7137  100.5567   24.8109 N   0  0  0  0  0  0
   50.1185   99.5212   25.5947 C   0  0  0  0  0  0
   50.0430   98.2758   25.2119 N   0  0  0  0  0  0
   50.4370   97.5239   26.2557 N   0  0  0  0  0  0
   50.7904   98.2983   27.3417 C   0  0  0  0  0  0
   51.2051   97.9683   28.6303 C   0  0  0  0  0  0
   51.5372   99.0243   29.4777 C   0  0  0  0  0  0
   51.4261  100.3656   29.0919 C   0  0  0  0  0  0
   50.9711  100.6766   27.8000 C   0  0  0  0  0  0
   50.6427   99.6370   26.9177 C   0  0  0  0  0  0
   51.7227  101.4678   30.0696 C   0  0  0  0  0  0
   51.2815  102.6967   29.8424 N   0  0  0  0  0  0
   51.6369  103.5044   30.8943 N   0  0  0  0  0  0
   52.2940  102.7387   31.7598 N   0  0  0  0  0  0
   52.7164  103.3183   33.0332 C   0  0  0  0  0  0
   51.5511  103.6421   33.9693 C   0  0  0  0  0  0
   51.3939  104.9398   34.4641 C   0  0  0  0  0  0
   50.3287  105.2395   35.3106 C   0  0  0  0  0  0
   49.4244  104.2397   35.6654 C   0  0  0  0  0  0
   49.5755  102.9424   35.1809 C   0  0  0  0  0  0
   50.6398  102.6440   34.3334 C   0  0  0  0  0  0
   52.4123  101.4470   31.2963 C   0  0  0  0  0  0
   53.1435  100.3902   32.0418 C   0  0  0  0  0  0
   54.5247  100.2946   31.8764 C   0  0  0  0  0  0
   55.2434   99.3290   32.5727 C   0  0  0  0  0  0
   54.5754   98.4564   33.4283 C   0  0  0  0  0  0
   53.1959   98.5482   33.5986 C   0  0  0  0  0  0
   52.4756   99.5182   32.9042 C   0  0  0  0  0  0
   49.5164  101.4685   25.1982 H   0  0  0  0  0  0
   49.3543  100.3826   23.8764 H   0  0  0  0  0  0
   50.4493   96.5159   26.1911 H   0  0  0  0  0  0
   51.2430   96.9446   28.9705 H   0  0  0  0  0  0
   51.8555   98.7706   30.4747 H   0  0  0  0  0  0
   50.8584  101.7031   27.4841 H   0  0  0  0  0  0
   53.3043  104.2120   32.8121 H   0  0  0  0  0  0
   53.3919  102.6241   33.5332 H   0  0  0  0  0  0
   52.0919  105.7196   34.1906 H   0  0  0  0  0  0
   50.2095  106.2432   35.6923 H   0  0  0  0  0  0
   48.5999  104.4698   36.3243 H   0  0  0  0  0  0
   48.8722  102.1718   35.4636 H   0  0  0  0  0  0
   50.7546  101.6381   33.9589 H   0  0  0  0  0  0
   55.0437  100.9668   31.2109 H   0  0  0  0  0  0
   56.3136   99.2539   32.4414 H   0  0  0  0  0  0
   55.1361   97.7024   33.9613 H   0  0  0  0  0  0
   52.6910   97.8665   34.2653 H   0  0  0  0  0  0
   51.4064   99.5888   33.0299 H   0  0  0  0  0  0
  1  2  1  0  0  0
  1 29  1  0  0  0
  1 30  1  0  0  0
  2  3  2  0  0  0
  2 10  1  0  0  0
  3  4  1  0  0  0
  4  5  1  0  0  0
  4 31  1  0  0  0
  5  6  2  0  0  0
  5 10  1  0  0  0
  6  7  1  0  0  0
  6 32  1  0  0  0
  7  8  2  0  0  0
  7 33  1  0  0  0
  8  9  1  0  0  0
  8 11  1  0  0  0
  9 10  2  0  0  0
  9 34  1  0  0  0
 11 12  1  0  0  0
 11 22  2  0  0  0
 12 13  2  0  0  0
 13 14  1  0  0  0
 14 15  1  0  0  0
 14 22  1  0  0  0
 15 16  1  0  0  0
 15 35  1  0  0  0
 15 36  1  0  0  0
 16 17  2  0  0  0
 16 21  1  0  0  0
 17 18  1  0  0  0
 17 37  1  0  0  0
 18 19  2  0  0  0
 18 38  1  0  0  0
 19 20  1  0  0  0
 19 39  1  0  0  0
 20 21  2  0  0  0
 20 40  1  0  0  0
 21 41  1  0  0  0
 22 23  1  0  0  0
 23 24  2  0  0  0
 23 28  1  0  0  0
 24 25  1  0  0  0
 24 42  1  0  0  0
 25 26  2  0  0  0
 25 43  1  0  0  0
 26 27  1  0  0  0
 26 44  1  0  0  0
 27 28  2  0  0  0
 27 45  1  0  0  0
 28 46  1  0  0  0
M  END
> <s_m_entry_id>
28204

> <s_m_entry_name>
dock_pv.365

> <s_m_Source_Path>
/home/csk/Desktop/cluster/DUD-E-result/rock1

> <s_m_Source_File>
dock_pv.maegz

> <i_m_Source_File_Index>
365

> <chembl_id>
CHEMBL1972158

> <chembl_pref_name>
None

> <i_lp_mmshare_version>
53161

> <r_lp_tautomer_probability>
1

> <s_lp_Force_Field>
OPLS_2005

> <r_lp_Energy>
19.218283

> <b_lp_Chiralities_Consistent>
1

> <s_lp_Variant>
CHEMBL3231_lig1277-1

> <s_i_glide_gridfile>
glide-grid_2etr

> <i_i_glide_lignum>
1778

> <i_i_glide_rotatable_bonds>
4

> <r_i_docking_score>
-7.61647914847866

> <r_i_glide_ligand_efficiency>
-0.272017112445666

> <r_i_glide_ligand_efficiency_sa>
-0.826004162896501

> <r_i_glide_ligand_efficiency_ln>
-1.75810701701398

> <r_i_glide_gscore>
-7.61647914847866

> <r_i_glide_lipo>
-2.13814987475497

> <r_i_glide_hbond>
-0.545579081894843

> <r_i_glide_metal>
0

> <r_i_glide_rewards>
-2.03078281818182

> <r_i_glide_evdw>
-43.5130424499512

> <r_i_glide_ecoul>
-6.59675312042236

> <r_i_glide_erotb>
0.401394033757987

> <r_i_glide_esite>
-0.138196316844105

> <r_i_glide_emodel>
-73.3814183158576

> <r_i_glide_energy>
-50.1097955703735

> <r_i_glide_einternal>
0.682594239711761

> <i_i_glide_confnum>
26

> <i_i_glide_posenum>
170

> <r_i_glide_eff_state_penalty>
0

> <s_user_duplicate_titles>
CHEMBL3231_lig1277

> <i_f3d_flags>
0

> <s_m_subgroup_title>
dock_pv

> <s_m_subgroupid>
dock_pv

> <b_m_subgroup_collapsed>
1

$$$$
CHEMBL3231_lig877
                    3D
 Schrodinger Suite 2021-1.
 42 45  0  0  1  0            999 V2000
   51.4577  103.1049   31.0342 N   0  0  0  0  0  0
   52.0832  103.0269   32.1686 C   0  0  0  0  0  0
   52.7555  101.8737   32.5250 N   0  0  0  0  0  0
   52.8618  100.6986   31.8340 C   0  0  0  0  0  0
   51.5270  102.0155   30.2031 C   0  0  0  0  0  0
   52.1834  100.8307   30.5522 C   0  0  0  0  0  0
   52.0691   99.6151   29.3344 S   0  0  0  0  0  0
   51.1531  100.6807   28.2990 C   0  0  0  0  0  0
   50.9637  101.9241   28.9200 C   0  0  0  0  0  0
   50.6861  100.2553   26.9736 C   0  0  0  0  0  0
   50.3321  101.1067   25.9439 C   0  0  0  0  0  0
   49.9585  100.3128   24.8926 N   0  0  0  0  0  0
   50.0425   99.0182   25.1805 N   0  0  0  0  0  0
   50.4790   98.9662   26.4228 C   0  0  0  0  0  0
   53.4501   99.7319   32.3091 O   0  0  0  0  0  0
   50.6849   97.6137   27.0532 C   0  0  0  0  0  0
   52.0695  104.1631   33.1957 C   0  0  0  0  0  0
   50.8438  104.2384   34.0118 N   0  0  0  0  0  0
   50.7740  105.5279   34.7245 C   0  0  0  0  0  0
   49.4575  105.6741   35.5221 C   0  0  0  0  0  0
   49.2392  104.5085   36.4991 C   0  0  0  0  0  0
   49.3981  103.1729   35.7600 C   0  0  0  0  0  0
   50.7121  103.1069   34.9527 C   0  0  0  0  0  0
   53.2400  101.8630   33.4087 H   0  0  0  0  0  0
   50.4233  102.7361   28.4594 H   0  0  0  0  0  0
   50.3080  102.1833   25.8823 H   0  0  0  0  0  0
   49.6300  100.6381   23.9914 H   0  0  0  0  0  0
   50.0779   97.5039   27.9508 H   0  0  0  0  0  0
   50.4444   96.7827   26.3887 H   0  0  0  0  0  0
   51.7252   97.5030   27.3541 H   0  0  0  0  0  0
   52.9406  104.0924   33.8501 H   0  0  0  0  0  0
   52.2040  105.1025   32.6595 H   0  0  0  0  0  0
   51.6400  105.6342   35.3821 H   0  0  0  0  0  0
   50.8438  106.3495   34.0092 H   0  0  0  0  0  0
   49.4747  106.6109   36.0777 H   0  0  0  0  0  0
   48.6199  105.7686   34.8301 H   0  0  0  0  0  0
   48.2558  104.5738   36.9676 H   0  0  0  0  0  0
   49.9732  104.5667   37.3044 H   0  0  0  0  0  0
   48.5528  102.9833   35.0962 H   0  0  0  0  0  0
   49.3805  102.3570   36.4817 H   0  0  0  0  0  0
   50.7202  102.1689   34.3964 H   0  0  0  0  0  0
   51.5778  103.0757   35.6172 H   0  0  0  0  0  0
  1  5  1  0  0  0
  1  2  2  0  0  0
  2  3  1  0  0  0
  2 17  1  0  0  0
  3  4  1  0  0  0
  3 24  1  0  0  0
  4  6  1  0  0  0
  4 15  2  0  0  0
  5  6  2  0  0  0
  5  9  1  0  0  0
  6  7  1  0  0  0
  7  8  1  0  0  0
  8  9  2  0  0  0
  8 10  1  0  0  0
  9 25  1  0  0  0
 10 11  2  0  0  0
 10 14  1  0  0  0
 11 12  1  0  0  0
 11 26  1  0  0  0
 12 13  1  0  0  0
 12 27  1  0  0  0
 13 14  2  0  0  0
 14 16  1  0  0  0
 16 28  1  0  0  0
 16 29  1  0  0  0
 16 30  1  0  0  0
 17 18  1  0  0  0
 17 31  1  0  0  0
 17 32  1  0  0  0
 18 19  1  0  0  0
 18 23  1  0  0  0
 19 20  1  0  0  0
 19 33  1  0  0  0
 19 34  1  0  0  0
 20 21  1  0  0  0
 20 35  1  0  0  0
 20 36  1  0  0  0
 21 22  1  0  0  0
 21 37  1  0  0  0
 21 38  1  0  0  0
 22 23  1  0  0  0
 22 39  1  0  0  0
 22 40  1  0  0  0
 23 41  1  0  0  0
 23 42  1  0  0  0
M  END
> <s_m_entry_id>
28205

> <s_m_entry_name>
dock_pv.366

> <s_m_Source_Path>
/home/csk/Desktop/cluster/DUD-E-result/rock1

> <s_m_Source_File>
dock_pv.maegz

> <i_m_Source_File_Index>
366

> <chembl_id>
CHEMBL4078031

> <chembl_pref_name>
None

> <i_lp_mmshare_version>
53161

> <r_lp_tautomer_probability>
0.5

> <s_lp_Force_Field>
OPLS_2005

> <r_lp_Energy>
30.198956

> <b_lp_Chiralities_Consistent>
1

> <s_lp_Variant>
CHEMBL3231_lig877-1

> <s_i_glide_gridfile>
glide-grid_2etr

> <i_i_glide_lignum>
1242

> <i_i_glide_rotatable_bonds>
3

> <r_i_docking_score>
-7.61513106010118

> <r_i_glide_ligand_efficiency>
-0.331092654787008

> <r_i_glide_ligand_efficiency_sa>
-0.941583467236055

> <r_i_glide_ligand_efficiency_ln>
-1.84140774052328

> <r_i_glide_gscore>
-7.61513106010118

> <r_i_glide_lipo>
-2.43692643702146

> <r_i_glide_hbond>
-0.192128965482311

> <r_i_glide_metal>
0

> <r_i_glide_rewards>
-2.83802714984047

> <r_i_glide_evdw>
-39.0918350219727

> <r_i_glide_ecoul>
-4.3623251914978

> <r_i_glide_erotb>
0.519580534212525

> <r_i_glide_esite>
-0.0586885121461676

> <r_i_glide_emodel>
-63.2521315359938

> <r_i_glide_energy>
-43.4541602134705

> <r_i_glide_einternal>
2.32583141326904

> <i_i_glide_confnum>
36

> <i_i_glide_posenum>
208

> <r_i_glide_eff_state_penalty>
0

> <s_user_duplicate_titles>
CHEMBL3231_lig877

> <i_f3d_flags>
0

> <s_m_subgroup_title>
dock_pv

> <s_m_subgroupid>
dock_pv

> <b_m_subgroup_collapsed>
1

$$$$
CHEMBL3231_lig1463
                    3D
 Schrodinger Suite 2021-1.
 44 46  0  0  1  0            999 V2000
   51.9710  100.7263   29.4099 S   0  0  0  0  0  0
   51.6472  103.9030   31.5955 O   0  0  0  0  0  0
   53.0019   98.8725   36.1028 O   0  0  0  0  0  0
   50.5372  102.1757   27.8601 N   0  0  0  0  0  0
   53.2663  102.3123   31.5716 N   0  0  0  0  0  0
   50.0431   97.9029   25.2111 N   0  0  0  0  0  0
   51.7237  102.4147   29.8103 C   0  0  0  0  0  0
   50.9919  100.9642   28.0099 C   0  0  0  0  0  0
   50.9198  102.9936   28.8103 C   0  0  0  0  0  0
   52.2179  102.9659   31.0452 C   0  0  0  0  0  0
   50.7049   99.8809   27.0475 C   0  0  0  0  0  0
   53.8478  102.4925   32.8957 C   0  0  1  0  0  0
   54.2089  101.1187   33.4641 C   0  0  0  0  0  0
   50.3065  100.2237   25.7492 C   0  0  0  0  0  0
   50.7875   98.5289   27.4054 C   0  0  0  0  0  0
   53.7814   99.3162   35.0510 C   0  0  0  0  0  0
   53.4892  100.5840   34.5407 C   0  0  0  0  0  0
   50.4422  104.4114   28.6015 C   0  0  0  0  0  0
   55.2427  100.3622   32.8991 C   0  0  0  0  0  0
   54.8272   98.5791   34.4715 C   0  0  0  0  0  0
   53.3156   97.6237   36.7121 C   0  0  0  0  0  0
   49.9902   99.2064   24.8650 C   0  0  0  0  0  0
   50.4429   97.5737   26.4569 C   0  0  0  0  0  0
   55.5531   99.1019   33.4026 C   0  0  0  0  0  0
   55.0363  103.4681   32.8564 C   0  0  0  0  0  0
   53.8095  101.7366   30.9451 H   0  0  0  0  0  0
   53.0976  102.9304   33.5598 H   0  0  0  0  0  0
   50.2313  101.2527   25.4286 H   0  0  0  0  0  0
   51.0884   98.2169   28.3951 H   0  0  0  0  0  0
   52.6835  101.1482   34.9875 H   0  0  0  0  0  0
   51.2431  105.1035   28.8097 H   0  0  0  0  0  0
   50.1499  104.6212   27.5702 H   0  0  0  0  0  0
   49.5809  104.6649   29.2108 H   0  0  0  0  0  0
   55.8098  100.7417   32.0611 H   0  0  0  0  0  0
   55.0919   97.5974   34.8323 H   0  0  0  0  0  0
   52.6370   97.4446   37.5450 H   0  0  0  0  0  0
   53.2057   96.7965   36.0099 H   0  0  0  0  0  0
   54.3304   97.6177   37.1120 H   0  0  0  0  0  0
   49.6648   99.4300   23.8641 H   0  0  0  0  0  0
   50.4846   96.5205   26.6840 H   0  0  0  0  0  0
   56.3552   98.5291   32.9569 H   0  0  0  0  0  0
   55.5116  103.5572   33.8328 H   0  0  0  0  0  0
   55.7966  103.1576   32.1397 H   0  0  0  0  0  0
   54.7007  104.4627   32.5634 H   0  0  0  0  0  0
  1  7  1  0  0  0
  1  8  1  0  0  0
  2 10  2  0  0  0
  3 16  1  0  0  0
  3 21  1  0  0  0
  4  8  2  0  0  0
  4  9  1  0  0  0
  5 10  1  0  0  0
  5 12  1  0  0  0
  5 26  1  0  0  0
  6 22  2  0  0  0
  6 23  1  0  0  0
  7  9  2  0  0  0
  7 10  1  0  0  0
  8 11  1  0  0  0
  9 18  1  0  0  0
 11 14  2  0  0  0
 11 15  1  0  0  0
 12 13  1  0  0  0
 12 25  1  0  0  0
 12 27  1  0  0  0
 13 17  2  0  0  0
 13 19  1  0  0  0
 14 22  1  0  0  0
 14 28  1  0  0  0
 15 23  2  0  0  0
 15 29  1  0  0  0
 16 17  1  0  0  0
 16 20  2  0  0  0
 17 30  1  0  0  0
 18 31  1  0  0  0
 18 32  1  0  0  0
 18 33  1  0  0  0
 19 24  2  0  0  0
 19 34  1  0  0  0
 20 24  1  0  0  0
 20 35  1  0  0  0
 21 36  1  0  0  0
 21 37  1  0  0  0
 21 38  1  0  0  0
 22 39  1  0  0  0
 23 40  1  0  0  0
 24 41  1  0  0  0
 25 42  1  0  0  0
 25 43  1  0  0  0
 25 44  1  0  0  0
M  END
> <s_m_entry_id>
28206

> <s_m_entry_name>
dock_pv.367

> <s_m_Source_Path>
/home/csk/Desktop/cluster/DUD-E-result/rock1

> <s_m_Source_File>
dock_pv.maegz

> <i_m_Source_File_Index>
367

> <chembl_id>
CHEMBL1978567

> <chembl_pref_name>
None

> <i_lp_mmshare_version>
53161

> <r_lp_tautomer_probability>
1

> <s_lp_Force_Field>
OPLS_2005

> <r_lp_Energy>
14.640451

> <b_lp_Chiralities_Consistent>
1

> <s_lp_Variant>
CHEMBL3231_lig1463-2

> <s_i_glide_gridfile>
glide-grid_2etr

> <i_i_glide_lignum>
2061

> <i_i_glide_rotatable_bonds>
6

> <r_i_docking_score>
-7.61509680727961

> <r_i_glide_ligand_efficiency>
-0.304603872291184

> <r_i_glide_ligand_efficiency_sa>
-0.8906671247521

> <r_i_glide_ligand_efficiency_ln>
-1.80500614936148

> <r_i_glide_gscore>
-7.61509680727961

> <r_i_glide_lipo>
-2.32203729410519

> <r_i_glide_hbond>
-0.473797650648081

> <r_i_glide_metal>
0

> <r_i_glide_rewards>
-2.43213101958932

> <r_i_glide_evdw>
-38.2265357971191

> <r_i_glide_ecoul>
-7.74756574630737

> <r_i_glide_erotb>
0.764368210817223

> <r_i_glide_esite>
-0.0780374019521717

> <r_i_glide_emodel>
-60.6925818103655

> <r_i_glide_energy>
-45.9741015434265

> <r_i_glide_einternal>
15.705114364624

> <i_i_glide_confnum>
14

> <i_i_glide_posenum>
333

> <r_i_glide_eff_state_penalty>
0

> <s_user_duplicate_titles>
CHEMBL3231_lig1463,CHEMBL3231_lig1346

> <i_f3d_flags>
0

> <s_m_subgroup_title>
dock_pv

> <s_m_subgroupid>
dock_pv

> <b_m_subgroup_collapsed>
1

$$$$
CHEMBL3231_lig744
                    3D
 Schrodinger Suite 2021-1.
 40 42  0  0  1  0            999 V2000
   54.8432  102.1845   34.1221 C   0  0  0  0  0  0
   53.7203  103.0302   33.5012 C   0  0  1  0  0  0
   53.2379  102.3923   32.2703 N   0  0  0  0  0  0
   52.2573  102.8700   31.4834 C   0  0  0  0  0  0
   51.6438  103.9031   31.7373 O   0  0  0  0  0  0
   51.9016  102.0788   30.2509 C   0  0  0  0  0  0
   51.2438  102.7138   29.1919 C   0  0  0  0  0  0
   50.8430  101.9941   28.0713 C   0  0  0  0  0  0
   51.0890  100.6195   27.9645 C   0  0  0  0  0  0
   51.7610   99.9836   29.0260 C   0  0  0  0  0  0
   52.0407   98.6459   29.0142 O   0  0  0  0  0  0
   52.1597  100.7055   30.1512 C   0  0  0  0  0  0
   50.5967   99.9255   26.7241 C   0  0  0  0  0  0
   50.5686   98.5547   26.3908 C   0  0  0  0  0  0
   50.0438   98.3027   25.2129 N   0  0  0  0  0  0
   49.7125   99.5035   24.7468 N   0  0  0  0  0  0
   50.0333  100.5151   25.6012 C   0  0  0  0  0  0
   52.6135  103.3365   34.5239 C   0  0  0  0  0  0
   51.8693  102.2971   35.0982 C   0  0  0  0  0  0
   50.8560  102.5831   36.0107 C   0  0  0  0  0  0
   50.5863  103.9075   36.3526 C   0  0  0  0  0  0
   49.6022  104.1859   37.2384 F   0  0  0  0  0  0
   51.3170  104.9471   35.7821 C   0  0  0  0  0  0
   52.3312  104.6633   34.8692 C   0  0  0  0  0  0
   55.2848  102.6827   34.9855 H   0  0  0  0  0  0
   54.4867  101.2046   34.4436 H   0  0  0  0  0  0
   55.6430  102.0135   33.4013 H   0  0  0  0  0  0
   54.1776  103.9769   33.1952 H   0  0  0  0  0  0
   53.8468  101.6940   31.8702 H   0  0  0  0  0  0
   51.0303  103.7729   29.2291 H   0  0  0  0  0  0
   50.3239  102.5278   27.2901 H   0  0  0  0  0  0
   52.5100   98.3620   29.8021 H   0  0  0  0  0  0
   52.6570  100.1839   30.9575 H   0  0  0  0  0  0
   50.9271   97.7447   27.0083 H   0  0  0  0  0  0
   49.2742   99.6320   23.8388 H   0  0  0  0  0  0
   49.8146  101.5383   25.3381 H   0  0  0  0  0  0
   52.0753  101.2699   34.8327 H   0  0  0  0  0  0
   50.2805  101.7830   36.4553 H   0  0  0  0  0  0
   51.0989  105.9715   36.0458 H   0  0  0  0  0  0
   52.8846  105.4779   34.4217 H   0  0  0  0  0  0
  1  2  1  0  0  0
  1 25  1  0  0  0
  1 26  1  0  0  0
  1 27  1  0  0  0
  2  3  1  0  0  0
  2 18  1  0  0  0
  2 28  1  0  0  0
  3  4  1  0  0  0
  3 29  1  0  0  0
  4  5  2  0  0  0
  4  6  1  0  0  0
  6  7  2  0  0  0
  6 12  1  0  0  0
  7  8  1  0  0  0
  7 30  1  0  0  0
  8  9  2  0  0  0
  8 31  1  0  0  0
  9 10  1  0  0  0
  9 13  1  0  0  0
 10 11  1  0  0  0
 10 12  2  0  0  0
 11 32  1  0  0  0
 12 33  1  0  0  0
 13 14  1  0  0  0
 13 17  2  0  0  0
 14 15  2  0  0  0
 14 34  1  0  0  0
 15 16  1  0  0  0
 16 17  1  0  0  0
 16 35  1  0  0  0
 17 36  1  0  0  0
 18 19  2  0  0  0
 18 24  1  0  0  0
 19 20  1  0  0  0
 19 37  1  0  0  0
 20 21  2  0  0  0
 20 38  1  0  0  0
 21 22  1  0  0  0
 21 23  1  0  0  0
 23 24  2  0  0  0
 23 39  1  0  0  0
 24 40  1  0  0  0
M  END
> <s_m_entry_id>
28207

> <s_m_entry_name>
dock_pv.368

> <s_m_Source_Path>
/home/csk/Desktop/cluster/DUD-E-result/rock1

> <s_m_Source_File>
dock_pv.maegz

> <i_m_Source_File_Index>
368

> <chembl_id>
CHEMBL4113669

> <chembl_pref_name>
None

> <i_lp_mmshare_version>
53161

> <r_lp_tautomer_probability>
0.499999999999341

> <s_lp_Force_Field>
OPLS_2005

> <r_lp_Energy>
17.035911

> <b_lp_Chiralities_Consistent>
1

> <s_lp_Variant>
CHEMBL3231_lig744-1

> <s_i_glide_gridfile>
glide-grid_2etr

> <i_i_glide_lignum>
1059

> <i_i_glide_rotatable_bonds>
6

> <r_i_docking_score>
-7.61346643502315

> <r_i_glide_ligand_efficiency>
-0.317227768125965

> <r_i_glide_ligand_efficiency_sa>
-0.915043223569149

> <r_i_glide_ligand_efficiency_ln>
-1.82225187711119

> <r_i_glide_gscore>
-7.61346643502315

> <r_i_glide_lipo>
-2.11092452453881

> <r_i_glide_hbond>
-0.674676801963728

> <r_i_glide_metal>
0

> <r_i_glide_rewards>
-2.05726940516037

> <r_i_glide_evdw>
-36.6299781799316

> <r_i_glide_ecoul>
-9.13737487792969

> <r_i_glide_erotb>
0.495744185108779

> <r_i_glide_esite>
-0.0642347477829927

> <r_i_glide_emodel>
-66.8070655943362

> <r_i_glide_energy>
-45.7673530578613

> <r_i_glide_einternal>
2.08889412879944

> <i_i_glide_confnum>
10

> <i_i_glide_posenum>
261

> <r_i_glide_eff_state_penalty>
0

> <s_user_duplicate_titles>
CHEMBL3231_lig744

> <i_f3d_flags>
0

> <s_m_subgroup_title>
dock_pv

> <s_m_subgroupid>
dock_pv

> <b_m_subgroup_collapsed>
1

$$$$
CHEMBL3231_lig539
                    3D
 Schrodinger Suite 2021-1.
 46 49  0  0  1  0            999 V2000
   50.9841  102.0687   35.3298 C   0  0  0  0  0  0
   52.2307  102.3470   34.5911 N   0  0  0  0  0  0
   52.0428  102.9647   33.3816 C   0  0  0  0  0  0
   50.9438  103.2963   32.9181 O   0  0  0  0  0  0
   53.3587  103.2580   32.6132 C   0  0  1  0  0  0
   53.1649  103.7730   31.1640 C   0  0  0  0  0  0
   52.5086  102.7898   30.1925 C   0  0  0  0  0  0
   51.4385  103.1955   29.3916 C   0  0  0  0  0  0
   50.8849  102.3155   28.4632 C   0  0  0  0  0  0
   51.3947  101.0185   28.3146 C   0  0  0  0  0  0
   52.4430  100.6141   29.1489 C   0  0  0  0  0  0
   53.0048  101.4915   30.0681 C   0  0  0  0  0  0
   50.8814  100.0973   27.2579 C   0  0  0  0  0  0
   50.8625   98.7060   27.4520 C   0  0  0  0  0  0
   50.4432   97.8737   26.4148 C   0  0  0  0  0  0
   50.0429   98.3458   25.2111 N   0  0  0  0  0  0
   50.0430   99.6893   25.0277 C   0  0  0  0  0  0
   50.4489  100.5875   26.0151 C   0  0  0  0  0  0
   54.2029  104.1807   33.3726 N   0  0  0  0  0  0
   54.8970  103.8890   34.4834 C   0  0  0  0  0  0
   55.6421  104.7029   35.0283 O   0  0  0  0  0  0
   54.6909  102.4942   35.0538 C   0  0  0  0  0  0
   55.8364  101.9351   35.6449 C   0  0  0  0  0  0
   55.7870  100.6899   36.2590 C   0  0  0  0  0  0
   54.5843  100.0005   36.3227 C   0  0  0  0  0  0
   54.5028   98.4694   37.1141 Cl  0  0  0  0  0  0
   53.4403  100.5510   35.7534 C   0  0  0  0  0  0
   53.4534  101.7788   35.0666 C   0  0  0  0  0  0
   50.4555  101.2223   34.8866 H   0  0  0  0  0  0
   51.1871  101.8323   36.3755 H   0  0  0  0  0  0
   50.3107  102.9285   35.3305 H   0  0  0  0  0  0
   53.9054  102.3175   32.5218 H   0  0  0  0  0  0
   52.6021  104.7028   31.2112 H   0  0  0  0  0  0
   54.1334  104.0384   30.7355 H   0  0  0  0  0  0
   51.0521  104.2006   29.4619 H   0  0  0  0  0  0
   50.0717  102.6590   27.8407 H   0  0  0  0  0  0
   52.8754   99.6292   29.0537 H   0  0  0  0  0  0
   53.8510  101.1595   30.6521 H   0  0  0  0  0  0
   51.1752   98.2669   28.3882 H   0  0  0  0  0  0
   50.4360   96.8004   26.5375 H   0  0  0  0  0  0
   49.7171  100.0438   24.0597 H   0  0  0  0  0  0
   50.4532  101.6458   25.8000 H   0  0  0  0  0  0
   54.2581  105.1436   33.0652 H   0  0  0  0  0  0
   56.7906  102.4469   35.6258 H   0  0  0  0  0  0
   56.6840  100.2697   36.6911 H   0  0  0  0  0  0
   52.5229   99.9869   35.8298 H   0  0  0  0  0  0
  1  2  1  0  0  0
  1 29  1  0  0  0
  1 30  1  0  0  0
  1 31  1  0  0  0
  2  3  1  0  0  0
  2 28  1  0  0  0
  3  4  2  0  0  0
  3  5  1  0  0  0
  5  6  1  0  0  0
  5 19  1  0  0  0
  5 32  1  0  0  0
  6  7  1  0  0  0
  6 33  1  0  0  0
  6 34  1  0  0  0
  7  8  2  0  0  0
  7 12  1  0  0  0
  8  9  1  0  0  0
  8 35  1  0  0  0
  9 10  2  0  0  0
  9 36  1  0  0  0
 10 11  1  0  0  0
 10 13  1  0  0  0
 11 12  2  0  0  0
 11 37  1  0  0  0
 12 38  1  0  0  0
 13 14  2  0  0  0
 13 18  1  0  0  0
 14 15  1  0  0  0
 14 39  1  0  0  0
 15 16  2  0  0  0
 15 40  1  0  0  0
 16 17  1  0  0  0
 17 18  2  0  0  0
 17 41  1  0  0  0
 18 42  1  0  0  0
 19 20  1  0  0  0
 19 43  1  0  0  0
 20 21  2  0  0  0
 20 22  1  0  0  0
 22 23  2  0  0  0
 22 28  1  0  0  0
 23 24  1  0  0  0
 23 44  1  0  0  0
 24 25  2  0  0  0
 24 45  1  0  0  0
 25 26  1  0  0  0
 25 27  1  0  0  0
 27 28  2  0  0  0
 27 46  1  0  0  0
M  END
> <s_m_entry_id>
28208

> <s_m_entry_name>
dock_pv.369

> <s_m_Source_Path>
/home/csk/Desktop/cluster/DUD-E-result/rock1

> <s_m_Source_File>
dock_pv.maegz

> <i_m_Source_File_Index>
369

> <chembl_id>
CHEMBL4114625

> <chembl_pref_name>
None

> <i_lp_mmshare_version>
53161

> <r_lp_tautomer_probability>
1

> <s_lp_Force_Field>
OPLS_2005

> <r_lp_Energy>
46.377372

> <b_lp_Chiralities_Consistent>
1

> <s_lp_Variant>
CHEMBL3231_lig539-1

> <s_i_glide_gridfile>
glide-grid_2etr

> <i_i_glide_lignum>
816

> <i_i_glide_rotatable_bonds>
3

> <r_i_docking_score>
-7.61197619689183

> <r_i_glide_ligand_efficiency>
-0.271856292746137

> <r_i_glide_ligand_efficiency_sa>
-0.825515819570991

> <r_i_glide_ligand_efficiency_ln>
-1.75706760357534

> <r_i_glide_gscore>
-7.61197619689183

> <r_i_glide_lipo>
-2.36988337010368

> <r_i_glide_hbond>
-0.264570105680252

> <r_i_glide_metal>
0

> <r_i_glide_rewards>
-2.09572024242424

> <r_i_glide_evdw>
-40.4955902099609

> <r_i_glide_ecoul>
-7.75943613052368

> <r_i_glide_erotb>
0.381359853039084

> <r_i_glide_esite>
-0.0744674016461416

> <r_i_glide_emodel>
-71.9145239818684

> <r_i_glide_energy>
-48.2550263404846

> <r_i_glide_einternal>
1.34278798103333

> <i_i_glide_confnum>
16

> <i_i_glide_posenum>
208

> <r_i_glide_eff_state_penalty>
0

> <s_user_duplicate_titles>
CHEMBL3231_lig539

> <i_f3d_flags>
0

> <s_m_subgroup_title>
dock_pv

> <s_m_subgroupid>
dock_pv

> <b_m_subgroup_collapsed>
1

$$$$
CHEMBL3231_lig873
                    3D
 Schrodinger Suite 2021-1.
 32 34  0  0  1  0            999 V2000
   53.4391  100.2411   30.9168 N   0  0  0  0  0  0
   53.7776  101.0686   31.8540 C   0  0  0  0  0  0
   53.1578  102.3021   31.9541 N   0  0  0  0  0  0
   52.1719  102.8221   31.1574 C   0  0  0  0  0  0
   52.5076  100.6558   30.0085 C   0  0  0  0  0  0
   51.8884  101.9038   30.0665 C   0  0  0  0  0  0
   50.7999  102.1699   28.7475 S   0  0  0  0  0  0
   51.1719  100.5964   28.0868 C   0  0  0  0  0  0
   52.0736   99.9176   28.9092 C   0  0  0  0  0  0
   50.5915  100.1415   26.8277 C   0  0  0  0  0  0
   50.1630  100.9203   25.7661 C   0  0  0  0  0  0
   49.7246  100.0494   24.8110 N   0  0  0  0  0  0
   49.8513   98.7777   25.1832 N   0  0  0  0  0  0
   50.3518   98.8210   26.3981 C   0  0  0  0  0  0
   51.6450  103.9030   31.4014 O   0  0  0  0  0  0
   50.5925   97.5308   27.1311 C   0  0  0  0  0  0
   54.8617  100.7656   32.8913 C   0  0  0  0  0  0
   55.4717   99.4355   32.8112 N   0  0  2  0  0  0
   56.3330   99.1845   33.9574 C   0  0  0  0  0  0
   53.4468  102.9146   32.7001 H   0  0  0  0  0  0
   52.4427   98.9246   28.7192 H   0  0  0  0  0  0
   50.1361  101.9861   25.6133 H   0  0  0  0  0  0
   49.3479  100.3041   23.9027 H   0  0  0  0  0  0
   50.0421   97.5030   28.0708 H   0  0  0  0  0  0
   50.3140   96.6566   26.5434 H   0  0  0  0  0  0
   51.6434   97.4273   27.3774 H   0  0  0  0  0  0
   55.6430  101.5163   32.7865 H   0  0  0  0  0  0
   54.4474  100.9068   33.8913 H   0  0  0  0  0  0
   56.0739   99.3664   31.9932 H   0  0  0  0  0  0
   56.7785   98.1930   33.8659 H   0  0  0  0  0  0
   57.1525   99.9032   34.0089 H   0  0  0  0  0  0
   55.7741   99.2163   34.8936 H   0  0  0  0  0  0
  1  5  1  0  0  0
  1  2  2  0  0  0
  2  3  1  0  0  0
  2 17  1  0  0  0
  3  4  1  0  0  0
  3 20  1  0  0  0
  4  6  1  0  0  0
  4 15  2  0  0  0
  5  6  2  0  0  0
  5  9  1  0  0  0
  6  7  1  0  0  0
  7  8  1  0  0  0
  8  9  2  0  0  0
  8 10  1  0  0  0
  9 21  1  0  0  0
 10 11  2  0  0  0
 10 14  1  0  0  0
 11 12  1  0  0  0
 11 22  1  0  0  0
 12 13  1  0  0  0
 12 23  1  0  0  0
 13 14  2  0  0  0
 14 16  1  0  0  0
 16 24  1  0  0  0
 16 25  1  0  0  0
 16 26  1  0  0  0
 17 18  1  0  0  0
 17 27  1  0  0  0
 17 28  1  0  0  0
 18 19  1  0  0  0
 18 29  1  0  0  0
 19 30  1  0  0  0
 19 31  1  0  0  0
 19 32  1  0  0  0
M  END
> <s_m_entry_id>
28209

> <s_m_entry_name>
dock_pv.370

> <s_m_Source_Path>
/home/csk/Desktop/cluster/DUD-E-result/rock1

> <s_m_Source_File>
dock_pv.maegz

> <i_m_Source_File_Index>
370

> <chembl_id>
CHEMBL4070822

> <chembl_pref_name>
None

> <i_lp_mmshare_version>
53161

> <r_lp_tautomer_probability>
0.5

> <s_lp_Force_Field>
OPLS_2005

> <r_lp_Energy>
17.524515

> <b_lp_Chiralities_Consistent>
1

> <s_lp_Variant>
CHEMBL3231_lig873-1

> <s_i_glide_gridfile>
glide-grid_2etr

> <i_i_glide_lignum>
1234

> <i_i_glide_rotatable_bonds>
3

> <r_i_docking_score>
-7.61093477418783

> <r_i_glide_ligand_efficiency>
-0.400575514430938

> <r_i_glide_ligand_efficiency_sa>
-1.06889636209606

> <r_i_glide_ligand_efficiency_ln>
-1.929535433147

> <r_i_glide_gscore>
-7.61093477418783

> <r_i_glide_lipo>
-1.89349326470358

> <r_i_glide_hbond>
-0.495889378615273

> <r_i_glide_metal>
0

> <r_i_glide_rewards>
-2.77683736363636

> <r_i_glide_evdw>
-33.4075927734375

> <r_i_glide_ecoul>
-7.98878002166748

> <r_i_glide_erotb>
0.474163199295576

> <r_i_glide_esite>
-0.0501813246061884

> <r_i_glide_emodel>
-59.9249672589021

> <r_i_glide_energy>
-41.396372795105

> <r_i_glide_einternal>
1.15313422679901

> <i_i_glide_confnum>
1

> <i_i_glide_posenum>
111

> <r_i_glide_eff_state_penalty>
0

> <s_user_duplicate_titles>
CHEMBL3231_lig873,CHEMBL3231_lig873

> <i_f3d_flags>
0

> <s_m_subgroup_title>
dock_pv

> <s_m_subgroupid>
dock_pv

> <b_m_subgroup_collapsed>
1

$$$$
CHEMBL3231_lig220
                    3D
 Schrodinger Suite 2021-1.
 33 35  0  0  1  0            999 V2000
   54.2658  100.5910   32.0959 C   0  0  0  0  0  0
   54.3707  101.7125   32.9088 C   0  0  0  0  0  0
   53.5730  102.8351   32.7053 C   0  0  0  0  0  0
   52.6699  102.8748   31.6366 C   0  0  0  0  0  0
   53.3188  100.6113   31.0647 C   0  0  0  0  0  0
   52.5184  101.7536   30.7900 C   0  0  0  0  0  0
   51.6485  101.5590   29.6582 C   0  0  0  0  0  0
   51.7819  100.2759   29.1025 C   0  0  0  0  0  0
   52.9472   99.2963   29.9895 S   0  0  0  0  0  0
   50.7232  102.6745   29.1982 C   0  0  0  0  0  0
   51.1316   99.6339   27.8945 C   0  0  0  0  0  0
   50.7082  100.4630   26.8964 N   0  0  0  0  0  0
   50.1668   99.8773   25.7946 C   0  0  0  0  0  0
   50.0432   98.5500   25.5739 N   0  0  0  0  0  0
   50.4438   97.7461   26.5842 C   0  0  0  0  0  0
   50.9727   98.2424   27.7771 C   0  0  0  0  0  0
   49.6520  100.7025   24.8111 N   0  0  0  0  0  0
   53.6560  103.9849   33.7008 C   0  0  0  0  0  0
   54.4426  105.1029   33.2174 N   0  0  0  0  0  0
   54.8879   99.7231   32.2705 H   0  0  0  0  0  0
   55.0802  101.6970   33.7246 H   0  0  0  0  0  0
   52.0826  103.7624   31.4748 H   0  0  0  0  0  0
   50.0928  103.0296   30.0128 H   0  0  0  0  0  0
   51.2861  103.5315   28.8258 H   0  0  0  0  0  0
   50.0423  102.3797   28.4035 H   0  0  0  0  0  0
   50.3414   96.6874   26.4111 H   0  0  0  0  0  0
   51.2556   97.5617   28.5652 H   0  0  0  0  0  0
   49.2760  100.3034   23.9554 H   0  0  0  0  0  0
   49.6975  101.6999   24.9479 H   0  0  0  0  0  0
   52.6547  104.3316   33.9613 H   0  0  0  0  0  0
   54.1065  103.6276   34.6278 H   0  0  0  0  0  0
   55.0813  104.8325   32.4758 H   0  0  0  0  0  0
   53.8386  105.8163   32.8114 H   0  0  0  0  0  0
  1  5  2  0  0  0
  1  2  1  0  0  0
  1 20  1  0  0  0
  2  3  2  0  0  0
  2 21  1  0  0  0
  3  4  1  0  0  0
  3 18  1  0  0  0
  4  6  2  0  0  0
  4 22  1  0  0  0
  5  9  1  0  0  0
  5  6  1  0  0  0
  6  7  1  0  0  0
  7 10  1  0  0  0
  7  8  2  0  0  0
  8 11  1  0  0  0
  8  9  1  0  0  0
 10 23  1  0  0  0
 10 24  1  0  0  0
 10 25  1  0  0  0
 11 12  2  0  0  0
 11 16  1  0  0  0
 12 13  1  0  0  0
 13 14  2  0  0  0
 13 17  1  0  0  0
 14 15  1  0  0  0
 15 16  2  0  0  0
 15 26  1  0  0  0
 16 27  1  0  0  0
 17 28  1  0  0  0
 17 29  1  0  0  0
 18 19  1  0  0  0
 18 30  1  0  0  0
 18 31  1  0  0  0
 19 32  1  0  0  0
 19 33  1  0  0  0
M  END
> <s_m_entry_id>
28210

> <s_m_entry_name>
dock_pv.371

> <s_m_Source_Path>
/home/csk/Desktop/cluster/DUD-E-result/rock1

> <s_m_Source_File>
dock_pv.maegz

> <i_m_Source_File_Index>
371

> <chembl_id>
CHEMBL1085700

> <chembl_pref_name>
None

> <i_lp_mmshare_version>
53161

> <r_lp_tautomer_probability>
0.999999987636

> <s_lp_Force_Field>
OPLS_2005

> <r_lp_Energy>
1.293693

> <b_lp_Chiralities_Consistent>
1

> <s_lp_Variant>
CHEMBL3231_lig220-1

> <s_i_glide_gridfile>
glide-grid_2etr

> <i_i_glide_lignum>
358

> <i_i_glide_rotatable_bonds>
2

> <r_i_docking_score>
-7.61063630113972

> <r_i_glide_ligand_efficiency>
-0.400559805323143

> <r_i_glide_ligand_efficiency_sa>
-1.06885444388696

> <r_i_glide_ligand_efficiency_ln>
-1.92945976381869

> <r_i_glide_gscore>
-7.61063630113972

> <r_i_glide_lipo>
-1.38502059326805

> <r_i_glide_hbond>
-0.652286530144087

> <r_i_glide_metal>
0

> <r_i_glide_rewards>
-3.10592030114229

> <r_i_glide_evdw>
-33.2141532897949

> <r_i_glide_ecoul>
-7.00927734375

> <r_i_glide_erotb>
0.244690389466957

> <r_i_glide_esite>
0

> <r_i_glide_emodel>
-57.0220380739418

> <r_i_glide_energy>
-40.2234306335449

> <r_i_glide_einternal>
2.44364452362061

> <i_i_glide_confnum>
4

> <i_i_glide_posenum>
266

> <r_i_glide_eff_state_penalty>
0

> <s_user_duplicate_titles>
CHEMBL3231_lig220

> <i_f3d_flags>
0

> <s_m_subgroup_title>
dock_pv

> <s_m_subgroupid>
dock_pv

> <b_m_subgroup_collapsed>
1

$$$$
CHEMBL3231_lig799
                    3D
 Schrodinger Suite 2021-1.
 50 53  0  0  1  0            999 V2000
   51.8613   98.6239   29.2505 C   0  0  0  0  0  0
   51.6838  100.1212   29.0931 C   0  0  0  0  0  0
   52.2351  100.9283   30.0893 C   0  0  0  0  0  0
   52.0965  102.3168   30.0534 C   0  0  0  0  0  0
   51.3535  102.8992   29.0287 C   0  0  0  0  0  0
   50.8323  102.1024   28.0123 C   0  0  0  0  0  0
   51.0099  100.7083   28.0000 C   0  0  0  0  0  0
   50.5007   99.9655   26.7867 C   0  0  0  0  0  0
   49.9004  100.5238   25.6630 C   0  0  0  0  0  0
   49.6434   99.5028   24.8001 N   0  0  0  0  0  0
   50.0429   98.3205   25.2564 N   0  0  0  0  0  0
   50.5232   98.5917   26.4455 C   0  0  0  0  0  0
   52.7240  103.1584   31.1210 C   0  0  0  0  0  0
   52.0346  103.9030   31.8165 O   0  0  0  0  0  0
   54.0467  102.9773   31.2669 N   0  0  0  0  0  0
   54.8248  103.3510   32.4476 C   0  0  0  0  0  0
   54.6942  102.3444   33.5942 C   0  0  0  0  0  0
   54.6551  102.7933   34.9166 C   0  0  0  0  0  0
   54.4425  101.8921   35.9592 C   0  0  0  0  0  0
   54.2438  100.5384   35.6869 C   0  0  0  0  0  0
   54.2791  100.0612   34.3694 C   0  0  0  0  0  0
   54.5293  100.9757   33.3345 C   0  0  0  0  0  0
   53.9844   98.6065   34.0816 C   0  0  0  0  0  0
   53.2395   97.9623   34.8238 O   0  0  0  0  0  0
   54.5677   98.0798   32.9887 N   0  0  0  0  0  0
   54.2752   96.7549   32.4521 C   0  0  0  0  0  0
   55.4274   95.9068   31.9670 C   0  0  0  0  0  0
   54.6948   95.5303   33.2342 C   0  0  0  0  0  0
   52.3846   98.3498   30.1683 H   0  0  0  0  0  0
   50.8942   98.1210   29.2605 H   0  0  0  0  0  0
   52.4429   98.2559   28.4130 H   0  0  0  0  0  0
   52.7707  100.4660   30.9061 H   0  0  0  0  0  0
   51.2183  103.9706   28.9864 H   0  0  0  0  0  0
   50.3059  102.6029   27.2145 H   0  0  0  0  0  0
   49.6439  101.5372   25.3947 H   0  0  0  0  0  0
   49.2234   99.6152   23.8815 H   0  0  0  0  0  0
   50.9004   97.7725   27.0328 H   0  0  0  0  0  0
   54.5386  102.4342   30.5706 H   0  0  0  0  0  0
   55.8755  103.4133   32.1620 H   0  0  0  0  0  0
   54.5285  104.3486   32.7832 H   0  0  0  0  0  0
   54.7727  103.8437   35.1394 H   0  0  0  0  0  0
   54.4103  102.2450   36.9789 H   0  0  0  0  0  0
   54.0539   99.8616   36.5083 H   0  0  0  0  0  0
   54.5587  100.6353   32.3102 H   0  0  0  0  0  0
   55.1374   98.6798   32.4103 H   0  0  0  0  0  0
   53.3228   96.6978   31.9205 H   0  0  0  0  0  0
   55.2864   95.3073   31.0677 H   0  0  0  0  0  0
   56.4424   96.3028   32.0380 H   0  0  0  0  0  0
   55.1919   95.6660   34.1957 H   0  0  0  0  0  0
   54.0236   94.6709   33.2338 H   0  0  0  0  0  0
  1  2  1  0  0  0
  1 29  1  0  0  0
  1 30  1  0  0  0
  1 31  1  0  0  0
  2  3  2  0  0  0
  2  7  1  0  0  0
  3  4  1  0  0  0
  3 32  1  0  0  0
  4  5  2  0  0  0
  4 13  1  0  0  0
  5  6  1  0  0  0
  5 33  1  0  0  0
  6  7  2  0  0  0
  6 34  1  0  0  0
  7  8  1  0  0  0
  8  9  2  0  0  0
  8 12  1  0  0  0
  9 10  1  0  0  0
  9 35  1  0  0  0
 10 11  1  0  0  0
 10 36  1  0  0  0
 11 12  2  0  0  0
 12 37  1  0  0  0
 13 14  2  0  0  0
 13 15  1  0  0  0
 15 16  1  0  0  0
 15 38  1  0  0  0
 16 17  1  0  0  0
 16 39  1  0  0  0
 16 40  1  0  0  0
 17 18  2  0  0  0
 17 22  1  0  0  0
 18 19  1  0  0  0
 18 41  1  0  0  0
 19 20  2  0  0  0
 19 42  1  0  0  0
 20 21  1  0  0  0
 20 43  1  0  0  0
 21 22  2  0  0  0
 21 23  1  0  0  0
 22 44  1  0  0  0
 23 24  2  0  0  0
 23 25  1  0  0  0
 25 26  1  0  0  0
 25 45  1  0  0  0
 26 27  1  0  0  0
 26 28  1  0  0  0
 26 46  1  0  0  0
 27 28  1  0  0  0
 27 47  1  0  0  0
 27 48  1  0  0  0
 28 49  1  0  0  0
 28 50  1  0  0  0
M  END
> <s_m_entry_id>
28211

> <s_m_entry_name>
dock_pv.372

> <s_m_Source_Path>
/home/csk/Desktop/cluster/DUD-E-result/rock1

> <s_m_Source_File>
dock_pv.maegz

> <i_m_Source_File_Index>
372

> <chembl_id>
CHEMBL3939581

> <chembl_pref_name>
None

> <i_lp_mmshare_version>
53161

> <r_lp_tautomer_probability>
0.5

> <s_lp_Force_Field>
OPLS_2005

> <r_lp_Energy>
34.83708

> <b_lp_Chiralities_Consistent>
1

> <s_lp_Variant>
CHEMBL3231_lig799-1

> <s_i_glide_gridfile>
glide-grid_2etr

> <i_i_glide_lignum>
1127

> <i_i_glide_rotatable_bonds>
8

> <r_i_docking_score>
-7.61057181375123

> <r_i_glide_ligand_efficiency>
-0.271806136205401

> <r_i_glide_ligand_efficiency_sa>
-0.825363514772696

> <r_i_glide_ligand_efficiency_ln>
-1.75674343071201

> <r_i_glide_gscore>
-7.61057181375123

> <r_i_glide_lipo>
-2.26048835143314

> <r_i_glide_hbond>
-0.566509782269355

> <r_i_glide_metal>
0

> <r_i_glide_rewards>
-1.76860199912477

> <r_i_glide_evdw>
-44.1762542724609

> <r_i_glide_ecoul>
-9.59316158294678

> <r_i_glide_erotb>
0.772324021085209

> <r_i_glide_esite>
-0.139508750944107

> <r_i_glide_emodel>
-74.9037042098809

> <r_i_glide_energy>
-53.7694158554077

> <r_i_glide_einternal>
7.22497224807739

> <i_i_glide_confnum>
7

> <i_i_glide_posenum>
145

> <r_i_glide_eff_state_penalty>
0

> <s_user_duplicate_titles>
CHEMBL3231_lig799

> <i_f3d_flags>
0

> <s_m_subgroup_title>
dock_pv

> <s_m_subgroupid>
dock_pv

> <b_m_subgroup_collapsed>
1

$$$$
CHEMBL3231_lig581
                    3D
 Schrodinger Suite 2021-1.
 41 43  0  0  1  0            999 V2000
   50.3980  104.0290   28.2860 C   0  0  0  0  0  0
   50.4431  102.6602   27.8930 O   0  0  0  0  0  0
   51.1536  101.7469   28.6546 C   0  0  0  0  0  0
   51.7081  102.0786   29.9046 C   0  0  0  0  0  0
   52.4307  101.1445   30.6538 C   0  0  0  0  0  0
   52.6006   99.8552   30.1430 C   0  0  0  0  0  0
   52.0426   99.5070   28.9190 C   0  0  0  0  0  0
   51.3160  100.4342   28.1630 C   0  0  0  0  0  0
   50.7537   99.9591   26.8528 C   0  0  0  0  0  0
   50.5481   98.6339   26.4159 C   0  0  0  0  0  0
   50.0432   98.5443   25.2098 N   0  0  0  0  0  0
   49.9070   99.8110   24.8116 N   0  0  0  0  0  0
   50.3141  100.7053   25.7673 C   0  0  0  0  0  0
   52.9593  101.5122   32.0146 C   0  0  0  0  0  0
   52.2695  102.1851   32.7847 O   0  0  0  0  0  0
   54.1899  101.0517   32.3050 N   0  0  0  0  0  0
   54.8388  101.0908   33.6192 C   0  0  0  0  0  0
   54.8981  102.4496   34.3200 C   0  0  0  0  0  0
   54.5761  102.5309   35.6796 C   0  0  0  0  0  0
   54.5627  103.7628   36.3324 C   0  0  0  0  0  0
   54.8715  104.9254   35.6287 C   0  0  0  0  0  0
   55.2091  104.8561   34.2782 C   0  0  0  0  0  0
   55.5274  106.0088   33.6121 O   0  0  0  0  0  0
   55.2211  103.6237   33.6212 C   0  0  0  0  0  0
   49.8899  104.6122   27.5216 H   0  0  0  0  0  0
   49.8375  104.1517   29.2108 H   0  0  0  0  0  0
   51.3963  104.4526   28.4116 H   0  0  0  0  0  0
   51.5861  103.0695   30.3109 H   0  0  0  0  0  0
   53.1413   99.1038   30.7002 H   0  0  0  0  0  0
   52.1876   98.4980   28.5654 H   0  0  0  0  0  0
   50.7634   97.7399   26.9821 H   0  0  0  0  0  0
   49.5143  100.0517   23.9059 H   0  0  0  0  0  0
   50.2521  101.7704   25.6101 H   0  0  0  0  0  0
   54.7055  100.5912   31.5674 H   0  0  0  0  0  0
   55.8532  100.7069   33.5003 H   0  0  0  0  0  0
   54.3327  100.3609   34.2546 H   0  0  0  0  0  0
   54.3199  101.6395   36.2335 H   0  0  0  0  0  0
   54.3032  103.8150   37.3796 H   0  0  0  0  0  0
   54.8461  105.8790   36.1315 H   0  0  0  0  0  0
   55.6129  105.9009   32.6512 H   0  0  0  0  0  0
   55.4669  103.5762   32.5700 H   0  0  0  0  0  0
  1  2  1  0  0  0
  1 25  1  0  0  0
  1 26  1  0  0  0
  1 27  1  0  0  0
  2  3  1  0  0  0
  3  4  2  0  0  0
  3  8  1  0  0  0
  4  5  1  0  0  0
  4 28  1  0  0  0
  5  6  2  0  0  0
  5 14  1  0  0  0
  6  7  1  0  0  0
  6 29  1  0  0  0
  7  8  2  0  0  0
  7 30  1  0  0  0
  8  9  1  0  0  0
  9 10  1  0  0  0
  9 13  2  0  0  0
 10 11  2  0  0  0
 10 31  1  0  0  0
 11 12  1  0  0  0
 12 13  1  0  0  0
 12 32  1  0  0  0
 13 33  1  0  0  0
 14 15  2  0  0  0
 14 16  1  0  0  0
 16 17  1  0  0  0
 16 34  1  0  0  0
 17 18  1  0  0  0
 17 35  1  0  0  0
 17 36  1  0  0  0
 18 19  2  0  0  0
 18 24  1  0  0  0
 19 20  1  0  0  0
 19 37  1  0  0  0
 20 21  2  0  0  0
 20 38  1  0  0  0
 21 22  1  0  0  0
 21 39  1  0  0  0
 22 23  1  0  0  0
 22 24  2  0  0  0
 23 40  1  0  0  0
 24 41  1  0  0  0
M  END
> <s_m_entry_id>
28212

> <s_m_entry_name>
dock_pv.373

> <s_m_Source_Path>
/home/csk/Desktop/cluster/DUD-E-result/rock1

> <s_m_Source_File>
dock_pv.maegz

> <i_m_Source_File_Index>
373

> <chembl_id>
CHEMBL3986802

> <chembl_pref_name>
None

> <i_lp_mmshare_version>
53161

> <r_lp_tautomer_probability>
0.499999999998682

> <s_lp_Force_Field>
OPLS_2005

> <r_lp_Energy>
20.286232

> <b_lp_Chiralities_Consistent>
1

> <s_lp_Variant>
CHEMBL3231_lig581-1

> <s_i_glide_gridfile>
glide-grid_2etr

> <i_i_glide_lignum>
861

> <i_i_glide_rotatable_bonds>
7

> <r_i_docking_score>
-7.60908180671173

> <r_i_glide_ligand_efficiency>
-0.317045075279655

> <r_i_glide_ligand_efficiency_sa>
-0.914516246211532

> <r_i_glide_ligand_efficiency_ln>
-1.82120243435879

> <r_i_glide_gscore>
-7.60908180671173

> <r_i_glide_lipo>
-1.83069488552717

> <r_i_glide_hbond>
-0.70466132802082

> <r_i_glide_metal>
0

> <r_i_glide_rewards>
-2.0809797961901

> <r_i_glide_evdw>
-37.4227142333984

> <r_i_glide_ecoul>
-11.3417186737061

> <r_i_glide_erotb>
0.626428429804721

> <r_i_glide_esite>
-0.0467807140525291

> <r_i_glide_emodel>
-70.4880903821434

> <r_i_glide_energy>
-48.7644329071045

> <r_i_glide_einternal>
2.59439325332642

> <i_i_glide_confnum>
30

> <i_i_glide_posenum>
336

> <r_i_glide_eff_state_penalty>
0

> <s_user_duplicate_titles>
CHEMBL3231_lig581

> <i_f3d_flags>
0

> <s_m_subgroup_title>
dock_pv

> <s_m_subgroupid>
dock_pv

> <b_m_subgroup_collapsed>
1

$$$$
CHEMBL3231_lig2106
                    3D
 Schrodinger Suite 2021-1.
 54 57  0  0  1  0            999 V2000
   51.1751  101.2259   28.0580 C   0  0  0  0  0  0
   52.0976  101.1129   29.0051 N   0  0  0  0  0  0
   52.2303  102.2088   29.7179 C   0  0  0  0  0  0
   51.1864  103.5105   29.2189 S   0  0  0  0  0  0
   50.5378  102.4677   28.0122 C   0  0  0  0  0  0
   54.8100  105.2511   34.0363 C   0  0  0  0  0  0
   54.2900  103.9533   33.9693 C   0  0  0  0  0  0
   53.6020  103.4391   35.0747 C   0  0  0  0  0  0
   53.3918  104.2178   36.2162 C   0  0  0  0  0  0
   53.9150  105.5185   36.2630 C   0  0  0  0  0  0
   54.6205  106.0309   35.1749 C   0  0  0  0  0  0
   54.4194  103.1305   32.6839 C   0  0  0  0  0  0
   53.1612  103.1547   31.7858 C   0  0  0  0  0  0
   53.2007  102.3340   30.7129 N   0  0  0  0  0  0
   52.1947  103.8673   32.0790 O   0  0  0  0  0  0
   50.8597  100.1036   27.1303 C   0  0  0  0  0  0
   50.9879   98.7612   27.5112 C   0  0  0  0  0  0
   50.6077   97.7709   26.6030 C   0  0  0  0  0  0
   50.1291   98.0442   25.3662 N   0  0  0  0  0  0
   50.0430   99.3444   24.9993 C   0  0  0  0  0  0
   50.3919  100.3935   25.8436 C   0  0  0  0  0  0
   52.6657  103.6670   37.2517 O   0  0  0  0  0  0
   51.7417  104.5033   37.9548 C   0  0  0  0  0  0
   50.6254  105.0905   37.0510 C   0  0  0  0  0  0
   49.5647  104.1375   36.6954 N   0  0  0  0  0  0
   50.0608  102.9341   36.0083 C   0  0  0  0  0  0
   48.9105  101.9964   35.5881 C   0  0  0  0  0  0
   47.9527  102.7012   34.8042 O   0  0  0  0  0  0
   47.4032  103.8205   35.4908 C   0  0  0  0  0  0
   48.5229  104.8034   35.8983 C   0  0  0  0  0  0
   49.7762  102.8160   27.3334 H   0  0  0  0  0  0
   55.3450  105.6787   33.2064 H   0  0  0  0  0  0
   53.1923  102.4404   35.0379 H   0  0  0  0  0  0
   53.7784  106.1437   37.1313 H   0  0  0  0  0  0
   55.0040  107.0424   35.1995 H   0  0  0  0  0  0
   54.6516  102.0972   32.9425 H   0  0  0  0  0  0
   55.2575  103.5027   32.0941 H   0  0  0  0  0  0
   53.9761  101.6896   30.6530 H   0  0  0  0  0  0
   51.3517   98.4891   28.4922 H   0  0  0  0  0  0
   50.6851   96.7248   26.8589 H   0  0  0  0  0  0
   49.6523   99.5442   24.0110 H   0  0  0  0  0  0
   50.2862  101.4133   25.5011 H   0  0  0  0  0  0
   51.2922  103.9044   38.7463 H   0  0  0  0  0  0
   52.2688  105.3028   38.4749 H   0  0  0  0  0  0
   50.1703  105.9279   37.5822 H   0  0  0  0  0  0
   51.0590  105.5107   36.1423 H   0  0  0  0  0  0
   50.6414  103.2200   35.1302 H   0  0  0  0  0  0
   50.7427  102.3851   36.6560 H   0  0  0  0  0  0
   48.4434  101.5487   36.4643 H   0  0  0  0  0  0
   49.2974  101.1677   34.9965 H   0  0  0  0  0  0
   46.8432  103.5031   36.3701 H   0  0  0  0  0  0
   46.6897  104.3030   34.8239 H   0  0  0  0  0  0
   48.0956  105.6321   36.4635 H   0  0  0  0  0  0
   48.9699  105.2523   35.0086 H   0  0  0  0  0  0
  1  2  1  0  0  0
  1  5  2  0  0  0
  1 16  1  0  0  0
  2  3  2  0  0  0
  3  4  1  0  0  0
  3 14  1  0  0  0
  4  5  1  0  0  0
  5 31  1  0  0  0
  6  7  2  0  0  0
  6 11  1  0  0  0
  6 32  1  0  0  0
  7  8  1  0  0  0
  7 12  1  0  0  0
  8  9  2  0  0  0
  8 33  1  0  0  0
  9 10  1  0  0  0
  9 22  1  0  0  0
 10 11  2  0  0  0
 10 34  1  0  0  0
 11 35  1  0  0  0
 12 13  1  0  0  0
 12 36  1  0  0  0
 12 37  1  0  0  0
 13 14  1  0  0  0
 13 15  2  0  0  0
 14 38  1  0  0  0
 16 17  2  0  0  0
 16 21  1  0  0  0
 17 18  1  0  0  0
 17 39  1  0  0  0
 18 19  2  0  0  0
 18 40  1  0  0  0
 19 20  1  0  0  0
 20 21  2  0  0  0
 20 41  1  0  0  0
 21 42  1  0  0  0
 22 23  1  0  0  0
 23 24  1  0  0  0
 23 43  1  0  0  0
 23 44  1  0  0  0
 24 25  1  0  0  0
 24 45  1  0  0  0
 24 46  1  0  0  0
 25 26  1  0  0  0
 25 30  1  0  0  0
 26 27  1  0  0  0
 26 47  1  0  0  0
 26 48  1  0  0  0
 27 28  1  0  0  0
 27 49  1  0  0  0
 27 50  1  0  0  0
 28 29  1  0  0  0
 29 30  1  0  0  0
 29 51  1  0  0  0
 29 52  1  0  0  0
 30 53  1  0  0  0
 30 54  1  0  0  0
M  END
> <s_m_entry_id>
28213

> <s_m_entry_name>
dock_pv.374

> <s_m_Source_Path>
/home/csk/Desktop/cluster/DUD-E-result/rock1

> <s_m_Source_File>
dock_pv.maegz

> <i_m_Source_File_Index>
374

> <chembl_id>
CHEMBL4248852

> <chembl_pref_name>
None

> <i_lp_mmshare_version>
53161

> <r_lp_tautomer_probability>
0.999000488399163

> <s_lp_Force_Field>
OPLS_2005

> <r_lp_Energy>
31.608209

> <b_lp_Chiralities_Consistent>
1

> <s_lp_Variant>
CHEMBL3231_lig2106-1

> <s_i_glide_gridfile>
glide-grid_2etr

> <i_i_glide_lignum>
3034

> <i_i_glide_rotatable_bonds>
9

> <r_i_docking_score>
-7.60828852182932

> <r_i_glide_ligand_efficiency>
-0.253609617394311

> <r_i_glide_ligand_efficiency_sa>
-0.788024046096715

> <r_i_glide_ligand_efficiency_ln>
-1.72868605110275

> <r_i_glide_gscore>
-7.60828852182932

> <r_i_glide_lipo>
-3.18201771895935

> <r_i_glide_hbond>
-0.241819320828742

> <r_i_glide_metal>
0

> <r_i_glide_rewards>
-1.54703067091263

> <r_i_glide_evdw>
-50.4664840698242

> <r_i_glide_ecoul>
-6.14632320404053

> <r_i_glide_erotb>
0.880240791268193

> <r_i_glide_esite>
-0.0723889182994949

> <r_i_glide_emodel>
-79.8312827391363

> <r_i_glide_energy>
-56.6128072738647

> <r_i_glide_einternal>
4.40981388092041

> <i_i_glide_confnum>
22

> <i_i_glide_posenum>
99

> <r_i_glide_eff_state_penalty>
0

> <s_user_duplicate_titles>
CHEMBL3231_lig2106

> <i_f3d_flags>
0

> <s_m_subgroup_title>
dock_pv

> <s_m_subgroupid>
dock_pv

> <b_m_subgroup_collapsed>
1

$$$$
CHEMBL3231_lig395
                    3D
 Schrodinger Suite 2021-1.
 63 66  0  0  1  0            999 V2000
   53.7704  103.5105   32.9667 N   0  0  0  0  0  0
   52.8771  103.3304   31.9484 C   0  0  0  0  0  0
   51.7825  103.9031   31.8983 O   0  0  0  0  0  0
   53.2792  102.4542   31.0036 N   0  0  0  0  0  0
   53.4610  104.4035   34.1029 C   0  0  0  0  0  0
   52.8668  103.7048   35.3519 C   0  0  0  0  0  0
   51.6000  103.0325   35.0486 N   0  0  0  0  0  0
   51.3934  101.8166   35.8457 C   0  0  0  0  0  0
   50.1142  101.0802   35.3955 C   0  0  0  0  0  0
   48.8820  101.9935   35.4768 C   0  0  0  0  0  0
   49.1566  103.2727   34.6803 C   0  0  0  0  0  0
   50.4657  103.9629   35.1025 C   0  0  0  0  0  0
   55.0080  102.7105   33.1518 C   0  0  0  0  0  0
   54.8543  101.4292   33.9737 C   0  0  0  0  0  0
   53.9958  100.3976   33.5702 C   0  0  0  0  0  0
   53.8744   99.2176   34.3230 C   0  0  0  0  0  0
   54.6143   99.0956   35.4997 C   0  0  0  0  0  0
   55.4912  100.1041   35.8991 C   0  0  0  0  0  0
   55.6144  101.2639   35.1356 C   0  0  0  0  0  0
   53.0608   98.1539   33.9817 O   0  0  0  0  0  0
   52.5900   98.0533   32.6398 C   0  0  0  0  0  0
   52.5012  101.8595   30.0093 C   0  0  0  0  0  0
   51.5782  102.5716   29.2352 C   0  0  0  0  0  0
   50.9085  101.9243   28.2000 C   0  0  0  0  0  0
   51.1673  100.5766   27.9310 C   0  0  0  0  0  0
   52.0461   99.8631   28.7452 C   0  0  0  0  0  0
   52.7262  100.5062   29.7713 C   0  0  0  0  0  0
   49.6432   99.4999   24.7965 N   0  0  0  0  0  0
   50.0433   98.3032   25.2250 N   0  0  0  0  0  0
   50.5840   98.5478   26.3925 C   0  0  0  0  0  0
   50.5808   99.9127   26.7368 C   0  0  0  0  0  0
   49.9392  100.5094   25.6639 C   0  0  0  0  0  0
   54.1866  102.0327   31.1440 H   0  0  0  0  0  0
   54.3762  104.9218   34.3916 H   0  0  0  0  0  0
   52.7803  105.1917   33.7770 H   0  0  0  0  0  0
   53.5969  102.9996   35.7464 H   0  0  0  0  0  0
   52.7225  104.4343   36.1515 H   0  0  0  0  0  0
   52.2493  101.1529   35.7176 H   0  0  0  0  0  0
   51.3566  102.0757   36.9052 H   0  0  0  0  0  0
   50.2500  100.6933   34.3846 H   0  0  0  0  0  0
   49.9583  100.1997   36.0118 H   0  0  0  0  0  0
   48.6668  102.2377   36.5177 H   0  0  0  0  0  0
   47.9949  101.5002   35.0832 H   0  0  0  0  0  0
   48.3215  103.9623   34.8115 H   0  0  0  0  0  0
   49.2039  103.0579   33.6112 H   0  0  0  0  0  0
   50.3791  104.3879   36.1044 H   0  0  0  0  0  0
   50.6575  104.7989   34.4268 H   0  0  0  0  0  0
   55.7617  103.3464   33.6189 H   0  0  0  0  0  0
   55.4486  102.4358   32.1927 H   0  0  0  0  0  0
   53.4155  100.5154   32.6729 H   0  0  0  0  0  0
   54.5326   98.1952   36.0888 H   0  0  0  0  0  0
   56.0835   99.9826   36.7941 H   0  0  0  0  0  0
   56.3104  102.0282   35.4489 H   0  0  0  0  0  0
   52.0696   97.1036   32.5046 H   0  0  0  0  0  0
   51.8897   98.8549   32.3922 H   0  0  0  0  0  0
   53.4205   98.0682   31.9294 H   0  0  0  0  0  0
   51.4140  103.6254   29.4007 H   0  0  0  0  0  0
   50.2298  102.4913   27.5809 H   0  0  0  0  0  0
   52.2615   98.8224   28.5562 H   0  0  0  0  0  0
   53.4481   99.9520   30.3544 H   0  0  0  0  0  0
   49.1968   99.6283   23.8923 H   0  0  0  0  0  0
   51.0051   97.7453   26.9805 H   0  0  0  0  0  0
   49.6915  101.5336   25.4335 H   0  0  0  0  0  0
  1  2  1  0  0  0
  1  5  1  0  0  0
  1 13  1  0  0  0
  2  3  2  0  0  0
  2  4  1  0  0  0
  4 22  1  0  0  0
  4 33  1  0  0  0
  5  6  1  0  0  0
  5 34  1  0  0  0
  5 35  1  0  0  0
  6  7  1  0  0  0
  6 36  1  0  0  0
  6 37  1  0  0  0
  7  8  1  0  0  0
  7 12  1  0  0  0
  8  9  1  0  0  0
  8 38  1  0  0  0
  8 39  1  0  0  0
  9 10  1  0  0  0
  9 40  1  0  0  0
  9 41  1  0  0  0
 10 11  1  0  0  0
 10 42  1  0  0  0
 10 43  1  0  0  0
 11 12  1  0  0  0
 11 44  1  0  0  0
 11 45  1  0  0  0
 12 46  1  0  0  0
 12 47  1  0  0  0
 13 14  1  0  0  0
 13 48  1  0  0  0
 13 49  1  0  0  0
 14 15  1  0  0  0
 14 19  2  0  0  0
 15 16  2  0  0  0
 15 50  1  0  0  0
 16 17  1  0  0  0
 16 20  1  0  0  0
 17 18  2  0  0  0
 17 51  1  0  0  0
 18 19  1  0  0  0
 18 52  1  0  0  0
 19 53  1  0  0  0
 20 21  1  0  0  0
 21 54  1  0  0  0
 21 55  1  0  0  0
 21 56  1  0  0  0
 22 23  1  0  0  0
 22 27  2  0  0  0
 23 24  2  0  0  0
 23 57  1  0  0  0
 24 25  1  0  0  0
 24 58  1  0  0  0
 25 26  2  0  0  0
 25 31  1  0  0  0
 26 27  1  0  0  0
 26 59  1  0  0  0
 27 60  1  0  0  0
 28 29  1  0  0  0
 28 32  1  0  0  0
 28 61  1  0  0  0
 29 30  2  0  0  0
 30 31  1  0  0  0
 30 62  1  0  0  0
 31 32  2  0  0  0
 32 63  1  0  0  0
M  END
> <s_m_entry_id>
28214

> <s_m_entry_name>
dock_pv.375

> <s_m_Source_Path>
/home/csk/Desktop/cluster/DUD-E-result/rock1

> <s_m_Source_File>
dock_pv.maegz

> <i_m_Source_File_Index>
375

> <chembl_id>
CHEMBL2332073

> <chembl_pref_name>
None

> <i_lp_mmshare_version>
53161

> <r_lp_tautomer_probability>
0.5

> <s_lp_Force_Field>
OPLS_2005

> <r_lp_Energy>
47.261488

> <b_lp_Chiralities_Consistent>
1

> <s_lp_Variant>
CHEMBL3231_lig395-1

> <s_i_glide_gridfile>
glide-grid_2etr

> <i_i_glide_lignum>
554

> <i_i_glide_rotatable_bonds>
10

> <r_i_docking_score>
-7.60546029984957

> <r_i_glide_ligand_efficiency>
-0.237670634370299

> <r_i_glide_ligand_efficiency_sa>
-0.754557229171026

> <r_i_glide_ligand_efficiency_ln>
-1.70306987815411

> <r_i_glide_gscore>
-7.60546029984957

> <r_i_glide_lipo>
-2.78125138639949

> <r_i_glide_hbond>
-0.650352420632148

> <r_i_glide_metal>
0

> <r_i_glide_rewards>
-1.13989688652508

> <r_i_glide_evdw>
-45.6282920837402

> <r_i_glide_ecoul>
-8.27795791625977

> <r_i_glide_erotb>
0.593126281765918

> <r_i_glide_esite>
-0.103977596432797

> <r_i_glide_emodel>
-73.2943676533612

> <r_i_glide_energy>
-53.90625

> <r_i_glide_einternal>
9.33317375183105

> <i_i_glide_confnum>
7

> <i_i_glide_posenum>
44

> <r_i_glide_eff_state_penalty>
0

> <s_user_duplicate_titles>
CHEMBL3231_lig395

> <i_f3d_flags>
0

> <s_m_subgroup_title>
dock_pv

> <s_m_subgroupid>
dock_pv

> <b_m_subgroup_collapsed>
1

$$$$
CHEMBL3231_lig1261
                    3D
 Schrodinger Suite 2021-1.
 61 64  0  0  1  0            999 V2000
   51.2171  103.5030   30.7020 O   0  0  0  0  0  0
   53.5379  103.9021   33.0036 O   0  0  0  0  0  0
   55.5982   96.8890   33.7606 O   0  0  0  0  0  0
   54.9422   93.5104   32.8107 O   0  0  0  0  0  0
   52.6537   99.6762   29.9007 N   0  0  0  0  0  0
   52.0429   99.0310   28.8923 N   0  0  0  0  0  0
   52.8659  101.8937   30.8267 N   0  0  0  0  0  0
   56.4431   94.8968   31.9252 N   0  0  0  0  0  0
   52.4325  101.0345   29.8312 C   0  0  0  0  0  0
   51.4682   99.9408   28.1299 C   0  0  0  0  0  0
   51.6806  101.2186   28.6794 C   0  0  0  0  0  0
   53.3688   98.9539   30.8874 C   0  0  0  0  0  0
   50.6773   99.5354   26.8724 C   0  0  0  0  0  0
   51.5157  102.8236   33.7978 C   0  0  0  0  0  0
   52.1364  102.9238   31.2794 C   0  0  0  0  0  0
   52.5164  103.2567   32.7688 C   0  0  0  0  0  0
   50.8263  103.7411   34.6650 C   0  0  0  0  0  0
   49.8457  103.2275   35.5771 C   0  0  0  0  0  0
   54.5614   99.4734   31.4039 C   0  0  0  0  0  0
   52.8884   97.7270   31.3578 C   0  0  0  0  0  0
   51.2440  101.4525   33.9053 C   0  0  0  0  0  0
   54.7992   97.5468   32.8416 C   0  0  0  0  0  0
   51.0579  105.1490   34.6657 C   0  0  0  0  0  0
   55.2430   98.7881   32.4005 C   0  0  0  0  0  0
   53.6062   97.0293   32.3245 C   0  0  0  0  0  0
   49.6028  101.8349   35.6298 C   0  0  0  0  0  0
   49.4215  100.4102   26.7423 C   0  0  0  0  0  0
   50.2058   98.0616   26.9331 C   0  0  0  0  0  0
   51.5380   99.7403   25.6114 C   0  0  0  0  0  0
   50.3110  100.9662   34.8112 C   0  0  0  0  0  0
   49.1323  104.1182   36.4198 C   0  0  0  0  0  0
   50.3423  105.9951   35.5069 C   0  0  0  0  0  0
   49.3849  105.4850   36.3737 C   0  0  0  0  0  0
   55.3697   95.5053   34.0772 C   0  0  0  0  0  0
   55.5693   94.5624   32.8729 C   0  0  0  0  0  0
   53.6017  101.5524   31.4276 H   0  0  0  0  0  0
   56.9571   95.7687   31.9695 H   0  0  0  0  0  0
   56.6012   94.2752   31.1480 H   0  0  0  0  0  0
   51.3102  102.1591   28.2985 H   0  0  0  0  0  0
   54.9936  100.3896   31.0280 H   0  0  0  0  0  0
   51.9723   97.2990   30.9751 H   0  0  0  0  0  0
   51.7610  100.7354   33.2803 H   0  0  0  0  0  0
   51.8020  105.5793   34.0101 H   0  0  0  0  0  0
   56.1750   99.1842   32.7790 H   0  0  0  0  0  0
   53.2429   96.0690   32.6516 H   0  0  0  0  0  0
   48.8682  101.4478   36.3215 H   0  0  0  0  0  0
   49.6726  101.4680   26.6578 H   0  0  0  0  0  0
   48.8429  100.1485   25.8557 H   0  0  0  0  0  0
   48.7719  100.3029   27.6109 H   0  0  0  0  0  0
   51.0461   97.3684   26.9809 H   0  0  0  0  0  0
   49.6004   97.8975   27.8242 H   0  0  0  0  0  0
   49.6039   97.7856   26.0664 H   0  0  0  0  0  0
   52.4215   99.1030   25.6299 H   0  0  0  0  0  0
   50.9815   99.5031   24.7042 H   0  0  0  0  0  0
   51.8722  100.7744   25.5170 H   0  0  0  0  0  0
   50.1258   99.9037   34.8696 H   0  0  0  0  0  0
   48.3909  103.7258   37.1017 H   0  0  0  0  0  0
   50.5401  107.0575   35.4883 H   0  0  0  0  0  0
   48.8427  106.1560   37.0215 H   0  0  0  0  0  0
   54.4018   95.3466   34.5539 H   0  0  0  0  0  0
   56.1148   95.2250   34.8213 H   0  0  0  0  0  0
  1 15  2  0  0  0
  2 16  2  0  0  0
  3 22  1  0  0  0
  3 34  1  0  0  0
  4 35  2  0  0  0
  5  6  1  0  0  0
  5  9  1  0  0  0
  5 12  1  0  0  0
  6 10  2  0  0  0
  7  9  1  0  0  0
  7 15  1  0  0  0
  7 36  1  0  0  0
  8 35  1  0  0  0
  8 37  1  0  0  0
  8 38  1  0  0  0
  9 11  2  0  0  0
 10 11  1  0  0  0
 10 13  1  0  0  0
 11 39  1  0  0  0
 12 19  2  0  0  0
 12 20  1  0  0  0
 13 27  1  0  0  0
 13 28  1  0  0  0
 13 29  1  0  0  0
 14 16  1  0  0  0
 14 17  1  0  0  0
 14 21  2  0  0  0
 15 16  1  0  0  0
 17 18  1  0  0  0
 17 23  2  0  0  0
 18 26  1  0  0  0
 18 31  2  0  0  0
 19 24  1  0  0  0
 19 40  1  0  0  0
 20 25  2  0  0  0
 20 41  1  0  0  0
 21 30  1  0  0  0
 21 42  1  0  0  0
 22 24  2  0  0  0
 22 25  1  0  0  0
 23 32  1  0  0  0
 23 43  1  0  0  0
 24 44  1  0  0  0
 25 45  1  0  0  0
 26 30  2  0  0  0
 26 46  1  0  0  0
 27 47  1  0  0  0
 27 48  1  0  0  0
 27 49  1  0  0  0
 28 50  1  0  0  0
 28 51  1  0  0  0
 28 52  1  0  0  0
 29 53  1  0  0  0
 29 54  1  0  0  0
 29 55  1  0  0  0
 30 56  1  0  0  0
 31 33  1  0  0  0
 31 57  1  0  0  0
 32 33  2  0  0  0
 32 58  1  0  0  0
 33 59  1  0  0  0
 34 35  1  0  0  0
 34 60  1  0  0  0
 34 61  1  0  0  0
M  END
> <s_m_entry_id>
28216

> <s_m_entry_name>
dock_pv.377

> <s_m_Source_Path>
/home/csk/Desktop/cluster/DUD-E-result/rock1

> <s_m_Source_File>
dock_pv.maegz

> <i_m_Source_File_Index>
377

> <chembl_id>
CHEMBL1977634

> <chembl_pref_name>
None

> <i_lp_mmshare_version>
53161

> <r_lp_tautomer_probability>
1

> <s_lp_Force_Field>
OPLS_2005

> <r_lp_Energy>
31.91763

> <b_lp_Chiralities_Consistent>
1

> <s_lp_Variant>
CHEMBL3231_lig1261-1

> <s_i_glide_gridfile>
glide-grid_2etr

> <i_i_glide_lignum>
1755

> <i_i_glide_rotatable_bonds>
9

> <r_i_docking_score>
-7.59834231517525

> <r_i_glide_ligand_efficiency>
-0.217095494719293

> <r_i_glide_ligand_efficiency_sa>
-0.710133758028413

> <r_i_glide_ligand_efficiency_ln>
-1.66800477430278

> <r_i_glide_gscore>
-7.59834231517525

> <r_i_glide_lipo>
-3.01552555346996

> <r_i_glide_hbond>
-0.48

> <r_i_glide_metal>
0

> <r_i_glide_rewards>
-0.592811341052348

> <r_i_glide_evdw>
-50.8372917175293

> <r_i_glide_ecoul>
-9.26458835601807

> <r_i_glide_erotb>
0.547606772696385

> <r_i_glide_esite>
-0.126059354070152

> <r_i_glide_emodel>
-81.0723651721662

> <r_i_glide_energy>
-60.1018800735474

> <r_i_glide_einternal>
11.730842590332

> <i_i_glide_confnum>
9

> <i_i_glide_posenum>
124

> <r_i_glide_eff_state_penalty>
0

> <s_user_duplicate_titles>
CHEMBL3231_lig1261

> <i_f3d_flags>
0

> <s_m_subgroup_title>
dock_pv

> <s_m_subgroupid>
dock_pv

> <b_m_subgroup_collapsed>
1

$$$$
CHEMBL3231_lig1400
                    3D
 Schrodinger Suite 2021-1.
 35 37  0  0  1  0            999 V2000
   54.1626  104.3084   34.3649 S   0  0  0  0  0  0
   52.8227  104.0814   34.9149 O   0  0  0  0  0  0
   54.9375  105.4997   34.7289 O   0  0  0  0  0  0
   50.3806   97.5031   26.5102 N   0  0  0  0  0  0
   50.0433   98.2432   25.4403 N   0  0  0  0  0  0
   54.0429  104.3030   32.5970 N   0  0  0  0  0  0
   50.0500  100.5093   24.8793 N   0  0  0  0  0  0
   50.8019   99.6122   27.0840 C   0  0  0  0  0  0
   50.8276   98.2810   27.5595 C   0  0  0  0  0  0
   51.7100  100.3360   29.2210 C   0  0  0  0  0  0
   50.2811   99.4886   25.7531 C   0  0  0  0  0  0
   51.2423  100.6469   27.9318 C   0  0  0  0  0  0
   52.2602  101.3961   30.1216 C   0  0  0  0  0  0
   51.2430   97.9529   28.8499 C   0  0  0  0  0  0
   51.6909   99.0018   29.6513 C   0  0  0  0  0  0
   53.4053  103.3305   31.8149 C   0  0  0  0  0  0
   52.0429  101.3575   31.5050 C   0  0  0  0  0  0
   53.0458  102.4301   29.6029 C   0  0  0  0  0  0
   52.6059  102.3128   32.3465 C   0  0  0  0  0  0
   53.6138  103.3880   30.4381 C   0  0  0  0  0  0
   55.2388  102.8078   34.7107 C   0  0  0  0  0  0
   50.2859   96.4966   26.4916 H   0  0  0  0  0  0
   54.6451  104.9600   32.1131 H   0  0  0  0  0  0
   50.5362  101.3912   24.9687 H   0  0  0  0  0  0
   49.6101  100.3317   23.9820 H   0  0  0  0  0  0
   51.2335  101.6677   27.5833 H   0  0  0  0  0  0
   51.2429   96.9366   29.2122 H   0  0  0  0  0  0
   52.0561   98.7547   30.6374 H   0  0  0  0  0  0
   51.4441  100.5722   31.9417 H   0  0  0  0  0  0
   53.2440  102.4720   28.5441 H   0  0  0  0  0  0
   52.4282  102.2337   33.4078 H   0  0  0  0  0  0
   54.2343  104.1648   30.0107 H   0  0  0  0  0  0
   55.2616  102.6375   35.7862 H   0  0  0  0  0  0
   56.2440  103.0152   34.3502 H   0  0  0  0  0  0
   54.8253  101.9394   34.2003 H   0  0  0  0  0  0
  1  2  2  0  0  0
  1  3  2  0  0  0
  1  6  1  0  0  0
  1 21  1  0  0  0
  4  5  1  0  0  0
  4  9  1  0  0  0
  4 22  1  0  0  0
  5 11  2  0  0  0
  6 16  1  0  0  0
  6 23  1  0  0  0
  7 11  1  0  0  0
  7 24  1  0  0  0
  7 25  1  0  0  0
  8  9  1  0  0  0
  8 11  1  0  0  0
  8 12  2  0  0  0
  9 14  2  0  0  0
 10 12  1  0  0  0
 10 13  1  0  0  0
 10 15  2  0  0  0
 12 26  1  0  0  0
 13 17  2  0  0  0
 13 18  1  0  0  0
 14 15  1  0  0  0
 14 27  1  0  0  0
 15 28  1  0  0  0
 16 19  2  0  0  0
 16 20  1  0  0  0
 17 19  1  0  0  0
 17 29  1  0  0  0
 18 20  2  0  0  0
 18 30  1  0  0  0
 19 31  1  0  0  0
 20 32  1  0  0  0
 21 33  1  0  0  0
 21 34  1  0  0  0
 21 35  1  0  0  0
M  END
> <s_m_entry_id>
28217

> <s_m_entry_name>
dock_pv.378

> <s_m_Source_Path>
/home/csk/Desktop/cluster/DUD-E-result/rock1

> <s_m_Source_File>
dock_pv.maegz

> <i_m_Source_File_Index>
378

> <chembl_id>
CHEMBL2004892

> <chembl_pref_name>
None

> <i_lp_mmshare_version>
53161

> <r_lp_tautomer_probability>
1

> <s_lp_Force_Field>
OPLS_2005

> <r_lp_Energy>
4.65051

> <b_lp_Chiralities_Consistent>
1

> <s_lp_Variant>
CHEMBL3231_lig1400-1

> <s_i_glide_gridfile>
glide-grid_2etr

> <i_i_glide_lignum>
1959

> <i_i_glide_rotatable_bonds>
3

> <r_i_docking_score>
-7.59561309260743

> <r_i_glide_ligand_efficiency>
-0.361695861552735

> <r_i_glide_ligand_efficiency_sa>
-0.997891455922138

> <r_i_glide_ligand_efficiency_ln>
-1.87799998876575

> <r_i_glide_gscore>
-7.59561309260743

> <r_i_glide_lipo>
-1.82152760973554

> <r_i_glide_hbond>
-0.616128590787967

> <r_i_glide_metal>
0

> <r_i_glide_rewards>
-2.48426284848485

> <r_i_glide_evdw>
-36.9066429138184

> <r_i_glide_ecoul>
-6.39280939102173

> <r_i_glide_erotb>
0.281951040115371

> <r_i_glide_esite>
-0.151391529370273

> <r_i_glide_emodel>
-63.1027322711833

> <r_i_glide_energy>
-43.2994523048401

> <r_i_glide_einternal>
0.463277757167816

> <i_i_glide_confnum>
1

> <i_i_glide_posenum>
136

> <r_i_glide_eff_state_penalty>
0

> <s_user_duplicate_titles>
CHEMBL3231_lig1400

> <i_f3d_flags>
0

> <s_m_subgroup_title>
dock_pv

> <s_m_subgroupid>
dock_pv

> <b_m_subgroup_collapsed>
1

$$$$
CHEMBL3231_lig416
                    3D
 Schrodinger Suite 2021-1.
 43 46  0  0  1  0            999 V2000
   51.2425   99.8093   28.1335 C   0  0  0  0  0  0
   51.6455   98.6871   28.8688 C   0  0  0  0  0  0
   52.0586   98.8087   30.1961 C   0  0  0  0  0  0
   51.2572  101.0671   28.7429 C   0  0  0  0  0  0
   51.6429  101.1899   30.0822 C   0  0  0  0  0  0
   52.0437  100.0583   30.8011 C   0  0  0  0  0  0
   52.3687  100.2164   32.1504 N   0  0  0  0  0  0
   52.2574  101.4576   32.7576 C   0  0  0  0  0  0
   51.8605  102.5167   32.1468 N   0  0  0  0  0  0
   51.5337  102.5267   30.7914 C   0  0  0  0  0  0
   51.1059  103.5048   30.1819 O   0  0  0  0  0  0
   50.7635   99.6698   26.7314 C   0  0  0  0  0  0
   52.6044  101.5197   34.2653 C   0  0  2  0  0  0
   51.4505  101.2351   35.1159 N   0  0  0  0  0  0
   50.4749  100.6698   25.8106 C   0  0  0  0  0  0
   50.0429  100.0280   24.6850 N   0  0  0  0  0  0
   50.0425   98.7032   24.8111 N   0  0  0  0  0  0
   50.4717   98.4888   26.0290 C   0  0  0  0  0  0
   53.2641  102.8347   34.7016 C   0  0  0  0  0  0
   54.6330  102.8592   34.9767 C   0  0  0  0  0  0
   55.2566  104.0604   35.2978 C   0  0  0  0  0  0
   54.5320  105.2526   35.3299 C   0  0  0  0  0  0
   53.1543  105.2248   35.0747 C   0  0  0  0  0  0
   52.5257  104.0226   34.7714 C   0  0  0  0  0  0
   55.2430  106.4015   35.6124 O   0  0  0  0  0  0
   54.6160  107.6682   35.4301 C   0  0  0  0  0  0
   51.6402   97.7077   28.4159 H   0  0  0  0  0  0
   52.3592   97.9330   30.7520 H   0  0  0  0  0  0
   50.9305  101.9355   28.1872 H   0  0  0  0  0  0
   52.6938   99.4193   32.6717 H   0  0  0  0  0  0
   53.3194  100.7230   34.4784 H   0  0  0  0  0  0
   51.0846  100.3191   34.9010 H   0  0  0  0  0  0
   51.7584  101.1970   36.0777 H   0  0  0  0  0  0
   50.5231  101.7482   25.8555 H   0  0  0  0  0  0
   49.7293  100.4780   23.8332 H   0  0  0  0  0  0
   50.5646   97.4828   26.4110 H   0  0  0  0  0  0
   55.2238  101.9555   34.9221 H   0  0  0  0  0  0
   56.3179  104.0633   35.4930 H   0  0  0  0  0  0
   52.5636  106.1281   35.0823 H   0  0  0  0  0  0
   51.4690  104.0151   34.5489 H   0  0  0  0  0  0
   55.3439  108.4601   35.6084 H   0  0  0  0  0  0
   53.7937  107.8128   36.1317 H   0  0  0  0  0  0
   54.2439  107.7897   34.4111 H   0  0  0  0  0  0
  1  4  2  0  0  0
  1 12  1  0  0  0
  1  2  1  0  0  0
  2 27  1  0  0  0
  2  3  2  0  0  0
  3 28  1  0  0  0
  3  6  1  0  0  0
  4  5  1  0  0  0
  4 29  1  0  0  0
  5 10  1  0  0  0
  5  6  2  0  0  0
  6  7  1  0  0  0
  7 30  1  0  0  0
  7  8  1  0  0  0
  8 13  1  0  0  0
  8  9  2  0  0  0
  9 10  1  0  0  0
 10 11  2  0  0  0
 12 15  2  0  0  0
 12 18  1  0  0  0
 13 14  1  0  0  0
 13 19  1  0  0  0
 13 31  1  0  0  0
 14 32  1  0  0  0
 14 33  1  0  0  0
 15 16  1  0  0  0
 15 34  1  0  0  0
 16 17  1  0  0  0
 16 35  1  0  0  0
 17 18  2  0  0  0
 18 36  1  0  0  0
 19 20  2  0  0  0
 19 24  1  0  0  0
 20 21  1  0  0  0
 20 37  1  0  0  0
 21 22  2  0  0  0
 21 38  1  0  0  0
 22 23  1  0  0  0
 22 25  1  0  0  0
 23 24  2  0  0  0
 23 39  1  0  0  0
 24 40  1  0  0  0
 25 26  1  0  0  0
 26 41  1  0  0  0
 26 42  1  0  0  0
 26 43  1  0  0  0
M  END
> <s_m_entry_id>
28218

> <s_m_entry_name>
dock_pv.379

> <s_m_Source_Path>
/home/csk/Desktop/cluster/DUD-E-result/rock1

> <s_m_Source_File>
dock_pv.maegz

> <i_m_Source_File_Index>
379

> <chembl_id>
CHEMBL2334288

> <chembl_pref_name>
None

> <i_lp_mmshare_version>
53161

> <r_lp_tautomer_probability>
0.0616002225126304

> <s_lp_Force_Field>
OPLS_2005

> <r_lp_Energy>
19.828656

> <b_lp_Chiralities_Consistent>
1

> <s_lp_Variant>
CHEMBL3231_lig416-3

> <s_i_glide_gridfile>
glide-grid_2etr

> <i_i_glide_lignum>
599

> <i_i_glide_rotatable_bonds>
4

> <r_i_docking_score>
-7.59406878176092

> <r_i_glide_ligand_efficiency>
-0.292079568529266

> <r_i_glide_ligand_efficiency_sa>
-0.865284572490345

> <r_i_glide_ligand_efficiency_ln>
-1.78344213522446

> <r_i_glide_gscore>
-7.59406878176092

> <r_i_glide_lipo>
-1.92238221686976

> <r_i_glide_hbond>
-0.676291072345784

> <r_i_glide_metal>
0

> <r_i_glide_rewards>
-2.25806527331309

> <r_i_glide_evdw>
-37.8696975708008

> <r_i_glide_ecoul>
-7.75776767730713

> <r_i_glide_erotb>
0.331073884699048

> <r_i_glide_esite>
-0.0112540737952256

> <r_i_glide_emodel>
-65.367418958387

> <r_i_glide_energy>
-45.6274652481079

> <r_i_glide_einternal>
5.83130216598511

> <i_i_glide_confnum>
3

> <i_i_glide_posenum>
10

> <r_i_glide_eff_state_penalty>
0

> <s_user_duplicate_titles>
CHEMBL3231_lig416

> <i_f3d_flags>
0

> <s_m_subgroup_title>
dock_pv

> <s_m_subgroupid>
dock_pv

> <b_m_subgroup_collapsed>
1

$$$$
CHEMBL3231_lig296
                    3D
 Schrodinger Suite 2021-1.
 30 32  0  0  1  0            999 V2000
   54.0132  100.4968   32.5736 C   0  0  0  0  0  0
   53.9804   99.3195   33.2494 N   0  0  0  0  0  0
   53.2517   98.3300   32.6828 C   0  0  0  0  0  0
   52.5437   98.4243   31.5327 N   0  0  0  0  0  0
   52.5876   99.6122   30.8591 C   0  0  0  0  0  0
   53.3332  100.6904   31.3682 C   0  0  0  0  0  0
   51.8701   99.6664   29.5392 C   0  0  0  0  0  0
   51.4688   98.4768   28.9022 C   0  0  0  0  0  0
   51.0049  100.9884   27.6615 C   0  0  0  0  0  0
   51.6125  100.8974   28.9125 C   0  0  0  0  0  0
   50.6724   99.8040   26.9937 C   0  0  0  0  0  0
   50.9170   98.5660   27.6234 C   0  0  0  0  0  0
   50.5080   97.6060   26.7195 N   0  0  0  0  0  0
   50.0387   98.1512   25.5841 N   0  0  0  0  0  0
   50.0905   99.4468   25.7414 C   0  0  0  0  0  0
   49.6425  100.3323   24.8110 N   0  0  0  0  0  0
   53.2426   97.1015   33.3253 N   0  0  0  0  0  0
   54.8454  101.6023   33.1888 C   0  0  0  0  0  0
   53.4246  101.6316   30.8496 H   0  0  0  0  0  0
   51.6163   97.5158   29.3703 H   0  0  0  0  0  0
   50.8192  101.9484   27.2055 H   0  0  0  0  0  0
   51.8846  101.8230   29.3954 H   0  0  0  0  0  0
   50.5558   96.6026   26.8261 H   0  0  0  0  0  0
   49.7860  101.3259   24.9151 H   0  0  0  0  0  0
   49.2431  100.0318   23.9252 H   0  0  0  0  0  0
   53.8878   96.9507   34.0856 H   0  0  0  0  0  0
   52.7363   96.3354   32.8945 H   0  0  0  0  0  0
   55.3091  102.2141   32.4135 H   0  0  0  0  0  0
   55.6427  101.1971   33.8133 H   0  0  0  0  0  0
   54.2205  102.2448   33.8081 H   0  0  0  0  0  0
  1  6  1  0  0  0
  1  2  2  0  0  0
  1 18  1  0  0  0
  2  3  1  0  0  0
  3  4  2  0  0  0
  3 17  1  0  0  0
  4  5  1  0  0  0
  5  7  1  0  0  0
  5  6  2  0  0  0
  6 19  1  0  0  0
  7 10  1  0  0  0
  7  8  2  0  0  0
  8 12  1  0  0  0
  8 20  1  0  0  0
  9 11  1  0  0  0
  9 10  2  0  0  0
  9 21  1  0  0  0
 10 22  1  0  0  0
 11 12  2  0  0  0
 11 15  1  0  0  0
 12 13  1  0  0  0
 13 14  1  0  0  0
 13 23  1  0  0  0
 14 15  2  0  0  0
 15 16  1  0  0  0
 16 24  1  0  0  0
 16 25  1  0  0  0
 17 26  1  0  0  0
 17 27  1  0  0  0
 18 28  1  0  0  0
 18 29  1  0  0  0
 18 30  1  0  0  0
M  END
> <s_m_entry_id>
28219

> <s_m_entry_name>
dock_pv.380

> <s_m_Source_Path>
/home/csk/Desktop/cluster/DUD-E-result/rock1

> <s_m_Source_File>
dock_pv.maegz

> <i_m_Source_File_Index>
380

> <chembl_id>
CHEMBL1765756

> <chembl_pref_name>
None

> <i_lp_mmshare_version>
53161

> <r_lp_tautomer_probability>
0.999999987636

> <s_lp_Force_Field>
OPLS_2005

> <r_lp_Energy>
0.949728

> <b_lp_Chiralities_Consistent>
1

> <s_lp_Variant>
CHEMBL3231_lig296-1

> <s_i_glide_gridfile>
glide-grid_2etr

> <i_i_glide_lignum>
444

> <i_i_glide_rotatable_bonds>
1

> <r_i_docking_score>
-7.59327369084075

> <r_i_glide_ligand_efficiency>
-0.421848538380042

> <r_i_glide_ligand_efficiency_sa>
-1.10555592555394

> <r_i_glide_ligand_efficiency_ln>
-1.95181184816822

> <r_i_glide_gscore>
-7.59327369084075

> <r_i_glide_lipo>
-1.83530842744429

> <r_i_glide_hbond>
-0.641981843075471

> <r_i_glide_metal>
0

> <r_i_glide_rewards>
-2.88259475757576

> <r_i_glide_evdw>
-32.0134925842285

> <r_i_glide_ecoul>
-5.47341012954712

> <r_i_glide_erotb>
0.209777926434488

> <r_i_glide_esite>
-0.0214804405362285

> <r_i_glide_emodel>
-54.2958192823101

> <r_i_glide_energy>
-37.4869027137756

> <r_i_glide_einternal>
0.00200716103427112

> <i_i_glide_confnum>
2

> <i_i_glide_posenum>
21

> <r_i_glide_eff_state_penalty>
0

> <s_user_duplicate_titles>
CHEMBL3231_lig296

> <i_f3d_flags>
0

> <s_m_subgroup_title>
dock_pv

> <s_m_subgroupid>
dock_pv

> <b_m_subgroup_collapsed>
1

$$$$
CHEMBL3231_lig913
                    3D
 Schrodinger Suite 2021-1.
 34 36  0  0  1  0            999 V2000
   54.8432  101.1972   33.6491 C   0  0  0  0  0  0
   53.4993  101.0433   32.8930 C   0  0  2  0  0  0
   52.4797  100.1181   33.6001 C   0  0  0  0  0  0
   53.8277  100.4185   31.5949 N   0  0  0  0  0  0
   52.9131  102.3930   32.6688 N   0  0  0  0  0  0
   52.1762  102.7949   31.6035 C   0  0  0  0  0  0
   52.8907  100.5979   30.6054 C   0  0  0  0  0  0
   52.1181  101.7549   30.6116 C   0  0  0  0  0  0
   51.1109  101.8294   29.1977 S   0  0  0  0  0  0
   51.6434  100.2506   28.6766 C   0  0  0  0  0  0
   52.6092   99.7433   29.5438 C   0  0  0  0  0  0
   51.0651   99.6122   27.4609 C   0  0  0  0  0  0
   50.9699   98.2159   27.4182 C   0  0  0  0  0  0
   50.4523   97.6072   26.2777 C   0  0  0  0  0  0
   50.0419   98.3103   25.1969 N   0  0  0  0  0  0
   50.1218   99.6637   25.2448 C   0  0  0  0  0  0
   50.6237  100.3496   26.3520 C   0  0  0  0  0  0
   51.6499  103.9029   31.5833 O   0  0  0  0  0  0
   55.6392   99.9044   33.9325 C   0  0  0  0  0  0
   54.6574  101.6936   34.6023 H   0  0  0  0  0  0
   55.4896  101.8785   33.0911 H   0  0  0  0  0  0
   51.5364  100.0550   33.0554 H   0  0  0  0  0  0
   52.8584   99.1014   33.7091 H   0  0  0  0  0  0
   52.2493  100.4869   34.6003 H   0  0  0  0  0  0
   54.4348   99.6128   31.6449 H   0  0  0  0  0  0
   52.9881  103.0625   33.4182 H   0  0  0  0  0  0
   53.1026   98.7929   29.4056 H   0  0  0  0  0  0
   51.2863   97.6064   28.2523 H   0  0  0  0  0  0
   50.3793   96.5312   26.2144 H   0  0  0  0  0  0
   49.7771  100.1977   24.3702 H   0  0  0  0  0  0
   50.6799  101.4283   26.3382 H   0  0  0  0  0  0
   56.5551  100.1317   34.4805 H   0  0  0  0  0  0
   55.9392   99.4000   33.0131 H   0  0  0  0  0  0
   55.0698   99.1981   34.5358 H   0  0  0  0  0  0
  1  2  1  0  0  0
  1 19  1  0  0  0
  1 20  1  0  0  0
  1 21  1  0  0  0
  2  3  1  0  0  0
  2  4  1  0  0  0
  2  5  1  0  0  0
  3 22  1  0  0  0
  3 23  1  0  0  0
  3 24  1  0  0  0
  4  7  1  0  0  0
  4 25  1  0  0  0
  5  6  1  0  0  0
  5 26  1  0  0  0
  6  8  1  0  0  0
  6 18  2  0  0  0
  7  8  2  0  0  0
  7 11  1  0  0  0
  8  9  1  0  0  0
  9 10  1  0  0  0
 10 11  2  0  0  0
 10 12  1  0  0  0
 11 27  1  0  0  0
 12 13  2  0  0  0
 12 17  1  0  0  0
 13 14  1  0  0  0
 13 28  1  0  0  0
 14 15  2  0  0  0
 14 29  1  0  0  0
 15 16  1  0  0  0
 16 17  2  0  0  0
 16 30  1  0  0  0
 17 31  1  0  0  0
 19 32  1  0  0  0
 19 33  1  0  0  0
 19 34  1  0  0  0
M  END
> <s_m_entry_id>
28221

> <s_m_entry_name>
dock_pv.382

> <s_m_Source_Path>
/home/csk/Desktop/cluster/DUD-E-result/rock1

> <s_m_Source_File>
dock_pv.maegz

> <i_m_Source_File_Index>
382

> <chembl_id>
CHEMBL4203275

> <chembl_pref_name>
None

> <i_lp_mmshare_version>
53161

> <r_lp_tautomer_probability>
0.99999637101317

> <s_lp_Force_Field>
OPLS_2005

> <r_lp_Energy>
18.964101

> <b_lp_Chiralities_Consistent>
1

> <s_lp_Variant>
CHEMBL3231_lig913-1

> <s_i_glide_gridfile>
glide-grid_2etr

> <i_i_glide_lignum>
1310

> <i_i_glide_rotatable_bonds>
2

> <r_i_docking_score>
-7.5896558346001

> <r_i_glide_ligand_efficiency>
-0.39945557024211

> <r_i_glide_ligand_efficiency_sa>
-1.06590790117905

> <r_i_glide_ligand_efficiency_ln>
-1.92414076493179

> <r_i_glide_gscore>
-7.5896558346001

> <r_i_glide_lipo>
-2.02162444560901

> <r_i_glide_hbond>
-0.396297139252852

> <r_i_glide_metal>
0

> <r_i_glide_rewards>
-2.91197757575758

> <r_i_glide_evdw>
-32.9269218444824

> <r_i_glide_ecoul>
-5.03841018676758

> <r_i_glide_erotb>
0.240059414020591

> <r_i_glide_esite>
-0.0977084677620001

> <r_i_glide_emodel>
-56.0864365293058

> <r_i_glide_energy>
-37.96533203125

> <r_i_glide_einternal>
0.721098780632019

> <i_i_glide_confnum>
1

> <i_i_glide_posenum>
19

> <r_i_glide_eff_state_penalty>
0

> <s_user_duplicate_titles>
CHEMBL3231_lig913

> <i_f3d_flags>
0

> <s_m_subgroup_title>
dock_pv

> <s_m_subgroupid>
dock_pv

> <b_m_subgroup_collapsed>
1

$$$$
CHEMBL3231_lig49
                    3D
 Schrodinger Suite 2021-1.
 50 54  0  0  1  0            999 V2000
   53.6220  103.5131   30.4051 C   0  0  0  0  0  0
   53.9501  102.6983   31.6557 C   0  0  0  0  0  0
   53.4472  101.4714   31.9736 C   0  0  0  0  0  0
   53.8138  100.8302   33.3391 C   0  0  2  0  0  0
   54.9942  101.5753   34.0492 C   0  0  0  0  0  0
   55.2024  103.0685   33.6952 C   0  0  0  0  0  0
   55.7802  103.8717   34.4253 O   0  0  0  0  0  0
   54.7590  103.4221   32.4743 N   0  0  0  0  0  0
   54.1578   99.3306   33.2567 C   0  0  0  0  0  0
   54.8532   98.8195   32.1584 C   0  0  0  0  0  0
   55.0970   97.4575   32.0254 C   0  0  0  0  0  0
   54.6688   96.5580   33.0224 C   0  0  0  0  0  0
   54.8742   95.1651   32.8931 C   0  0  0  0  0  0
   54.4415   94.3029   33.8940 C   0  0  0  0  0  0
   53.8449   94.7950   35.0492 C   0  0  0  0  0  0
   53.6425   96.1639   35.2109 C   0  0  0  0  0  0
   54.0186   97.0694   34.1860 C   0  0  0  0  0  0
   53.7612   98.4626   34.2794 C   0  0  0  0  0  0
   52.5029  100.7140   31.1490 C   0  0  0  0  0  0
   51.6423  100.0007   31.6648 O   0  0  0  0  0  0
   52.6898  100.7928   29.8152 N   0  0  0  0  0  0
   51.9623  100.1267   28.8188 C   0  0  0  0  0  0
   51.6469   98.7660   28.9102 C   0  0  0  0  0  0
   51.0169   98.0933   27.8653 C   0  0  0  0  0  0
   50.6633   98.8098   26.7132 C   0  0  0  0  0  0
   50.0431   98.3359   25.5870 N   0  0  0  0  0  0
   49.9375   99.4333   24.8164 N   0  0  0  0  0  0
   50.4620  100.5769   25.3581 C   0  0  0  0  0  0
   50.9626  100.2043   26.6268 C   0  0  0  0  0  0
   51.6229  100.8568   27.6789 C   0  0  0  0  0  0
   52.6226  103.3166   30.0191 H   0  0  0  0  0  0
   53.6430  104.5891   30.6015 H   0  0  0  0  0  0
   54.3527  103.3129   29.6215 H   0  0  0  0  0  0
   52.9096  100.9631   33.9377 H   0  0  0  0  0  0
   55.9390  101.1023   33.7788 H   0  0  0  0  0  0
   54.9076  101.4848   35.1328 H   0  0  0  0  0  0
   55.0208  104.3647   32.2016 H   0  0  0  0  0  0
   55.2077   99.4824   31.3805 H   0  0  0  0  0  0
   55.6422   97.0904   31.1679 H   0  0  0  0  0  0
   55.3653   94.7759   32.0133 H   0  0  0  0  0  0
   54.5896   93.2426   33.7759 H   0  0  0  0  0  0
   53.5297   94.1076   35.8210 H   0  0  0  0  0  0
   53.1686   96.5396   36.1051 H   0  0  0  0  0  0
   53.2453   98.8434   35.1479 H   0  0  0  0  0  0
   53.3548  101.4798   29.4974 H   0  0  0  0  0  0
   51.9381   98.2053   29.7875 H   0  0  0  0  0  0
   50.8406   97.0355   27.9399 H   0  0  0  0  0  0
   49.4898   99.4053   23.9070 H   0  0  0  0  0  0
   50.4284  101.5026   24.8136 H   0  0  0  0  0  0
   51.8732  101.9035   27.6041 H   0  0  0  0  0  0
  1  2  1  0  0  0
  1 31  1  0  0  0
  1 32  1  0  0  0
  1 33  1  0  0  0
  2  3  2  0  0  0
  2  8  1  0  0  0
  3  4  1  0  0  0
  3 19  1  0  0  0
  4  5  1  0  0  0
  4  9  1  0  0  0
  4 34  1  0  0  0
  5  6  1  0  0  0
  5 35  1  0  0  0
  5 36  1  0  0  0
  6  7  2  0  0  0
  6  8  1  0  0  0
  8 37  1  0  0  0
  9 10  2  0  0  0
  9 18  1  0  0  0
 10 11  1  0  0  0
 10 38  1  0  0  0
 11 12  2  0  0  0
 11 39  1  0  0  0
 12 13  1  0  0  0
 12 17  1  0  0  0
 13 14  2  0  0  0
 13 40  1  0  0  0
 14 15  1  0  0  0
 14 41  1  0  0  0
 15 16  2  0  0  0
 15 42  1  0  0  0
 16 17  1  0  0  0
 16 43  1  0  0  0
 17 18  2  0  0  0
 18 44  1  0  0  0
 19 20  2  0  0  0
 19 21  1  0  0  0
 21 45  1  0  0  0
 21 22  1  0  0  0
 22 23  1  0  0  0
 22 30  2  0  0  0
 23 24  2  0  0  0
 23 46  1  0  0  0
 24 25  1  0  0  0
 24 47  1  0  0  0
 25 26  2  0  0  0
 25 29  1  0  0  0
 26 27  1  0  0  0
 27 48  1  0  0  0
 27 28  1  0  0  0
 28 29  2  0  0  0
 28 49  1  0  0  0
 29 30  1  0  0  0
 30 50  1  0  0  0
M  END
> <s_m_entry_id>
28222

> <s_m_entry_name>
dock_pv.383

> <s_m_Source_Path>
/home/csk/Desktop/cluster/DUD-E-result/rock1

> <s_m_Source_File>
dock_pv.maegz

> <i_m_Source_File_Index>
383

> <chembl_id>
CHEMBL441702

> <chembl_pref_name>
GSK-270822A

> <i_lp_mmshare_version>
53161

> <r_lp_tautomer_probability>
0.019607843137214

> <s_lp_Force_Field>
OPLS_2005

> <r_lp_Energy>
50.495265

> <b_lp_Chiralities_Consistent>
1

> <s_lp_Variant>
CHEMBL3231_lig49-3

> <s_i_glide_gridfile>
glide-grid_2etr

> <i_i_glide_lignum>
69

> <i_i_glide_rotatable_bonds>
4

> <r_i_docking_score>
-7.58634755741418

> <r_i_glide_ligand_efficiency>
-0.252878251913806

> <r_i_glide_ligand_efficiency_sa>
-0.785751523504534

> <r_i_glide_ligand_efficiency_ln>
-1.72370082492168

> <r_i_glide_gscore>
-7.58634755741418

> <r_i_glide_lipo>
-2.3466985070623

> <r_i_glide_hbond>
-0.587540600096408

> <r_i_glide_metal>
0

> <r_i_glide_rewards>
-1.87340974735615

> <r_i_glide_evdw>
-47.6477966308594

> <r_i_glide_ecoul>
-5.77729415893555

> <r_i_glide_erotb>
0.497942822757065

> <r_i_glide_esite>
-0.0276575702730792

> <r_i_glide_emodel>
-74.1424910680072

> <r_i_glide_energy>
-53.4250907897949

> <r_i_glide_einternal>
7.50204133987427

> <i_i_glide_confnum>
2

> <i_i_glide_posenum>
121

> <r_i_glide_eff_state_penalty>
0

> <s_user_duplicate_titles>
CHEMBL3231_lig49,365461

> <i_f3d_flags>
0

> <s_m_subgroup_title>
dock_pv

> <s_m_subgroupid>
dock_pv

> <b_m_subgroup_collapsed>
1

$$$$
CHEMBL3231_lig843
                    3D
 Schrodinger Suite 2021-1.
 42 44  0  0  1  0            999 V2000
   54.9990  103.9013   33.2126 C   0  0  0  0  0  0
   54.0926  102.6725   33.3960 C   0  0  1  0  0  0
   53.4890  102.2613   32.1297 N   0  0  0  0  0  0
   52.4276  102.7976   31.5075 C   0  0  0  0  0  0
   51.8688  103.8396   31.8573 O   0  0  0  0  0  0
   51.9324  102.0010   30.3278 C   0  0  0  0  0  0
   51.3850  102.6444   29.2206 C   0  0  0  0  0  0
   50.9383  101.9029   28.1321 C   0  0  0  0  0  0
   51.0159  100.4997   28.1036 C   0  0  0  0  0  0
   50.5283   99.8449   26.8309 C   0  0  0  0  0  0
   50.5420   98.4976   26.4054 C   0  0  0  0  0  0
   50.0427   98.3030   25.2110 N   0  0  0  0  0  0
   49.6703   99.5135   24.8105 N   0  0  0  0  0  0
   49.9398  100.4768   25.7349 C   0  0  0  0  0  0
   51.5383   99.8381   29.2422 C   0  0  0  0  0  0
   51.9905  100.6015   30.3276 C   0  0  0  0  0  0
   51.6433   98.3117   29.3563 C   0  0  0  0  0  0
   52.2613   97.9050   30.4671 F   0  0  0  0  0  0
   50.4526   97.7157   29.3138 F   0  0  0  0  0  0
   54.8432  101.5254   34.0888 C   0  0  0  0  0  0
   55.2439  100.3696   33.3938 C   0  0  0  0  0  0
   55.9478   99.3565   34.0424 C   0  0  0  0  0  0
   56.2444   99.4715   35.3986 C   0  0  0  0  0  0
   55.8357  100.6013   36.1054 C   0  0  0  0  0  0
   55.1410  101.6218   35.4562 C   0  0  0  0  0  0
   54.7582  102.7096   36.1647 F   0  0  0  0  0  0
   55.4173  104.2426   34.1596 H   0  0  0  0  0  0
   55.8302  103.6782   32.5417 H   0  0  0  0  0  0
   54.4492  104.7418   32.7854 H   0  0  0  0  0  0
   53.2746  102.9469   34.0683 H   0  0  0  0  0  0
   53.9966  101.5524   31.6245 H   0  0  0  0  0  0
   51.3227  103.7235   29.1859 H   0  0  0  0  0  0
   50.5424  102.4578   27.2970 H   0  0  0  0  0  0
   50.9085   97.6375   26.9369 H   0  0  0  0  0  0
   49.2446   99.6794   23.9026 H   0  0  0  0  0  0
   49.6872  101.5057   25.5277 H   0  0  0  0  0  0
   52.3862  100.0950   31.1975 H   0  0  0  0  0  0
   52.2352   97.9085   28.5384 H   0  0  0  0  0  0
   55.0563  100.2512   32.3374 H   0  0  0  0  0  0
   56.2781   98.4897   33.4869 H   0  0  0  0  0  0
   56.8020   98.6917   35.8970 H   0  0  0  0  0  0
   56.0697  100.6932   37.1557 H   0  0  0  0  0  0
  1  2  1  0  0  0
  1 27  1  0  0  0
  1 28  1  0  0  0
  1 29  1  0  0  0
  2  3  1  0  0  0
  2 20  1  0  0  0
  2 30  1  0  0  0
  3  4  1  0  0  0
  3 31  1  0  0  0
  4  5  2  0  0  0
  4  6  1  0  0  0
  6  7  2  0  0  0
  6 16  1  0  0  0
  7  8  1  0  0  0
  7 32  1  0  0  0
  8  9  2  0  0  0
  8 33  1  0  0  0
  9 10  1  0  0  0
  9 15  1  0  0  0
 10 11  1  0  0  0
 10 14  2  0  0  0
 11 12  2  0  0  0
 11 34  1  0  0  0
 12 13  1  0  0  0
 13 14  1  0  0  0
 13 35  1  0  0  0
 14 36  1  0  0  0
 15 16  2  0  0  0
 15 17  1  0  0  0
 16 37  1  0  0  0
 17 18  1  0  0  0
 17 19  1  0  0  0
 17 38  1  0  0  0
 20 21  2  0  0  0
 20 25  1  0  0  0
 21 22  1  0  0  0
 21 39  1  0  0  0
 22 23  2  0  0  0
 22 40  1  0  0  0
 23 24  1  0  0  0
 23 41  1  0  0  0
 24 25  2  0  0  0
 24 42  1  0  0  0
 25 26  1  0  0  0
M  END
> <s_m_entry_id>
28223

> <s_m_entry_name>
dock_pv.384

> <s_m_Source_Path>
/home/csk/Desktop/cluster/DUD-E-result/rock1

> <s_m_Source_File>
dock_pv.maegz

> <i_m_Source_File_Index>
384

> <chembl_id>
CHEMBL3899293

> <chembl_pref_name>
None

> <i_lp_mmshare_version>
53161

> <r_lp_tautomer_probability>
0.5

> <s_lp_Force_Field>
OPLS_2005

> <r_lp_Energy>
20.719576

> <b_lp_Chiralities_Consistent>
1

> <s_lp_Variant>
CHEMBL3231_lig843-2

> <s_i_glide_gridfile>
glide-grid_2etr

> <i_i_glide_lignum>
1189

> <i_i_glide_rotatable_bonds>
6

> <r_i_docking_score>
-7.58621577749106

> <r_i_glide_ligand_efficiency>
-0.291777529903502

> <r_i_glide_ligand_efficiency_sa>
-0.864389784249985

> <r_i_glide_ligand_efficiency_ln>
-1.78159788293949

> <r_i_glide_gscore>
-7.58621577749106

> <r_i_glide_lipo>
-2.04584560273478

> <r_i_glide_hbond>
-0.631569990859205

> <r_i_glide_metal>
0

> <r_i_glide_rewards>
-2.41334165763275

> <r_i_glide_evdw>
-36.5554275512695

> <r_i_glide_ecoul>
-6.80098581314087

> <r_i_glide_erotb>
0.415597963116084

> <r_i_glide_esite>
-0.0631372398458068

> <r_i_glide_emodel>
-62.3133734981117

> <r_i_glide_energy>
-43.3564133644104

> <r_i_glide_einternal>
4.1166353225708

> <i_i_glide_confnum>
11

> <i_i_glide_posenum>
123

> <r_i_glide_eff_state_penalty>
0

> <s_user_duplicate_titles>
CHEMBL3231_lig843,CHEMBL3231_lig844

> <i_f3d_flags>
0

> <s_m_subgroup_title>
dock_pv

> <s_m_subgroupid>
dock_pv

> <b_m_subgroup_collapsed>
1

$$$$
CHEMBL3231_lig215
                    3D
 Schrodinger Suite 2021-1.
 44 47  0  0  1  0            999 V2000
   52.8182  102.9417   31.4044 C   0  0  0  0  0  0
   52.9287  102.7566   32.7781 C   0  0  0  0  0  0
   52.6309  101.5310   33.3775 C   0  0  0  0  0  0
   52.2541  100.4410   32.5884 C   0  0  0  0  0  0
   52.3674  101.8640   30.6297 C   0  0  0  0  0  0
   52.0938  100.5877   31.1975 C   0  0  0  0  0  0
   51.6421   99.6306   30.2283 C   0  0  0  0  0  0
   51.5384  100.1920   28.9524 C   0  0  0  0  0  0
   52.0431  101.8783   28.9165 S   0  0  0  0  0  0
   51.2758   98.2113   30.6413 C   0  0  0  0  0  0
   51.0375   99.5733   27.6760 C   0  0  0  0  0  0
   50.4020  100.4078   26.8059 N   0  0  0  0  0  0
   49.9316   99.8602   25.6614 C   0  0  0  0  0  0
   50.0432   98.5634   25.2884 N   0  0  0  0  0  0
   50.6855   97.7524   26.1648 C   0  0  0  0  0  0
   51.2026   98.2159   27.3763 C   0  0  0  0  0  0
   49.2429  100.7030   24.8110 N   0  0  0  0  0  0
   52.6684  101.3718   34.8999 C   0  0  2  0  0  0
   51.4529  102.0450   35.5542 C   0  0  0  0  0  0
   50.2048  101.4146   35.4644 C   0  0  0  0  0  0
   49.0665  102.0089   36.0085 C   0  0  0  0  0  0
   49.1632  103.2375   36.6599 C   0  0  0  0  0  0
   50.4014  103.8681   36.7706 C   0  0  0  0  0  0
   51.5397  103.2756   36.2241 C   0  0  0  0  0  0
   50.4994  105.0740   37.4080 O   0  0  0  0  0  0
   53.9459  101.8151   35.4461 N   0  0  0  0  0  0
   53.0523  103.8991   30.9583 H   0  0  0  0  0  0
   53.2407  103.5873   33.3960 H   0  0  0  0  0  0
   52.0441   99.4920   33.0556 H   0  0  0  0  0  0
   52.1571   97.5734   30.7195 H   0  0  0  0  0  0
   50.7790   98.1802   31.6105 H   0  0  0  0  0  0
   50.5830   97.7271   29.9550 H   0  0  0  0  0  0
   50.7881   96.7143   25.8817 H   0  0  0  0  0  0
   51.7113   97.5408   28.0433 H   0  0  0  0  0  0
   49.1885  101.6830   25.0434 H   0  0  0  0  0  0
   48.9593  100.3581   23.8952 H   0  0  0  0  0  0
   52.6078  100.3078   35.1362 H   0  0  0  0  0  0
   50.1131  100.4648   34.9573 H   0  0  0  0  0  0
   48.1081  101.5161   35.9302 H   0  0  0  0  0  0
   48.2753  103.6854   37.0812 H   0  0  0  0  0  0
   52.4867  103.7887   36.3038 H   0  0  0  0  0  0
   49.6431  105.4513   37.6097 H   0  0  0  0  0  0
   54.0123  101.5459   36.4173 H   0  0  0  0  0  0
   54.6988  101.3387   34.9667 H   0  0  0  0  0  0
  1  5  2  0  0  0
  1  2  1  0  0  0
  1 27  1  0  0  0
  2  3  2  0  0  0
  2 28  1  0  0  0
  3 18  1  0  0  0
  3  4  1  0  0  0
  4  6  2  0  0  0
  4 29  1  0  0  0
  5  9  1  0  0  0
  5  6  1  0  0  0
  6  7  1  0  0  0
  7  8  2  0  0  0
  7 10  1  0  0  0
  8 11  1  0  0  0
  8  9  1  0  0  0
 10 30  1  0  0  0
 10 31  1  0  0  0
 10 32  1  0  0  0
 11 16  1  0  0  0
 11 12  2  0  0  0
 12 13  1  0  0  0
 13 14  2  0  0  0
 13 17  1  0  0  0
 14 15  1  0  0  0
 15 16  2  0  0  0
 15 33  1  0  0  0
 16 34  1  0  0  0
 17 35  1  0  0  0
 17 36  1  0  0  0
 18 19  1  0  0  0
 18 26  1  0  0  0
 18 37  1  0  0  0
 19 20  2  0  0  0
 19 24  1  0  0  0
 20 21  1  0  0  0
 20 38  1  0  0  0
 21 22  2  0  0  0
 21 39  1  0  0  0
 22 23  1  0  0  0
 22 40  1  0  0  0
 23 24  2  0  0  0
 23 25  1  0  0  0
 24 41  1  0  0  0
 25 42  1  0  0  0
 26 43  1  0  0  0
 26 44  1  0  0  0
M  END
> <s_m_entry_id>
28225

> <s_m_entry_name>
dock_pv.386

> <s_m_Source_Path>
/home/csk/Desktop/cluster/DUD-E-result/rock1

> <s_m_Source_File>
dock_pv.maegz

> <i_m_Source_File_Index>
386

> <chembl_id>
CHEMBL1083074

> <chembl_pref_name>
None

> <i_lp_mmshare_version>
53161

> <r_lp_tautomer_probability>
0.999999987633365

> <s_lp_Force_Field>
OPLS_2005

> <r_lp_Energy>
-0.021115

> <b_lp_Chiralities_Consistent>
1

> <s_lp_Variant>
CHEMBL3231_lig215-1

> <s_i_glide_gridfile>
glide-grid_2etr

> <i_i_glide_lignum>
348

> <i_i_glide_rotatable_bonds>
4

> <r_i_docking_score>
-7.58449631071818

> <r_i_glide_ligand_efficiency>
-0.291711396566084

> <r_i_glide_ligand_efficiency_sa>
-0.864193864498105

> <r_i_glide_ligand_efficiency_ln>
-1.78119407180991

> <r_i_glide_gscore>
-7.58449631071818

> <r_i_glide_lipo>
-2.82869961599934

> <r_i_glide_hbond>
-0.382063207662727

> <r_i_glide_metal>
0

> <r_i_glide_rewards>
-1.85448107392965

> <r_i_glide_evdw>
-45.2696380615234

> <r_i_glide_ecoul>
-3.75150179862976

> <r_i_glide_erotb>
0.306954759744169

> <r_i_glide_esite>
0

> <r_i_glide_emodel>
-72.8395048088679

> <r_i_glide_energy>
-49.0211398601532

> <r_i_glide_einternal>
0.792218685150146

> <i_i_glide_confnum>
14

> <i_i_glide_posenum>
125

> <r_i_glide_eff_state_penalty>
0

> <s_user_duplicate_titles>
CHEMBL3231_lig215

> <i_f3d_flags>
0

> <s_m_subgroup_title>
dock_pv

> <s_m_subgroupid>
dock_pv

> <b_m_subgroup_collapsed>
1

$$$$
CHEMBL3231_lig728
                    3D
 Schrodinger Suite 2021-1.
 43 45  0  0  1  0            999 V2000
   50.8892   97.4557   29.8171 C   0  0  0  0  0  0
   51.7442   98.3033   29.0536 O   0  0  0  0  0  0
   51.6796   99.6417   29.3467 C   0  0  0  0  0  0
   52.0829  100.0655   30.6154 C   0  0  0  0  0  0
   52.0427  101.4127   30.9904 C   0  0  0  0  0  0
   51.6410  102.3491   30.0245 C   0  0  0  0  0  0
   51.2523  101.9347   28.7483 C   0  0  0  0  0  0
   51.2502  100.5785   28.3886 C   0  0  0  0  0  0
   50.7604  100.1864   27.0156 C   0  0  0  0  0  0
   50.2750  101.0144   26.0082 C   0  0  0  0  0  0
   49.9193  100.2035   24.9636 N   0  0  0  0  0  0
   50.1409   98.9154   25.2114 N   0  0  0  0  0  0
   50.6529   98.9090   26.4209 C   0  0  0  0  0  0
   52.3635  101.7916   32.4239 C   0  0  0  0  0  0
   52.5310  100.9162   33.2753 O   0  0  0  0  0  0
   52.4137  103.1042   32.7251 N   0  0  0  0  0  0
   52.5751  103.6640   34.0738 C   0  0  1  0  0  0
   53.7665  104.6442   34.0908 C   0  0  0  0  0  0
   51.2510  104.2160   34.6389 C   0  0  0  0  0  0
   51.0382  105.5937   34.8111 C   0  0  0  0  0  0
   49.8469  106.0706   35.3604 C   0  0  0  0  0  0
   48.8540  105.1782   35.7602 C   0  0  0  0  0  0
   49.0550  103.8078   35.6114 C   0  0  0  0  0  0
   50.2430  103.3288   35.0575 C   0  0  0  0  0  0
   50.4072  101.9919   34.9426 F   0  0  0  0  0  0
   51.2305   96.4221   29.7372 H   0  0  0  0  0  0
   50.8507   97.6965   30.8811 H   0  0  0  0  0  0
   49.8782   97.5028   29.4157 H   0  0  0  0  0  0
   52.4162   99.3187   31.3230 H   0  0  0  0  0  0
   51.6049  103.4037   30.2497 H   0  0  0  0  0  0
   50.9348  102.6863   28.0417 H   0  0  0  0  0  0
   50.1362  102.0838   25.9473 H   0  0  0  0  0  0
   49.5152  100.5155   24.0888 H   0  0  0  0  0  0
   50.9368   97.9699   26.8704 H   0  0  0  0  0  0
   52.4405  103.7665   31.9670 H   0  0  0  0  0  0
   52.8705  102.8726   34.7693 H   0  0  0  0  0  0
   53.9275  105.0593   35.0861 H   0  0  0  0  0  0
   54.6881  104.1378   33.7996 H   0  0  0  0  0  0
   53.6343  105.4739   33.3972 H   0  0  0  0  0  0
   51.7876  106.3132   34.5123 H   0  0  0  0  0  0
   49.6999  107.1344   35.4818 H   0  0  0  0  0  0
   47.9324  105.5446   36.1881 H   0  0  0  0  0  0
   48.2923  103.1108   35.9285 H   0  0  0  0  0  0
  1  2  1  0  0  0
  1 26  1  0  0  0
  1 27  1  0  0  0
  1 28  1  0  0  0
  2  3  1  0  0  0
  3  4  2  0  0  0
  3  8  1  0  0  0
  4  5  1  0  0  0
  4 29  1  0  0  0
  5  6  2  0  0  0
  5 14  1  0  0  0
  6  7  1  0  0  0
  6 30  1  0  0  0
  7  8  2  0  0  0
  7 31  1  0  0  0
  8  9  1  0  0  0
  9 10  2  0  0  0
  9 13  1  0  0  0
 10 11  1  0  0  0
 10 32  1  0  0  0
 11 12  1  0  0  0
 11 33  1  0  0  0
 12 13  2  0  0  0
 13 34  1  0  0  0
 14 15  2  0  0  0
 14 16  1  0  0  0
 16 17  1  0  0  0
 16 35  1  0  0  0
 17 18  1  0  0  0
 17 19  1  0  0  0
 17 36  1  0  0  0
 18 37  1  0  0  0
 18 38  1  0  0  0
 18 39  1  0  0  0
 19 20  2  0  0  0
 19 24  1  0  0  0
 20 21  1  0  0  0
 20 40  1  0  0  0
 21 22  2  0  0  0
 21 41  1  0  0  0
 22 23  1  0  0  0
 22 42  1  0  0  0
 23 24  2  0  0  0
 23 43  1  0  0  0
 24 25  1  0  0  0
M  END
> <s_m_entry_id>
28226

> <s_m_entry_name>
dock_pv.387

> <s_m_Source_Path>
/home/csk/Desktop/cluster/DUD-E-result/rock1

> <s_m_Source_File>
dock_pv.maegz

> <i_m_Source_File_Index>
387

> <chembl_id>
CHEMBL3965274

> <chembl_pref_name>
None

> <i_lp_mmshare_version>
53161

> <r_lp_tautomer_probability>
0.5

> <s_lp_Force_Field>
OPLS_2005

> <r_lp_Energy>
21.56522

> <b_lp_Chiralities_Consistent>
1

> <s_lp_Variant>
CHEMBL3231_lig728-2

> <s_i_glide_gridfile>
glide-grid_2etr

> <i_i_glide_lignum>
1035

> <i_i_glide_rotatable_bonds>
6

> <r_i_docking_score>
-7.58389561596396

> <r_i_glide_ligand_efficiency>
-0.303355824638558

> <r_i_glide_ligand_efficiency_sa>
-0.887017811281603

> <r_i_glide_ligand_efficiency_ln>
-1.79761053199542

> <r_i_glide_gscore>
-7.58389561596396

> <r_i_glide_lipo>
-2.37838439286828

> <r_i_glide_hbond>
-0.150135602855172

> <r_i_glide_metal>
0

> <r_i_glide_rewards>
-3.13903255513233

> <r_i_glide_evdw>
-40.5066795349121

> <r_i_glide_ecoul>
-3.34830403327942

> <r_i_glide_erotb>
0.657259569582011

> <r_i_glide_esite>
-0.0460230529526682

> <r_i_glide_emodel>
-57.9305877727019

> <r_i_glide_energy>
-43.8549835681915

> <r_i_glide_einternal>
9.12669658660889

> <i_i_glide_confnum>
5

> <i_i_glide_posenum>
275

> <r_i_glide_eff_state_penalty>
0

> <s_user_duplicate_titles>
CHEMBL3231_lig728

> <i_f3d_flags>
0

> <s_m_subgroup_title>
dock_pv

> <s_m_subgroupid>
dock_pv

> <b_m_subgroup_collapsed>
1

$$$$
CHEMBL3231_lig556
                    3D
 Schrodinger Suite 2021-1.
 40 42  0  0  1  0            999 V2000
   56.8890   93.1023   31.6111 F   0  0  0  0  0  0
   56.3855   94.3307   31.6528 C   0  0  0  0  0  0
   56.0437   94.7115   30.4218 F   0  0  0  0  0  0
   55.2358   94.3027   32.4910 O   0  0  0  0  0  0
   54.9019   95.4301   33.2125 C   0  0  0  0  0  0
   54.0312   95.2477   34.2874 C   0  0  0  0  0  0
   53.6446   96.3252   35.0826 C   0  0  0  0  0  0
   54.1355   97.6020   34.8116 C   0  0  0  0  0  0
   55.0071   97.8085   33.7382 C   0  0  0  0  0  0
   55.6115   99.1898   33.4935 C   0  0  0  0  0  0
   55.2431   99.8391   32.2341 N   0  0  0  0  0  0
   54.0060  100.1988   31.8597 C   0  0  0  0  0  0
   52.9713   99.7697   32.3747 O   0  0  0  0  0  0
   54.0429  101.0928   30.8565 N   0  0  0  0  0  0
   52.9666  101.3199   30.0223 C   0  0  0  0  0  0
   52.4538  100.4224   29.2171 N   0  0  0  0  0  0
   51.5327  100.9246   28.4110 C   0  0  0  0  0  0
   51.2390  102.2729   28.6558 C   0  0  0  0  0  0
   52.2749  102.9000   29.9081 S   0  0  0  0  0  0
   50.9617  100.0633   27.3292 C   0  0  0  0  0  0
   50.4846  100.6422   26.1450 C   0  0  0  0  0  0
   50.0425   99.8101   25.1156 C   0  0  0  0  0  0
   50.0430   98.4567   25.2111 N   0  0  0  0  0  0
   50.4779   97.9029   26.3684 C   0  0  0  0  0  0
   50.9456   98.6636   27.4397 C   0  0  0  0  0  0
   55.3761   96.7234   32.9352 C   0  0  0  0  0  0
   57.1963   94.9640   32.0178 H   0  0  0  0  0  0
   53.6570   94.2582   34.5070 H   0  0  0  0  0  0
   52.9767   96.1656   35.9154 H   0  0  0  0  0  0
   53.8456   98.4290   35.4429 H   0  0  0  0  0  0
   55.4071   99.8622   34.3280 H   0  0  0  0  0  0
   56.6967   99.0722   33.4764 H   0  0  0  0  0  0
   56.0083  100.0130   31.5961 H   0  0  0  0  0  0
   54.9445  101.4380   30.5499 H   0  0  0  0  0  0
   50.5329  102.9119   28.1458 H   0  0  0  0  0  0
   50.4846  101.7133   26.0090 H   0  0  0  0  0  0
   49.6831  100.2266   24.1846 H   0  0  0  0  0  0
   50.4623   96.8238   26.4217 H   0  0  0  0  0  0
   51.3025   98.1698   28.3323 H   0  0  0  0  0  0
   56.0434   96.9013   32.1048 H   0  0  0  0  0  0
  1  2  1  0  0  0
  2  3  1  0  0  0
  2  4  1  0  0  0
  2 27  1  0  0  0
  4  5  1  0  0  0
  5  6  2  0  0  0
  5 26  1  0  0  0
  6  7  1  0  0  0
  6 28  1  0  0  0
  7  8  2  0  0  0
  7 29  1  0  0  0
  8  9  1  0  0  0
  8 30  1  0  0  0
  9 10  1  0  0  0
  9 26  2  0  0  0
 10 11  1  0  0  0
 10 31  1  0  0  0
 10 32  1  0  0  0
 11 12  1  0  0  0
 11 33  1  0  0  0
 12 13  2  0  0  0
 12 14  1  0  0  0
 14 15  1  0  0  0
 14 34  1  0  0  0
 15 16  2  0  0  0
 15 19  1  0  0  0
 16 17  1  0  0  0
 17 18  2  0  0  0
 17 20  1  0  0  0
 18 19  1  0  0  0
 18 35  1  0  0  0
 20 21  2  0  0  0
 20 25  1  0  0  0
 21 22  1  0  0  0
 21 36  1  0  0  0
 22 23  2  0  0  0
 22 37  1  0  0  0
 23 24  1  0  0  0
 24 25  2  0  0  0
 24 38  1  0  0  0
 25 39  1  0  0  0
 26 40  1  0  0  0
M  END
> <s_m_entry_id>
28227

> <s_m_entry_name>
dock_pv.388

> <s_m_Source_Path>
/home/csk/Desktop/cluster/DUD-E-result/rock1

> <s_m_Source_File>
dock_pv.maegz

> <i_m_Source_File_Index>
388

> <chembl_id>
CHEMBL3932202

> <chembl_pref_name>
None

> <i_lp_mmshare_version>
53161

> <r_lp_tautomer_probability>
0.999000488399163

> <s_lp_Force_Field>
OPLS_2005

> <r_lp_Energy>
5.590518

> <b_lp_Chiralities_Consistent>
1

> <s_lp_Variant>
CHEMBL3231_lig556-1

> <s_i_glide_gridfile>
glide-grid_2etr

> <i_i_glide_lignum>
834

> <i_i_glide_rotatable_bonds>
8

> <r_i_docking_score>
-7.57627114074484

> <r_i_glide_ligand_efficiency>
-0.291395043874802

> <r_i_glide_ligand_efficiency_sa>
-0.863256670894968

> <r_i_glide_ligand_efficiency_ln>
-1.77926241763066

> <r_i_glide_gscore>
-7.57627114074484

> <r_i_glide_lipo>
-2.38886243632034

> <r_i_glide_hbond>
-0.496193110114972

> <r_i_glide_metal>
0

> <r_i_glide_rewards>
-1.9335074498472

> <r_i_glide_evdw>
-46.2541313171387

> <r_i_glide_ecoul>
-8.33152866363525

> <r_i_glide_erotb>
0.95649133120218

> <r_i_glide_esite>
-0.151763610262278

> <r_i_glide_emodel>
-75.3257498402901

> <r_i_glide_energy>
-54.5856599807739

> <r_i_glide_einternal>
8.20254611968994

> <i_i_glide_confnum>
146

> <i_i_glide_posenum>
14

> <r_i_glide_eff_state_penalty>
0

> <s_user_duplicate_titles>
CHEMBL3231_lig556

> <i_f3d_flags>
0

> <s_m_subgroup_title>
dock_pv

> <s_m_subgroupid>
dock_pv

> <b_m_subgroup_collapsed>
1

$$$$
CHEMBL3231_lig648
                    3D
 Schrodinger Suite 2021-1.
 43 45  0  0  1  0            999 V2000
   50.3740  104.2789   27.9315 C   0  0  0  0  0  0
   50.4431  102.8887   27.6177 O   0  0  0  0  0  0
   51.0092  101.9964   28.5132 C   0  0  0  0  0  0
   51.4717  102.4033   29.7786 C   0  0  0  0  0  0
   52.0312  101.4962   30.6897 C   0  0  0  0  0  0
   52.1524  100.1596   30.2927 C   0  0  0  0  0  0
   51.7030   99.7390   29.0441 C   0  0  0  0  0  0
   51.1123  100.6359   28.1444 C   0  0  0  0  0  0
   50.6039  100.0796   26.8346 C   0  0  0  0  0  0
   50.5611   98.7352   26.4052 C   0  0  0  0  0  0
   50.0430   98.5642   25.2109 N   0  0  0  0  0  0
   49.7341   99.7960   24.8110 N   0  0  0  0  0  0
   50.0431  100.7437   25.7484 C   0  0  0  0  0  0
   52.4274  101.9125   32.0931 C   0  0  0  0  0  0
   52.5525  101.0646   32.9777 O   0  0  0  0  0  0
   52.5995  103.2342   32.3099 N   0  0  0  0  0  0
   52.8219  103.9372   33.5860 C   0  0  2  0  0  0
   53.9840  103.3645   34.4228 C   0  0  0  0  0  0
   51.5546  104.1570   34.4330 C   0  0  0  0  0  0
   50.7749  103.0783   34.8751 C   0  0  0  0  0  0
   49.6521  103.2977   35.6688 C   0  0  0  0  0  0
   49.3028  104.5962   36.0312 C   0  0  0  0  0  0
   48.2181  104.8064   36.8102 F   0  0  0  0  0  0
   50.0687  105.6784   35.6023 C   0  0  0  0  0  0
   51.1943  105.4591   34.8100 C   0  0  0  0  0  0
   50.0430  104.8283   27.0520 H   0  0  0  0  0  0
   49.6575  104.4643   28.7318 H   0  0  0  0  0  0
   51.3441  104.6934   28.2097 H   0  0  0  0  0  0
   51.3699  103.4349   30.0723 H   0  0  0  0  0  0
   52.5827   99.4272   30.9613 H   0  0  0  0  0  0
   51.8140   98.6937   28.8005 H   0  0  0  0  0  0
   50.9008   97.8803   26.9700 H   0  0  0  0  0  0
   49.3053   99.9781   23.9074 H   0  0  0  0  0  0
   49.8340  101.7873   25.5704 H   0  0  0  0  0  0
   52.5963  103.8273   31.4952 H   0  0  0  0  0  0
   53.1633  104.9236   33.2599 H   0  0  0  0  0  0
   54.2497  104.0411   35.2349 H   0  0  0  0  0  0
   53.7305  102.4032   34.8687 H   0  0  0  0  0  0
   54.8772  103.2205   33.8135 H   0  0  0  0  0  0
   51.0385  102.0614   34.6265 H   0  0  0  0  0  0
   49.0593  102.4619   36.0117 H   0  0  0  0  0  0
   49.7952  106.6838   35.8923 H   0  0  0  0  0  0
   51.7865  106.3066   34.4898 H   0  0  0  0  0  0
  1  2  1  0  0  0
  1 26  1  0  0  0
  1 27  1  0  0  0
  1 28  1  0  0  0
  2  3  1  0  0  0
  3  4  2  0  0  0
  3  8  1  0  0  0
  4  5  1  0  0  0
  4 29  1  0  0  0
  5  6  2  0  0  0
  5 14  1  0  0  0
  6  7  1  0  0  0
  6 30  1  0  0  0
  7  8  2  0  0  0
  7 31  1  0  0  0
  8  9  1  0  0  0
  9 10  1  0  0  0
  9 13  2  0  0  0
 10 11  2  0  0  0
 10 32  1  0  0  0
 11 12  1  0  0  0
 12 13  1  0  0  0
 12 33  1  0  0  0
 13 34  1  0  0  0
 14 15  2  0  0  0
 14 16  1  0  0  0
 16 17  1  0  0  0
 16 35  1  0  0  0
 17 18  1  0  0  0
 17 19  1  0  0  0
 17 36  1  0  0  0
 18 37  1  0  0  0
 18 38  1  0  0  0
 18 39  1  0  0  0
 19 20  2  0  0  0
 19 25  1  0  0  0
 20 21  1  0  0  0
 20 40  1  0  0  0
 21 22  2  0  0  0
 21 41  1  0  0  0
 22 23  1  0  0  0
 22 24  1  0  0  0
 24 25  2  0  0  0
 24 42  1  0  0  0
 25 43  1  0  0  0
M  END
> <s_m_entry_id>
28228

> <s_m_entry_name>
dock_pv.389

> <s_m_Source_Path>
/home/csk/Desktop/cluster/DUD-E-result/rock1

> <s_m_Source_File>
dock_pv.maegz

> <i_m_Source_File_Index>
389

> <chembl_id>
CHEMBL3901566

> <chembl_pref_name>
None

> <i_lp_mmshare_version>
53161

> <r_lp_tautomer_probability>
0.5

> <s_lp_Force_Field>
OPLS_2005

> <r_lp_Energy>
20.969331

> <b_lp_Chiralities_Consistent>
1

> <s_lp_Variant>
CHEMBL3231_lig648-1

> <s_i_glide_gridfile>
glide-grid_2etr

> <i_i_glide_lignum>
937

> <i_i_glide_rotatable_bonds>
6

> <r_i_docking_score>
-7.57255205298238

> <r_i_glide_ligand_efficiency>
-0.302902082119295

> <r_i_glide_ligand_efficiency_sa>
-0.885691060108119

> <r_i_glide_ligand_efficiency_ln>
-1.79492176762964

> <r_i_glide_gscore>
-7.57255205298238

> <r_i_glide_lipo>
-2.32973832643472

> <r_i_glide_hbond>
-0.425216906861159

> <r_i_glide_metal>
0

> <r_i_glide_rewards>
-2.38130947132884

> <r_i_glide_evdw>
-41.3090324401855

> <r_i_glide_ecoul>
-5.16435241699219

> <r_i_glide_erotb>
0.460081698707408

> <r_i_glide_esite>
-0.0562645625069591

> <r_i_glide_emodel>
-66.9427206089421

> <r_i_glide_energy>
-46.4733848571777

> <r_i_glide_einternal>
1.63024616241455

> <i_i_glide_confnum>
12

> <i_i_glide_posenum>
198

> <r_i_glide_eff_state_penalty>
0

> <s_user_duplicate_titles>
CHEMBL3231_lig648

> <i_f3d_flags>
0

> <s_m_subgroup_title>
dock_pv

> <s_m_subgroupid>
dock_pv

> <b_m_subgroup_collapsed>
1

$$$$
CHEMBL3231_lig915
                    3D
 Schrodinger Suite 2021-1.
 31 33  0  0  1  0            999 V2000
   52.4890  100.1466   33.6447 C   0  0  0  0  0  0
   53.4984  101.0585   32.9116 C   0  0  0  0  0  0
   54.8427  101.1825   33.6463 C   0  0  0  0  0  0
   53.8218  100.4085   31.6266 N   0  0  0  0  0  0
   52.9280  102.4113   32.6751 N   0  0  0  0  0  0
   52.1819  102.8001   31.6120 C   0  0  0  0  0  0
   52.8882  100.5900   30.6325 C   0  0  0  0  0  0
   52.1251  101.7539   30.6260 C   0  0  0  0  0  0
   51.1264  101.8282   29.2060 S   0  0  0  0  0  0
   51.6474  100.2425   28.6967 C   0  0  0  0  0  0
   52.6034   99.7313   29.5737 C   0  0  0  0  0  0
   51.0700   99.6065   27.4787 C   0  0  0  0  0  0
   50.6403  100.3469   26.3669 C   0  0  0  0  0  0
   50.1354   99.6654   25.2586 C   0  0  0  0  0  0
   50.0426   98.3129   25.2108 N   0  0  0  0  0  0
   50.4433   97.6067   26.2936 C   0  0  0  0  0  0
   50.9612   98.2113   27.4366 C   0  0  0  0  0  0
   51.6443  103.9028   31.5889 O   0  0  0  0  0  0
   51.5530  100.0424   33.0934 H   0  0  0  0  0  0
   52.2413  100.5522   34.6260 H   0  0  0  0  0  0
   52.8917   99.1448   33.8019 H   0  0  0  0  0  0
   55.5471  101.8009   33.0872 H   0  0  0  0  0  0
   54.7157  101.6414   34.6269 H   0  0  0  0  0  0
   55.3150  100.2120   33.8049 H   0  0  0  0  0  0
   54.4180   99.5958   31.6906 H   0  0  0  0  0  0
   53.0070  103.0874   33.4179 H   0  0  0  0  0  0
   53.0895   98.7761   29.4431 H   0  0  0  0  0  0
   50.7070  101.4248   26.3512 H   0  0  0  0  0  0
   49.7996  100.2022   24.3819 H   0  0  0  0  0  0
   50.3616   96.5316   26.2304 H   0  0  0  0  0  0
   51.2689   97.5992   28.2719 H   0  0  0  0  0  0
  1  2  1  0  0  0
  1 19  1  0  0  0
  1 20  1  0  0  0
  1 21  1  0  0  0
  2  3  1  0  0  0
  2  4  1  0  0  0
  2  5  1  0  0  0
  3 22  1  0  0  0
  3 23  1  0  0  0
  3 24  1  0  0  0
  4  7  1  0  0  0
  4 25  1  0  0  0
  5  6  1  0  0  0
  5 26  1  0  0  0
  6  8  1  0  0  0
  6 18  2  0  0  0
  7  8  2  0  0  0
  7 11  1  0  0  0
  8  9  1  0  0  0
  9 10  1  0  0  0
 10 11  2  0  0  0
 10 12  1  0  0  0
 11 27  1  0  0  0
 12 13  2  0  0  0
 12 17  1  0  0  0
 13 14  1  0  0  0
 13 28  1  0  0  0
 14 15  2  0  0  0
 14 29  1  0  0  0
 15 16  1  0  0  0
 16 17  2  0  0  0
 16 30  1  0  0  0
 17 31  1  0  0  0
M  END
> <s_m_entry_id>
28229

> <s_m_entry_name>
dock_pv.390

> <s_m_Source_Path>
/home/csk/Desktop/cluster/DUD-E-result/rock1

> <s_m_Source_File>
dock_pv.maegz

> <i_m_Source_File_Index>
390

> <chembl_id>
CHEMBL4215449

> <chembl_pref_name>
None

> <i_lp_mmshare_version>
53161

> <r_lp_tautomer_probability>
0.99999637101317

> <s_lp_Force_Field>
OPLS_2005

> <r_lp_Energy>
15.597392

> <b_lp_Chiralities_Consistent>
1

> <s_lp_Variant>
CHEMBL3231_lig915-1

> <s_i_glide_gridfile>
glide-grid_2etr

> <i_i_glide_lignum>
1313

> <i_i_glide_rotatable_bonds>
1

> <r_i_docking_score>
-7.5653700500798

> <r_i_glide_ligand_efficiency>
-0.420298336115544

> <r_i_glide_ligand_efficiency_sa>
-1.10149324631389

> <r_i_glide_ligand_efficiency_ln>
-1.94463936119334

> <r_i_glide_gscore>
-7.5653700500798

> <r_i_glide_lipo>
-2.01864674196553

> <r_i_glide_hbond>
-0.386042480240392

> <r_i_glide_metal>
0

> <r_i_glide_rewards>
-3.00761334848485

> <r_i_glide_evdw>
-31.6708450317383

> <r_i_glide_ecoul>
-4.90146541595459

> <r_i_glide_erotb>
0.262921518898608

> <r_i_glide_esite>
-0.097226934307537

> <r_i_glide_emodel>
-54.1653166603108

> <r_i_glide_energy>
-36.5723104476929

> <r_i_glide_einternal>
0.246835023164749

> <i_i_glide_confnum>
2

> <i_i_glide_posenum>
126

> <r_i_glide_eff_state_penalty>
0

> <s_user_duplicate_titles>
CHEMBL3231_lig915

> <i_f3d_flags>
0

> <s_m_subgroup_title>
dock_pv

> <s_m_subgroupid>
dock_pv

> <b_m_subgroup_collapsed>
1

$$$$
CHEMBL3231_lig1236
                    3D
 Schrodinger Suite 2021-1.
 27 29  0  0  1  0            999 V2000
   54.8433  101.9043   33.1869 O   0  0  0  0  0  0
   52.4651  103.8492   31.2118 N   0  0  0  0  0  0
   50.0425   98.3128   25.2127 N   0  0  0  0  0  0
   52.6598  101.6202   30.2363 C   0  0  0  0  0  0
   52.1092  102.9377   30.2659 C   0  0  0  0  0  0
   51.2884  101.0913   28.2711 C   0  0  0  0  0  0
   52.2448  100.7207   29.2248 C   0  0  0  0  0  0
   50.8527  100.1329   27.2114 C   0  0  0  0  0  0
   53.6056  101.2735   31.2332 C   0  0  0  0  0  0
   51.1698  103.3092   29.2823 C   0  0  0  0  0  0
   50.7617  102.3874   28.3256 C   0  0  0  0  0  0
   53.9518  102.2146   32.1994 C   0  0  0  0  0  0
   53.3728  103.4791   32.1461 C   0  0  0  0  0  0
   50.4507  100.5787   25.9412 C   0  0  0  0  0  0
   50.8338   98.7495   27.4487 C   0  0  0  0  0  0
   50.0437   99.6496   24.9851 C   0  0  0  0  0  0
   50.4419   97.8821   26.4320 C   0  0  0  0  0  0
   55.2693  101.0539   33.0419 H   0  0  0  0  0  0
   52.6946   99.7372   29.1987 H   0  0  0  0  0  0
   54.0471  100.2866   31.2428 H   0  0  0  0  0  0
   50.7752  104.3147   29.2633 H   0  0  0  0  0  0
   50.0351  102.7082   27.5962 H   0  0  0  0  0  0
   53.6478  104.2329   32.8675 H   0  0  0  0  0  0
   50.4494  101.6271   25.6856 H   0  0  0  0  0  0
   51.1158   98.3408   28.4086 H   0  0  0  0  0  0
   49.7160   99.9791   24.0121 H   0  0  0  0  0  0
   50.4350   96.8133   26.5918 H   0  0  0  0  0  0
  1 12  1  0  0  0
  1 18  1  0  0  0
  2  5  2  0  0  0
  2 13  1  0  0  0
  3 16  2  0  0  0
  3 17  1  0  0  0
  4  5  1  0  0  0
  4  7  1  0  0  0
  4  9  2  0  0  0
  5 10  1  0  0  0
  6  7  2  0  0  0
  6  8  1  0  0  0
  6 11  1  0  0  0
  7 19  1  0  0  0
  8 14  2  0  0  0
  8 15  1  0  0  0
  9 12  1  0  0  0
  9 20  1  0  0  0
 10 11  2  0  0  0
 10 21  1  0  0  0
 11 22  1  0  0  0
 12 13  2  0  0  0
 13 23  1  0  0  0
 14 16  1  0  0  0
 14 24  1  0  0  0
 15 17  2  0  0  0
 15 25  1  0  0  0
 16 26  1  0  0  0
 17 27  1  0  0  0
M  END
> <s_m_entry_id>
28230

> <s_m_entry_name>
dock_pv.391

> <s_m_Source_Path>
/home/csk/Desktop/cluster/DUD-E-result/rock1

> <s_m_Source_File>
dock_pv.maegz

> <i_m_Source_File_Index>
391

> <chembl_id>
CHEMBL1973868

> <chembl_pref_name>
None

> <i_lp_mmshare_version>
53161

> <r_lp_tautomer_probability>
1

> <s_lp_Force_Field>
OPLS_2005

> <r_lp_Energy>
14.981447

> <b_lp_Chiralities_Consistent>
1

> <s_lp_Variant>
CHEMBL3231_lig1236-1

> <s_i_glide_gridfile>
glide-grid_2etr

> <i_i_glide_lignum>
1713

> <i_i_glide_rotatable_bonds>
2

> <r_i_docking_score>
-7.55889731874437

> <r_i_glide_ligand_efficiency>
-0.444641018749669

> <r_i_glide_ligand_efficiency_sa>
-1.14329726488281

> <r_i_glide_ligand_efficiency_ln>
-1.9719479820932

> <r_i_glide_gscore>
-7.55889731874437

> <r_i_glide_lipo>
-2.30608519900645

> <r_i_glide_hbond>
-0.230490134866289

> <r_i_glide_metal>
0

> <r_i_glide_rewards>
-3.27713787878788

> <r_i_glide_evdw>
-32.4853248596191

> <r_i_glide_ecoul>
-3.08681058883667

> <r_i_glide_erotb>
0.342103725222698

> <r_i_glide_esite>
0

> <r_i_glide_emodel>
-52.1099070124793

> <r_i_glide_energy>
-35.5721354484558

> <r_i_glide_einternal>
0.145547613501549

> <i_i_glide_confnum>
1

> <i_i_glide_posenum>
368

> <r_i_glide_eff_state_penalty>
0

> <s_user_duplicate_titles>
CHEMBL3231_lig1236

> <i_f3d_flags>
0

> <s_m_subgroup_title>
dock_pv

> <s_m_subgroupid>
dock_pv

> <b_m_subgroup_collapsed>
1

$$$$
CHEMBL3231_lig222
                    3D
 Schrodinger Suite 2021-1.
 39 41  0  0  1  0            999 V2000
   53.0657  102.2852   31.5941 C   0  0  0  0  0  0
   53.2787  101.9647   32.9321 C   0  0  0  0  0  0
   52.9129  100.7242   33.4537 C   0  0  0  0  0  0
   52.3163   99.7706   32.6239 C   0  0  0  0  0  0
   52.4490  101.3288   30.7748 C   0  0  0  0  0  0
   52.0671  100.0504   31.2687 C   0  0  0  0  0  0
   51.4445   99.2294   30.2721 C   0  0  0  0  0  0
   51.3860   99.8685   29.0294 C   0  0  0  0  0  0
   52.0429  101.5024   29.0846 S   0  0  0  0  0  0
   50.9146   97.8463   30.6233 C   0  0  0  0  0  0
   50.8508   99.3530   27.7198 C   0  0  0  0  0  0
   50.3559  100.2712   26.8415 N   0  0  0  0  0  0
   49.9161   99.8005   25.6499 C   0  0  0  0  0  0
   49.9646   98.5147   25.2293 N   0  0  0  0  0  0
   50.4421   97.6184   26.1254 C   0  0  0  0  0  0
   50.8821   97.9918   27.3934 C   0  0  0  0  0  0
   49.2914  100.7030   24.8110 N   0  0  0  0  0  0
   53.1540  100.4209   34.9380 C   0  0  2  0  0  0
   53.8815   99.1718   35.1004 N   0  0  0  0  0  0
   51.8513  100.3281   35.7681 C   0  0  0  0  0  0
   51.0067  101.6130   35.7693 C   0  0  0  0  0  0
   53.3702  103.2472   31.2042 H   0  0  0  0  0  0
   53.7483  102.6968   33.5729 H   0  0  0  0  0  0
   52.0602   98.8083   33.0348 H   0  0  0  0  0  0
   50.1344   97.5031   29.9467 H   0  0  0  0  0  0
   51.7048   97.0951   30.6239 H   0  0  0  0  0  0
   50.4574   97.8213   31.6108 H   0  0  0  0  0  0
   50.4528   96.5840   25.8228 H   0  0  0  0  0  0
   51.2429   97.2485   28.0796 H   0  0  0  0  0  0
   49.2431  101.6721   25.0860 H   0  0  0  0  0  0
   48.9986  100.3949   23.8856 H   0  0  0  0  0  0
   53.7825  101.2048   35.3633 H   0  0  0  0  0  0
   54.7912   99.2488   34.6637 H   0  0  0  0  0  0
   54.0438   98.9824   36.0791 H   0  0  0  0  0  0
   52.0952  100.0841   36.8037 H   0  0  0  0  0  0
   51.2382   99.5033   35.4032 H   0  0  0  0  0  0
   50.1284  101.4993   36.4058 H   0  0  0  0  0  0
   50.6565  101.8610   34.7668 H   0  0  0  0  0  0
   51.5788  102.4618   36.1443 H   0  0  0  0  0  0
  1  5  2  0  0  0
  1  2  1  0  0  0
  1 22  1  0  0  0
  2  3  2  0  0  0
  2 23  1  0  0  0
  3 18  1  0  0  0
  3  4  1  0  0  0
  4  6  2  0  0  0
  4 24  1  0  0  0
  5  6  1  0  0  0
  5  9  1  0  0  0
  6  7  1  0  0  0
  7 10  1  0  0  0
  7  8  2  0  0  0
  8 11  1  0  0  0
  8  9  1  0  0  0
 10 25  1  0  0  0
 10 26  1  0  0  0
 10 27  1  0  0  0
 11 12  2  0  0  0
 11 16  1  0  0  0
 12 13  1  0  0  0
 13 14  2  0  0  0
 13 17  1  0  0  0
 14 15  1  0  0  0
 15 16  2  0  0  0
 15 28  1  0  0  0
 16 29  1  0  0  0
 17 30  1  0  0  0
 17 31  1  0  0  0
 18 19  1  0  0  0
 18 20  1  0  0  0
 18 32  1  0  0  0
 19 33  1  0  0  0
 19 34  1  0  0  0
 20 21  1  0  0  0
 20 35  1  0  0  0
 20 36  1  0  0  0
 21 37  1  0  0  0
 21 38  1  0  0  0
 21 39  1  0  0  0
M  END
> <s_m_entry_id>
28231

> <s_m_entry_name>
dock_pv.392

> <s_m_Source_Path>
/home/csk/Desktop/cluster/DUD-E-result/rock1

> <s_m_Source_File>
dock_pv.maegz

> <i_m_Source_File_Index>
392

> <chembl_id>
CHEMBL1083966

> <chembl_pref_name>
None

> <i_lp_mmshare_version>
53161

> <r_lp_tautomer_probability>
0.999999987636

> <s_lp_Force_Field>
OPLS_2005

> <r_lp_Energy>
4.823204

> <b_lp_Chiralities_Consistent>
1

> <s_lp_Variant>
CHEMBL3231_lig222-1

> <s_i_glide_gridfile>
glide-grid_2etr

> <i_i_glide_lignum>
361

> <i_i_glide_rotatable_bonds>
3

> <r_i_docking_score>
-7.55805733713884

> <r_i_glide_ligand_efficiency>
-0.359907492244707

> <r_i_glide_ligand_efficiency_sa>
-0.992957480606928

> <r_i_glide_ligand_efficiency_ln>
-1.86871440411469

> <r_i_glide_gscore>
-7.55805733713884

> <r_i_glide_lipo>
-1.88690092693386

> <r_i_glide_hbond>
-0.432529847748471

> <r_i_glide_metal>
0

> <r_i_glide_rewards>
-3.05076996983911

> <r_i_glide_evdw>
-35.42431640625

> <r_i_glide_ecoul>
-4.70099401473999

> <r_i_glide_erotb>
0.288508329906108

> <r_i_glide_esite>
0

> <r_i_glide_emodel>
-58.5364935850396

> <r_i_glide_energy>
-40.12531042099

> <r_i_glide_einternal>
0.279226750135422

> <i_i_glide_confnum>
1

> <i_i_glide_posenum>
396

> <r_i_glide_eff_state_penalty>
0

> <s_user_duplicate_titles>
CHEMBL3231_lig222,630365

> <i_f3d_flags>
0

> <s_m_subgroup_title>
dock_pv

> <s_m_subgroupid>
dock_pv

> <b_m_subgroup_collapsed>
1

$$$$
CHEMBL3231_lig916
                    3D
 Schrodinger Suite 2021-1.
 31 33  0  0  1  0            999 V2000
   54.8050  101.4946   32.6557 C   0  0  0  0  0  0
   53.3183  101.5190   33.0712 C   0  0  0  0  0  0
   53.1241  101.4703   34.5961 C   0  0  0  0  0  0
   52.7134  100.2678   32.5654 N   0  0  0  0  0  0
   52.6417  102.7165   32.5094 N   0  0  0  0  0  0
   52.0790  102.8188   31.2810 C   0  0  0  0  0  0
   52.3123  100.3307   31.2499 C   0  0  0  0  0  0
   52.0418  101.5395   30.6177 C   0  0  0  0  0  0
   51.5988  101.3268   29.3032 C   0  0  0  0  0  0
   51.5172   99.9832   28.9241 C   0  0  0  0  0  0
   52.0431   98.9572   30.2423 S   0  0  0  0  0  0
   51.0242   99.4000   27.6293 C   0  0  0  0  0  0
   50.6271  100.2452   26.5805 C   0  0  0  0  0  0
   50.1404   99.6839   25.3983 C   0  0  0  0  0  0
   50.0428   98.3455   25.2106 N   0  0  0  0  0  0
   50.4428   97.5322   26.2140 C   0  0  0  0  0  0
   50.9255   98.0157   27.4295 C   0  0  0  0  0  0
   51.6431  103.8949   30.8851 O   0  0  0  0  0  0
   54.9267  101.4652   31.5739 H   0  0  0  0  0  0
   55.3246  102.3860   33.0098 H   0  0  0  0  0  0
   55.3325  100.6324   33.0667 H   0  0  0  0  0  0
   52.0668  101.4412   34.8689 H   0  0  0  0  0  0
   53.6053  100.5966   35.0394 H   0  0  0  0  0  0
   53.5585  102.3497   35.0724 H   0  0  0  0  0  0
   53.2576   99.4759   32.8744 H   0  0  0  0  0  0
   52.7993  103.5993   32.9698 H   0  0  0  0  0  0
   51.3080  102.1429   28.6572 H   0  0  0  0  0  0
   50.6812  101.3186   26.6681 H   0  0  0  0  0  0
   49.8186  100.3059   24.5762 H   0  0  0  0  0  0
   50.3819   96.4672   26.0275 H   0  0  0  0  0  0
   51.2184   97.3113   28.1904 H   0  0  0  0  0  0
  1  2  1  0  0  0
  1 19  1  0  0  0
  1 20  1  0  0  0
  1 21  1  0  0  0
  2  3  1  0  0  0
  2  4  1  0  0  0
  2  5  1  0  0  0
  3 22  1  0  0  0
  3 23  1  0  0  0
  3 24  1  0  0  0
  4  7  1  0  0  0
  4 25  1  0  0  0
  5  6  1  0  0  0
  5 26  1  0  0  0
  6  8  1  0  0  0
  6 18  2  0  0  0
  7  8  2  0  0  0
  7 11  1  0  0  0
  8  9  1  0  0  0
  9 10  2  0  0  0
  9 27  1  0  0  0
 10 11  1  0  0  0
 10 12  1  0  0  0
 12 13  2  0  0  0
 12 17  1  0  0  0
 13 14  1  0  0  0
 13 28  1  0  0  0
 14 15  2  0  0  0
 14 29  1  0  0  0
 15 16  1  0  0  0
 16 17  2  0  0  0
 16 30  1  0  0  0
 17 31  1  0  0  0
M  END
> <s_m_entry_id>
28232

> <s_m_entry_name>
dock_pv.393

> <s_m_Source_Path>
/home/csk/Desktop/cluster/DUD-E-result/rock1

> <s_m_Source_File>
dock_pv.maegz

> <i_m_Source_File_Index>
393

> <chembl_id>
CHEMBL4206154

> <chembl_pref_name>
None

> <i_lp_mmshare_version>
53161

> <r_lp_tautomer_probability>
1

> <s_lp_Force_Field>
OPLS_2005

> <r_lp_Energy>
13.790824

> <b_lp_Chiralities_Consistent>
1

> <s_lp_Variant>
CHEMBL3231_lig916-1

> <s_i_glide_gridfile>
glide-grid_2etr

> <i_i_glide_lignum>
1314

> <i_i_glide_rotatable_bonds>
1

> <r_i_docking_score>
-7.55792470848592

> <r_i_glide_ligand_efficiency>
-0.419884706026995

> <r_i_glide_ligand_efficiency_sa>
-1.10040922881998

> <r_i_glide_ligand_efficiency_ln>
-1.94272557452789

> <r_i_glide_gscore>
-7.55792470848592

> <r_i_glide_lipo>
-2.0389140431596

> <r_i_glide_hbond>
-0.377205067090134

> <r_i_glide_metal>
0

> <r_i_glide_rewards>
-2.99928001515151

> <r_i_glide_evdw>
-31.2274551391602

> <r_i_glide_ecoul>
-5.05300998687744

> <r_i_glide_erotb>
0.262921518898608

> <r_i_glide_esite>
-0.0861228469936516

> <r_i_glide_emodel>
-53.5193984646582

> <r_i_glide_energy>
-36.2804651260376

> <r_i_glide_einternal>
0.00266225752420723

> <i_i_glide_confnum>
1

> <i_i_glide_posenum>
66

> <r_i_glide_eff_state_penalty>
0

> <s_user_duplicate_titles>
CHEMBL3231_lig916

> <i_f3d_flags>
0

> <s_m_subgroup_title>
dock_pv

> <s_m_subgroupid>
dock_pv

> <b_m_subgroup_collapsed>
1

$$$$
CHEMBL3231_lig1822
                    3D
 Schrodinger Suite 2021-1.
 46 50  0  0  1  0            999 V2000
   49.7170  100.5455   24.8109 N   0  0  0  0  0  0
   50.1197   99.5100   25.5954 C   0  0  0  0  0  0
   50.0431   98.2642   25.2139 N   0  0  0  0  0  0
   50.4374   97.5134   26.2583 N   0  0  0  0  0  0
   50.7909   98.2889   27.3436 C   0  0  0  0  0  0
   51.2050   97.9607   28.6330 C   0  0  0  0  0  0
   51.5399   99.0181   29.4779 C   0  0  0  0  0  0
   51.4308  100.3589   29.0903 C   0  0  0  0  0  0
   50.9733  100.6677   27.7988 C   0  0  0  0  0  0
   50.6437   99.6271   26.9182 C   0  0  0  0  0  0
   51.7302  101.4637   30.0652 C   0  0  0  0  0  0
   51.2897  102.6924   29.8351 N   0  0  0  0  0  0
   51.6427  103.5031   30.8858 N   0  0  0  0  0  0
   52.2998  102.7392   31.7535 N   0  0  0  0  0  0
   52.7213  103.3219   33.0259 C   0  0  0  0  0  0
   51.5548  103.6504   33.9587 C   0  0  0  0  0  0
   51.3732  104.9592   34.4140 C   0  0  0  0  0  0
   50.3074  105.2631   35.2581 C   0  0  0  0  0  0
   49.4245  104.2571   35.6474 C   0  0  0  0  0  0
   49.5991  102.9489   35.2009 C   0  0  0  0  0  0
   50.6653  102.6460   34.3578 C   0  0  0  0  0  0
   52.4200  101.4461   31.2921 C   0  0  0  0  0  0
   53.1460  100.3896   32.0443 C   0  0  0  0  0  0
   52.4647   99.5377   32.9160 C   0  0  0  0  0  0
   53.1701   98.5711   33.6285 C   0  0  0  0  0  0
   54.5485   98.4587   33.4666 C   0  0  0  0  0  0
   55.2270   97.5190   34.1612 F   0  0  0  0  0  0
   55.2306   99.3068   32.5983 C   0  0  0  0  0  0
   54.5276  100.2725   31.8840 C   0  0  0  0  0  0
   49.6003  101.4792   25.1778 H   0  0  0  0  0  0
   49.3483  100.3763   23.8790 H   0  0  0  0  0  0
   50.4489   96.5053   26.1949 H   0  0  0  0  0  0
   51.2433   96.9378   28.9754 H   0  0  0  0  0  0
   51.8589   98.7648   30.4744 H   0  0  0  0  0  0
   50.8603  101.6936   27.4818 H   0  0  0  0  0  0
   53.3103  104.2146   32.8031 H   0  0  0  0  0  0
   53.3975  102.6299   33.5284 H   0  0  0  0  0  0
   52.0516  105.7452   34.1110 H   0  0  0  0  0  0
   50.1695  106.2746   35.6110 H   0  0  0  0  0  0
   48.5987  104.4914   36.3031 H   0  0  0  0  0  0
   48.9126  102.1732   35.5093 H   0  0  0  0  0  0
   50.7971  101.6318   34.0132 H   0  0  0  0  0  0
   51.3955   99.6212   33.0355 H   0  0  0  0  0  0
   52.6570   97.9061   34.3056 H   0  0  0  0  0  0
   56.3006   99.2104   32.4747 H   0  0  0  0  0  0
   55.0592  100.9296   31.2120 H   0  0  0  0  0  0
  1  2  1  0  0  0
  1 30  1  0  0  0
  1 31  1  0  0  0
  2  3  2  0  0  0
  2 10  1  0  0  0
  3  4  1  0  0  0
  4  5  1  0  0  0
  4 32  1  0  0  0
  5  6  2  0  0  0
  5 10  1  0  0  0
  6  7  1  0  0  0
  6 33  1  0  0  0
  7  8  2  0  0  0
  7 34  1  0  0  0
  8  9  1  0  0  0
  8 11  1  0  0  0
  9 10  2  0  0  0
  9 35  1  0  0  0
 11 12  1  0  0  0
 11 22  2  0  0  0
 12 13  2  0  0  0
 13 14  1  0  0  0
 14 15  1  0  0  0
 14 22  1  0  0  0
 15 16  1  0  0  0
 15 36  1  0  0  0
 15 37  1  0  0  0
 16 17  2  0  0  0
 16 21  1  0  0  0
 17 18  1  0  0  0
 17 38  1  0  0  0
 18 19  2  0  0  0
 18 39  1  0  0  0
 19 20  1  0  0  0
 19 40  1  0  0  0
 20 21  2  0  0  0
 20 41  1  0  0  0
 21 42  1  0  0  0
 22 23  1  0  0  0
 23 24  2  0  0  0
 23 29  1  0  0  0
 24 25  1  0  0  0
 24 43  1  0  0  0
 25 26  2  0  0  0
 25 44  1  0  0  0
 26 27  1  0  0  0
 26 28  1  0  0  0
 28 29  2  0  0  0
 28 45  1  0  0  0
 29 46  1  0  0  0
M  END
> <s_m_entry_id>
28233

> <s_m_entry_name>
dock_pv.394

> <s_m_Source_Path>
/home/csk/Desktop/cluster/DUD-E-result/rock1

> <s_m_Source_File>
dock_pv.maegz

> <i_m_Source_File_Index>
394

> <chembl_id>
CHEMBL1986499

> <chembl_pref_name>
None

> <i_lp_mmshare_version>
53161

> <r_lp_tautomer_probability>
1

> <s_lp_Force_Field>
OPLS_2005

> <r_lp_Energy>
19.450098

> <b_lp_Chiralities_Consistent>
1

> <s_lp_Variant>
CHEMBL3231_lig1822-1

> <s_i_glide_gridfile>
glide-grid_2etr

> <i_i_glide_lignum>
2618

> <i_i_glide_rotatable_bonds>
4

> <r_i_docking_score>
-7.55142041021629

> <r_i_glide_ligand_efficiency>
-0.260393807248838

> <r_i_glide_ligand_efficiency_sa>
-0.800012274417042

> <r_i_glide_ligand_efficiency_ln>
-1.72908378643992

> <r_i_glide_gscore>
-7.55142041021629

> <r_i_glide_lipo>
-2.13169336448903

> <r_i_glide_hbond>
-0.548798258360581

> <r_i_glide_metal>
0

> <r_i_glide_rewards>
-1.90812057045454

> <r_i_glide_evdw>
-43.8830947875977

> <r_i_glide_ecoul>
-6.50976610183716

> <r_i_glide_erotb>
0.368398963510659

> <r_i_glide_esite>
-0.160587525767341

> <r_i_glide_emodel>
-73.2921239271145

> <r_i_glide_energy>
-50.3928608894348

> <r_i_glide_einternal>
0.753533363342285

> <i_i_glide_confnum>
7

> <i_i_glide_posenum>
344

> <r_i_glide_eff_state_penalty>
0

> <s_user_duplicate_titles>
CHEMBL3231_lig1822

> <i_f3d_flags>
0

> <s_m_subgroup_title>
dock_pv

> <s_m_subgroupid>
dock_pv

> <b_m_subgroup_collapsed>
1

$$$$
CHEMBL3231_lig907
                    3D
 Schrodinger Suite 2021-1.
 41 44  0  0  1  0            999 V2000
   53.3982  101.0510   32.9570 C   0  0  0  0  0  0
   52.2409  100.3315   33.7294 C   0  0  0  0  0  0
   52.5942   99.2409   34.7640 C   0  0  0  0  0  0
   54.7729  101.1206   33.6927 C   0  0  0  0  0  0
   53.6643   98.2175   34.3502 C   0  0  0  0  0  0
   55.6429   99.8364   33.7819 C   0  0  0  0  0  0
   55.1030   98.6844   34.6464 C   0  0  0  0  0  0
   53.6526  100.3039   31.7055 N   0  0  0  0  0  0
   52.9773  102.4388   32.6121 N   0  0  0  0  0  0
   52.1676  102.7934   31.5855 C   0  0  0  0  0  0
   52.7627  100.5187   30.6823 C   0  0  0  0  0  0
   52.0684  101.7238   30.6320 C   0  0  0  0  0  0
   51.0863  101.8073   29.2018 S   0  0  0  0  0  0
   51.5734  100.2034   28.7142 C   0  0  0  0  0  0
   52.4809   99.6618   29.6211 C   0  0  0  0  0  0
   51.0212   99.5814   27.4799 C   0  0  0  0  0  0
   50.9320   98.1846   27.4213 C   0  0  0  0  0  0
   50.4428   97.5874   26.2620 C   0  0  0  0  0  0
   50.0429   98.3035   25.1843 N   0  0  0  0  0  0
   50.1170   99.6564   25.2500 C   0  0  0  0  0  0
   50.6007  100.3306   26.3708 C   0  0  0  0  0  0
   51.6439  103.9022   31.5452 O   0  0  0  0  0  0
   51.5299   99.8972   33.0243 H   0  0  0  0  0  0
   51.6496  101.0806   34.2611 H   0  0  0  0  0  0
   51.6809   98.7050   35.0173 H   0  0  0  0  0  0
   52.8988   99.7216   35.6959 H   0  0  0  0  0  0
   54.6136  101.4990   34.7021 H   0  0  0  0  0  0
   55.3845  101.8808   33.2033 H   0  0  0  0  0  0
   53.5518   97.9370   33.3009 H   0  0  0  0  0  0
   53.4917   97.2992   34.9120 H   0  0  0  0  0  0
   55.8693   99.4611   32.7813 H   0  0  0  0  0  0
   56.6182  100.1131   34.1851 H   0  0  0  0  0  0
   55.7728   97.8317   34.5307 H   0  0  0  0  0  0
   55.1767   98.9626   35.6986 H   0  0  0  0  0  0
   54.1873   99.4548   31.8150 H   0  0  0  0  0  0
   53.1548  103.1625   33.2909 H   0  0  0  0  0  0
   52.9336   98.6890   29.5157 H   0  0  0  0  0  0
   51.2379   97.5646   28.2519 H   0  0  0  0  0  0
   50.3801   96.5126   26.1823 H   0  0  0  0  0  0
   49.7843  100.2011   24.3760 H   0  0  0  0  0  0
   50.6553  101.4084   26.3695 H   0  0  0  0  0  0
  1  2  1  0  0  0
  1  4  1  0  0  0
  1  8  1  0  0  0
  1  9  1  0  0  0
  2  3  1  0  0  0
  2 23  1  0  0  0
  2 24  1  0  0  0
  3  5  1  0  0  0
  3 25  1  0  0  0
  3 26  1  0  0  0
  4  6  1  0  0  0
  4 27  1  0  0  0
  4 28  1  0  0  0
  5  7  1  0  0  0
  5 29  1  0  0  0
  5 30  1  0  0  0
  6  7  1  0  0  0
  6 31  1  0  0  0
  6 32  1  0  0  0
  7 33  1  0  0  0
  7 34  1  0  0  0
  8 11  1  0  0  0
  8 35  1  0  0  0
  9 10  1  0  0  0
  9 36  1  0  0  0
 10 12  1  0  0  0
 10 22  2  0  0  0
 11 12  2  0  0  0
 11 15  1  0  0  0
 12 13  1  0  0  0
 13 14  1  0  0  0
 14 15  2  0  0  0
 14 16  1  0  0  0
 15 37  1  0  0  0
 16 17  2  0  0  0
 16 21  1  0  0  0
 17 18  1  0  0  0
 17 38  1  0  0  0
 18 19  2  0  0  0
 18 39  1  0  0  0
 19 20  1  0  0  0
 20 21  2  0  0  0
 20 40  1  0  0  0
 21 41  1  0  0  0
M  END
> <s_m_entry_id>
28234

> <s_m_entry_name>
dock_pv.395

> <s_m_Source_Path>
/home/csk/Desktop/cluster/DUD-E-result/rock1

> <s_m_Source_File>
dock_pv.maegz

> <i_m_Source_File_Index>
395

> <chembl_id>
CHEMBL4216947

> <chembl_pref_name>
None

> <i_lp_mmshare_version>
53161

> <r_lp_tautomer_probability>
0.99999637101317

> <s_lp_Force_Field>
OPLS_2005

> <r_lp_Energy>
33.199447

> <b_lp_Chiralities_Consistent>
1

> <s_lp_Variant>
CHEMBL3231_lig907-1

> <s_i_glide_gridfile>
glide-grid_2etr

> <i_i_glide_lignum>
1301

> <i_i_glide_rotatable_bonds>
1

> <r_i_docking_score>
-7.55125324246472

> <r_i_glide_ligand_efficiency>
-0.343238783748396

> <r_i_glide_ligand_efficiency_sa>
-0.96176857087837

> <r_i_glide_ligand_efficiency_ln>
-1.8458017311128

> <r_i_glide_gscore>
-7.55125324246472

> <r_i_glide_lipo>
-2.06101561468492

> <r_i_glide_hbond>
-0.410094590098329

> <r_i_glide_metal>
0

> <r_i_glide_rewards>
-2.63798515493426

> <r_i_glide_evdw>
-35.9896125793457

> <r_i_glide_ecoul>
-4.91823148727417

> <r_i_glide_erotb>
0.18908284767948

> <r_i_glide_esite>
-0.0940253783682798

> <r_i_glide_emodel>
-60.357010368561

> <r_i_glide_energy>
-40.9078440666199

> <r_i_glide_einternal>
0.374405145645142

> <i_i_glide_confnum>
27

> <i_i_glide_posenum>
259

> <r_i_glide_eff_state_penalty>
0

> <s_user_duplicate_titles>
CHEMBL3231_lig907

> <i_f3d_flags>
0

> <s_m_subgroup_title>
dock_pv

> <s_m_subgroupid>
dock_pv

> <b_m_subgroup_collapsed>
1

$$$$
CHEMBL3231_lig1782
                    3D
 Schrodinger Suite 2021-1.
 47 51  0  0  1  0            999 V2000
   50.8420   97.1065   25.6119 Cl  0  0  0  0  0  0
   50.4434  104.1691   29.2110 O   0  0  0  0  0  0
   50.4429  102.5868   27.7232 N   0  0  0  0  0  0
   52.5070  103.7120   31.2340 N   0  0  0  0  0  0
   52.9251  103.8776   32.5614 N   0  0  2  0  0  0
   51.7078  100.7536   29.3648 C   0  0  0  0  0  0
   51.5466  102.0657   29.7814 C   0  0  0  0  0  0
   51.1835  100.3197   28.0189 C   0  0  0  0  0  0
   52.0293  102.5385   31.0906 C   0  0  0  0  0  0
   50.5688  101.2997   27.2282 C   0  0  0  0  0  0
   50.8049  103.0269   28.9354 C   0  0  0  0  0  0
   52.4817   99.7394   30.1375 C   0  0  0  0  0  0
   51.2669   99.0134   27.4982 C   0  0  0  0  0  0
   52.0582  101.7839   32.4081 C   0  0  0  0  0  0
   52.2616  102.9128   33.4236 C   0  0  2  0  0  0
   50.0430  101.0004   25.9735 C   0  0  0  0  0  0
   50.7413   98.7108   26.2383 C   0  0  0  0  0  0
   53.8525   99.9154   30.3623 C   0  0  0  0  0  0
   51.8548   98.5843   30.6159 C   0  0  0  0  0  0
   51.0065  103.4638   34.1340 C   0  0  0  0  0  0
   50.1322   99.7045   25.4760 C   0  0  0  0  0  0
   54.5866   98.9489   31.0397 C   0  0  0  0  0  0
   52.5937   97.6099   31.2774 C   0  0  0  0  0  0
   50.0241  102.5769   34.5979 C   0  0  0  0  0  0
   50.8853  104.8283   34.4406 C   0  0  0  0  0  0
   53.9565   97.7937   31.4899 C   0  0  0  0  0  0
   48.9326  103.0419   35.3280 C   0  0  0  0  0  0
   49.8044  105.2933   35.1917 C   0  0  0  0  0  0
   48.8279  104.3985   35.6220 C   0  0  0  0  0  0
   49.9488  103.2828   27.1870 H   0  0  0  0  0  0
   52.9772  104.8594   32.8064 H   0  0  0  0  0  0
   51.7461   98.2221   28.0514 H   0  0  0  0  0  0
   51.1998  101.1392   32.5761 H   0  0  0  0  0  0
   52.9452  101.1540   32.4319 H   0  0  0  0  0  0
   52.9169  102.5781   34.2285 H   0  0  0  0  0  0
   49.5518  101.7631   25.3886 H   0  0  0  0  0  0
   54.3556  100.8051   30.0133 H   0  0  0  0  0  0
   50.7984   98.4298   30.4542 H   0  0  0  0  0  0
   49.7253   99.4724   24.5019 H   0  0  0  0  0  0
   55.6434   99.0923   31.2075 H   0  0  0  0  0  0
   52.1168   96.7033   31.6109 H   0  0  0  0  0  0
   50.1084  101.5149   34.4242 H   0  0  0  0  0  0
   51.6407  105.5382   34.1314 H   0  0  0  0  0  0
   54.5326   97.0334   31.9985 H   0  0  0  0  0  0
   48.1813  102.3491   35.6822 H   0  0  0  0  0  0
   49.7273  106.3430   35.4369 H   0  0  0  0  0  0
   47.9862  104.7553   36.1989 H   0  0  0  0  0  0
  1 17  1  0  0  0
  2 11  2  0  0  0
  3 10  1  0  0  0
  3 11  1  0  0  0
  3 30  1  0  0  0
  4  5  1  0  0  0
  4  9  2  0  0  0
  5 15  1  0  0  0
  5 31  1  0  0  0
  6  7  2  0  0  0
  6  8  1  0  0  0
  6 12  1  0  0  0
  7  9  1  0  0  0
  7 11  1  0  0  0
  8 10  1  0  0  0
  8 13  2  0  0  0
  9 14  1  0  0  0
 10 16  2  0  0  0
 12 18  2  0  0  0
 12 19  1  0  0  0
 13 17  1  0  0  0
 13 32  1  0  0  0
 14 15  1  0  0  0
 14 33  1  0  0  0
 14 34  1  0  0  0
 15 20  1  0  0  0
 15 35  1  0  0  0
 16 21  1  0  0  0
 16 36  1  0  0  0
 17 21  2  0  0  0
 18 22  1  0  0  0
 18 37  1  0  0  0
 19 23  2  0  0  0
 19 38  1  0  0  0
 20 24  2  0  0  0
 20 25  1  0  0  0
 21 39  1  0  0  0
 22 26  2  0  0  0
 22 40  1  0  0  0
 23 26  1  0  0  0
 23 41  1  0  0  0
 24 27  1  0  0  0
 24 42  1  0  0  0
 25 28  2  0  0  0
 25 43  1  0  0  0
 26 44  1  0  0  0
 27 29  2  0  0  0
 27 45  1  0  0  0
 28 29  1  0  0  0
 28 46  1  0  0  0
 29 47  1  0  0  0
M  END
> <s_m_entry_id>
28235

> <s_m_entry_name>
dock_pv.396

> <s_m_Source_Path>
/home/csk/Desktop/cluster/DUD-E-result/rock1

> <s_m_Source_File>
dock_pv.maegz

> <i_m_Source_File_Index>
396

> <chembl_id>
CHEMBL1992796

> <chembl_pref_name>
None

> <i_lp_mmshare_version>
53161

> <r_lp_tautomer_probability>
1

> <s_lp_Force_Field>
OPLS_2005

> <r_lp_Energy>
53.430628

> <b_lp_Chiralities_Consistent>
1

> <s_lp_Variant>
CHEMBL3231_lig1782-1

> <s_i_glide_gridfile>
glide-grid_2etr

> <i_i_glide_lignum>
2549

> <i_i_glide_rotatable_bonds>
3

> <r_i_docking_score>
-7.5469390608008

> <r_i_glide_ligand_efficiency>
-0.260239277958648

> <r_i_glide_ligand_efficiency_sa>
-0.799537511479265

> <r_i_glide_ligand_efficiency_ln>
-1.72805767106099

> <r_i_glide_gscore>
-7.5469390608008

> <r_i_glide_lipo>
-3.17245855860026

> <r_i_glide_hbond>
-0.0348096599989372

> <r_i_glide_metal>
0

> <r_i_glide_rewards>
-1.00769145454545

> <r_i_glide_evdw>
-49.1056976318359

> <r_i_glide_ecoul>
-7.69268894195557

> <r_i_glide_erotb>
0.367711904272521

> <r_i_glide_esite>
-0.0905030690435438

> <r_i_glide_emodel>
-81.5168600696797

> <r_i_glide_energy>
-56.7983865737915

> <r_i_glide_einternal>
3.84755086898804

> <i_i_glide_confnum>
22

> <i_i_glide_posenum>
364

> <r_i_glide_eff_state_penalty>
0

> <s_user_duplicate_titles>
CHEMBL3231_lig1782

> <i_f3d_flags>
0

> <s_m_subgroup_title>
dock_pv

> <s_m_subgroupid>
dock_pv

> <b_m_subgroup_collapsed>
1

$$$$
CHEMBL3231_lig637
                    3D
 Schrodinger Suite 2021-1.
 43 45  0  0  1  0            999 V2000
   52.9884   98.4467   34.6379 C   0  0  0  0  0  0
   52.3354   99.3169   35.5569 O   0  0  0  0  0  0
   52.4714  100.6826   35.3955 C   0  0  0  0  0  0
   51.9020  101.4960   36.3747 C   0  0  0  0  0  0
   51.9972  102.8852   36.2958 C   0  0  0  0  0  0
   52.6631  103.4808   35.2243 C   0  0  0  0  0  0
   53.2346  102.6886   34.2253 C   0  0  0  0  0  0
   53.1354  101.2936   34.3197 C   0  0  0  0  0  0
   53.9237  103.3326   33.0129 C   0  0  1  0  0  0
   55.4365  103.0969   33.0673 C   0  0  0  0  0  0
   53.4066  102.8441   31.7333 N   0  0  0  0  0  0
   52.1256  102.9212   31.3392 C   0  0  0  0  0  0
   51.2450  103.5008   31.9749 O   0  0  0  0  0  0
   51.7844  102.1869   30.0797 C   0  0  0  0  0  0
   52.2410  100.8746   29.8815 C   0  0  0  0  0  0
   51.8534  100.1573   28.7519 C   0  0  0  0  0  0
   51.0212  100.7457   27.7957 C   0  0  0  0  0  0
   50.6112  102.0685   27.9722 C   0  0  0  0  0  0
   50.9839  102.7879   29.0993 C   0  0  0  0  0  0
   50.5459  104.0653   29.2155 F   0  0  0  0  0  0
   50.5455   99.9903   26.6089 C   0  0  0  0  0  0
   49.9189  100.5032   25.4873 C   0  0  0  0  0  0
   49.6442   99.4349   24.6893 N   0  0  0  0  0  0
   50.0433   98.2745   25.2117 N   0  0  0  0  0  0
   50.5888   98.6082   26.3563 C   0  0  0  0  0  0
   52.8435   97.4139   34.9539 H   0  0  0  0  0  0
   52.5755   98.5483   33.6324 H   0  0  0  0  0  0
   54.0650   98.6284   34.6056 H   0  0  0  0  0  0
   51.3844  101.0386   37.2020 H   0  0  0  0  0  0
   51.5499  103.5003   37.0618 H   0  0  0  0  0  0
   52.7212  104.5574   35.1663 H   0  0  0  0  0  0
   53.5766  100.6970   33.5364 H   0  0  0  0  0  0
   53.7598  104.4132   33.0337 H   0  0  0  0  0  0
   55.8855  103.5444   33.9546 H   0  0  0  0  0  0
   55.6427  102.0258   33.0886 H   0  0  0  0  0  0
   55.9467  103.5044   32.1938 H   0  0  0  0  0  0
   54.0989  102.5635   31.0533 H   0  0  0  0  0  0
   52.8680  100.3873   30.6171 H   0  0  0  0  0  0
   52.1923   99.1392   28.6330 H   0  0  0  0  0  0
   49.9909  102.5552   27.2358 H   0  0  0  0  0  0
   49.6383  101.5043   25.1957 H   0  0  0  0  0  0
   49.1872   99.5032   23.7837 H   0  0  0  0  0  0
   51.0048   97.8576   27.0125 H   0  0  0  0  0  0
  1  2  1  0  0  0
  1 26  1  0  0  0
  1 27  1  0  0  0
  1 28  1  0  0  0
  2  3  1  0  0  0
  3  4  2  0  0  0
  3  8  1  0  0  0
  4  5  1  0  0  0
  4 29  1  0  0  0
  5  6  2  0  0  0
  5 30  1  0  0  0
  6  7  1  0  0  0
  6 31  1  0  0  0
  7  8  2  0  0  0
  7  9  1  0  0  0
  8 32  1  0  0  0
  9 10  1  0  0  0
  9 11  1  0  0  0
  9 33  1  0  0  0
 10 34  1  0  0  0
 10 35  1  0  0  0
 10 36  1  0  0  0
 11 12  1  0  0  0
 11 37  1  0  0  0
 12 13  2  0  0  0
 12 14  1  0  0  0
 14 15  2  0  0  0
 14 19  1  0  0  0
 15 16  1  0  0  0
 15 38  1  0  0  0
 16 17  2  0  0  0
 16 39  1  0  0  0
 17 18  1  0  0  0
 17 21  1  0  0  0
 18 19  2  0  0  0
 18 40  1  0  0  0
 19 20  1  0  0  0
 21 22  2  0  0  0
 21 25  1  0  0  0
 22 23  1  0  0  0
 22 41  1  0  0  0
 23 24  1  0  0  0
 23 42  1  0  0  0
 24 25  2  0  0  0
 25 43  1  0  0  0
M  END
> <s_m_entry_id>
28236

> <s_m_entry_name>
dock_pv.397

> <s_m_Source_Path>
/home/csk/Desktop/cluster/DUD-E-result/rock1

> <s_m_Source_File>
dock_pv.maegz

> <i_m_Source_File_Index>
397

> <chembl_id>
CHEMBL4110256

> <chembl_pref_name>
None

> <i_lp_mmshare_version>
53161

> <r_lp_tautomer_probability>
0.5

> <s_lp_Force_Field>
OPLS_2005

> <r_lp_Energy>
20.949449

> <b_lp_Chiralities_Consistent>
1

> <s_lp_Variant>
CHEMBL3231_lig637-1

> <s_i_glide_gridfile>
glide-grid_2etr

> <i_i_glide_lignum>
925

> <i_i_glide_rotatable_bonds>
6

> <r_i_docking_score>
-7.546789020264

> <r_i_glide_ligand_efficiency>
-0.30187156081056

> <r_i_glide_ligand_efficiency_sa>
-0.882677797525005

> <r_i_glide_ligand_efficiency_ln>
-1.78881515681959

> <r_i_glide_gscore>
-7.546789020264

> <r_i_glide_lipo>
-2.01048951589875

> <r_i_glide_hbond>
-0.69390161252176

> <r_i_glide_metal>
0

> <r_i_glide_rewards>
-1.94461269672164

> <r_i_glide_evdw>
-36.6247329711914

> <r_i_glide_ecoul>
-10.3981161117554

> <r_i_glide_erotb>
0.57510212338426

> <r_i_glide_esite>
-0.0819332531832421

> <r_i_glide_emodel>
-66.7100954775535

> <r_i_glide_energy>
-47.0228490829468

> <r_i_glide_einternal>
5.49718189239502

> <i_i_glide_confnum>
13

> <i_i_glide_posenum>
243

> <r_i_glide_eff_state_penalty>
0

> <s_user_duplicate_titles>
CHEMBL3231_lig637

> <i_f3d_flags>
0

> <s_m_subgroup_title>
dock_pv

> <s_m_subgroupid>
dock_pv

> <b_m_subgroup_collapsed>
1

$$$$
CHEMBL3231_lig315
                    3D
 Schrodinger Suite 2021-1.
 62 66  0  0  1  0            999 V2000
   50.8713  101.9530   28.2367 C   0  0  0  0  0  0
   50.9745  100.5636   28.1001 C   0  0  0  0  0  0
   51.4541   99.7781   29.1575 C   0  0  0  0  0  0
   51.2282  102.6061   29.4152 C   0  0  0  0  0  0
   51.6616  101.8411   30.5044 C   0  0  0  0  0  0
   51.7717  100.4327   30.3523 C   0  0  0  0  0  0
   52.2169   99.9493   31.5645 N   0  0  0  0  0  0
   52.3475  100.9503   32.5053 C   0  0  0  0  0  0
   52.0592  102.1461   31.8450 C   0  0  0  0  0  0
   52.8235  100.6621   33.8536 C   0  0  0  0  0  0
   53.4030   99.5912   34.0507 O   0  0  0  0  0  0
   52.6655  101.5868   34.8467 N   0  0  0  0  0  0
   53.4684  101.4775   36.0872 C   0  0  0  0  0  0
   54.0807  102.7890   36.5813 C   0  0  0  0  0  0
   54.4545  103.7948   35.6790 C   0  0  0  0  0  0
   54.8997  105.0446   36.1344 C   0  0  0  0  0  0
   55.0078  105.2575   37.5098 C   0  0  0  0  0  0
   54.6719  104.2513   38.4155 C   0  0  0  0  0  0
   54.2033  103.0223   37.9530 C   0  0  0  0  0  0
   50.5418   99.9146   26.8234 C   0  0  0  0  0  0
   50.0332  100.5282   25.6878 C   0  0  0  0  0  0
   49.7362   99.5282   24.8070 N   0  0  0  0  0  0
   50.0437   98.3151   25.2718 N   0  0  0  0  0  0
   50.5301   98.5494   26.4701 C   0  0  0  0  0  0
   55.2425  106.0961   35.3087 O   0  0  0  0  0  0
   55.0841  105.9496   33.8981 C   0  0  0  0  0  0
   51.5923  102.6008   34.9231 C   0  0  0  0  0  0
   50.1592  102.0374   34.9213 C   0  0  0  0  0  0
   49.1805  103.1261   34.9647 N   0  0  0  0  0  0
   49.1921  103.9025   36.2004 C   0  0  0  0  0  0
   47.8733  104.6761   36.2064 C   0  0  0  0  0  0
   46.9614  103.8635   35.2895 C   0  0  0  0  0  0
   47.8059  102.6532   34.9049 C   0  0  0  0  0  0
   50.5116  102.5515   27.4137 H   0  0  0  0  0  0
   51.5444   98.7073   29.0674 H   0  0  0  0  0  0
   51.1573  103.6792   29.4829 H   0  0  0  0  0  0
   52.4290   98.9864   31.7954 H   0  0  0  0  0  0
   52.1473  103.1399   32.2482 H   0  0  0  0  0  0
   54.2912  100.7679   35.9694 H   0  0  0  0  0  0
   52.8256  101.0668   36.8674 H   0  0  0  0  0  0
   54.3627  103.6013   34.6217 H   0  0  0  0  0  0
   55.3489  106.2143   37.8755 H   0  0  0  0  0  0
   54.7632  104.4332   39.4759 H   0  0  0  0  0  0
   53.9242  102.2588   38.6616 H   0  0  0  0  0  0
   49.8255  101.5584   25.4430 H   0  0  0  0  0  0
   49.3257   99.6679   23.8873 H   0  0  0  0  0  0
   50.8589   97.7314   27.0928 H   0  0  0  0  0  0
   55.3797  106.8704   33.3967 H   0  0  0  0  0  0
   55.7075  105.1448   33.5048 H   0  0  0  0  0  0
   54.0454  105.7498   33.6296 H   0  0  0  0  0  0
   51.7090  103.1756   35.8415 H   0  0  0  0  0  0
   51.7093  103.3498   34.1495 H   0  0  0  0  0  0
   50.0024  101.4578   34.0122 H   0  0  0  0  0  0
   50.0173  101.3633   35.7701 H   0  0  0  0  0  0
   49.3111  103.2745   37.0868 H   0  0  0  0  0  0
   50.0508  104.5741   36.2005 H   0  0  0  0  0  0
   47.4644  104.7383   37.2128 H   0  0  0  0  0  0
   48.0080  105.6960   35.8411 H   0  0  0  0  0  0
   46.6654  104.4295   34.4091 H   0  0  0  0  0  0
   46.0420  103.5622   35.7857 H   0  0  0  0  0  0
   47.5873  102.3042   33.8982 H   0  0  0  0  0  0
   47.6436  101.7974   35.5589 H   0  0  0  0  0  0
  1  4  1  0  0  0
  1  2  2  0  0  0
  1 34  1  0  0  0
  2 20  1  0  0  0
  2  3  1  0  0  0
  3  6  2  0  0  0
  3 35  1  0  0  0
  4  5  2  0  0  0
  4 36  1  0  0  0
  5  9  1  0  0  0
  5  6  1  0  0  0
  6  7  1  0  0  0
  7  8  1  0  0  0
  7 37  1  0  0  0
  8  9  2  0  0  0
  8 10  1  0  0  0
  9 38  1  0  0  0
 10 11  2  0  0  0
 10 12  1  0  0  0
 12 27  1  0  0  0
 12 13  1  0  0  0
 13 14  1  0  0  0
 13 39  1  0  0  0
 13 40  1  0  0  0
 14 19  1  0  0  0
 14 15  2  0  0  0
 15 16  1  0  0  0
 15 41  1  0  0  0
 16 17  2  0  0  0
 16 25  1  0  0  0
 17 18  1  0  0  0
 17 42  1  0  0  0
 18 19  2  0  0  0
 18 43  1  0  0  0
 19 44  1  0  0  0
 20 21  2  0  0  0
 20 24  1  0  0  0
 21 22  1  0  0  0
 21 45  1  0  0  0
 22 23  1  0  0  0
 22 46  1  0  0  0
 23 24  2  0  0  0
 24 47  1  0  0  0
 25 26  1  0  0  0
 26 48  1  0  0  0
 26 49  1  0  0  0
 26 50  1  0  0  0
 27 28  1  0  0  0
 27 51  1  0  0  0
 27 52  1  0  0  0
 28 29  1  0  0  0
 28 53  1  0  0  0
 28 54  1  0  0  0
 29 30  1  0  0  0
 29 33  1  0  0  0
 30 31  1  0  0  0
 30 55  1  0  0  0
 30 56  1  0  0  0
 31 32  1  0  0  0
 31 57  1  0  0  0
 31 58  1  0  0  0
 32 33  1  0  0  0
 32 59  1  0  0  0
 32 60  1  0  0  0
 33 61  1  0  0  0
 33 62  1  0  0  0
M  END
> <s_m_entry_id>
28237

> <s_m_entry_name>
dock_pv.398

> <s_m_Source_Path>
/home/csk/Desktop/cluster/DUD-E-result/rock1

> <s_m_Source_File>
dock_pv.maegz

> <i_m_Source_File_Index>
398

> <chembl_id>
CHEMBL1922032

> <chembl_pref_name>
None

> <i_lp_mmshare_version>
53161

> <r_lp_tautomer_probability>
0.5

> <s_lp_Force_Field>
OPLS_2005

> <r_lp_Energy>
48.61441

> <b_lp_Chiralities_Consistent>
1

> <s_lp_Variant>
CHEMBL3231_lig315-1

> <s_i_glide_gridfile>
glide-grid_2etr

> <i_i_glide_lignum>
463

> <i_i_glide_rotatable_bonds>
9

> <r_i_docking_score>
-7.54644941743077

> <r_i_glide_ligand_efficiency>
-0.22868028537669

> <r_i_glide_ligand_efficiency_sa>
-0.73349986508408

> <r_i_glide_ligand_efficiency_ln>
-1.67829127701269

> <r_i_glide_gscore>
-7.54644941743077

> <r_i_glide_lipo>
-3.00473069235359

> <r_i_glide_hbond>
-0.650847221395593

> <r_i_glide_metal>
0

> <r_i_glide_rewards>
-1.2241910215604

> <r_i_glide_evdw>
-46.765510559082

> <r_i_glide_ecoul>
-5.4775333404541

> <r_i_glide_erotb>
0.497962353435807

> <r_i_glide_esite>
-0.00473730653477469

> <r_i_glide_emodel>
-69.7797164442447

> <r_i_glide_energy>
-52.2430438995361

> <r_i_glide_einternal>
12.0548419952393

> <i_i_glide_confnum>
9

> <i_i_glide_posenum>
17

> <r_i_glide_eff_state_penalty>
0

> <s_user_duplicate_titles>
CHEMBL3231_lig315

> <i_f3d_flags>
0

> <s_m_subgroup_title>
dock_pv

> <s_m_subgroupid>
dock_pv

> <b_m_subgroup_collapsed>
1

$$$$
CHEMBL3231_lig267
                    3D
 Schrodinger Suite 2021-1.
 33 35  0  0  1  0            999 V2000
   50.0432   98.8210   25.0632 N   0  0  0  0  0  0
   50.1497  100.1714   25.1196 C   0  0  0  0  0  0
   50.5962  100.8643   26.2490 C   0  0  0  0  0  0
   50.3863   98.1225   26.1677 C   0  0  0  0  0  0
   50.8444   98.7052   27.3705 C   0  0  0  0  0  0
   50.9569  100.1275   27.4101 C   0  0  0  0  0  0
   51.4160  100.7474   28.6038 C   0  0  0  0  0  0
   51.7475   99.9712   29.7265 C   0  0  0  0  0  0
   51.6423   98.5878   29.6593 C   0  0  0  0  0  0
   51.1910   97.9487   28.5095 C   0  0  0  0  0  0
   52.1690  100.4644   30.9463 O   0  0  0  0  0  0
   52.2561  101.8653   31.1914 C   0  0  2  0  0  0
   53.5830  102.4725   30.6631 C   0  0  0  0  0  0
   53.6477  103.9010   30.9806 N   0  0  1  0  0  0
   53.6287  104.1189   32.4279 C   0  0  0  0  0  0
   52.3278  103.5676   33.0436 C   0  0  0  0  0  0
   52.1338  102.0761   32.7138 C   0  0  0  0  0  0
   49.8654  100.7011   24.2205 H   0  0  0  0  0  0
   50.6658  101.9430   26.2457 H   0  0  0  0  0  0
   50.2929   97.0479   26.1036 H   0  0  0  0  0  0
   51.5046  101.8209   28.6255 H   0  0  0  0  0  0
   51.9088   97.9968   30.5225 H   0  0  0  0  0  0
   51.1104   96.8741   28.4915 H   0  0  0  0  0  0
   51.4062  102.3680   30.7271 H   0  0  0  0  0  0
   54.4390  101.9478   31.0953 H   0  0  0  0  0  0
   53.6622  102.3466   29.5833 H   0  0  0  0  0  0
   54.5110  104.3177   30.6333 H   0  0  0  0  0  0
   53.7395  105.1810   32.6374 H   0  0  0  0  0  0
   54.4941  103.6231   32.8711 H   0  0  0  0  0  0
   51.4873  104.1650   32.6936 H   0  0  0  0  0  0
   52.3474  103.7110   34.1239 H   0  0  0  0  0  0
   51.1551  101.7541   33.0752 H   0  0  0  0  0  0
   52.9108  101.5138   33.2359 H   0  0  0  0  0  0
  1  4  1  0  0  0
  1  2  2  0  0  0
  2  3  1  0  0  0
  2 18  1  0  0  0
  3  6  2  0  0  0
  3 19  1  0  0  0
  4  5  2  0  0  0
  4 20  1  0  0  0
  5 10  1  0  0  0
  5  6  1  0  0  0
  6  7  1  0  0  0
  7  8  2  0  0  0
  7 21  1  0  0  0
  8  9  1  0  0  0
  8 11  1  0  0  0
  9 10  2  0  0  0
  9 22  1  0  0  0
 10 23  1  0  0  0
 11 12  1  0  0  0
 12 13  1  0  0  0
 12 17  1  0  0  0
 12 24  1  0  0  0
 13 14  1  0  0  0
 13 25  1  0  0  0
 13 26  1  0  0  0
 14 15  1  0  0  0
 14 27  1  0  0  0
 15 16  1  0  0  0
 15 28  1  0  0  0
 15 29  1  0  0  0
 16 17  1  0  0  0
 16 30  1  0  0  0
 16 31  1  0  0  0
 17 32  1  0  0  0
 17 33  1  0  0  0
M  END
> <s_m_entry_id>
28238

> <s_m_entry_name>
dock_pv.399

> <s_m_Source_Path>
/home/csk/Desktop/cluster/DUD-E-result/rock1

> <s_m_Source_File>
dock_pv.maegz

> <i_m_Source_File_Index>
399

> <chembl_id>
CHEMBL1667964

> <chembl_pref_name>
None

> <i_lp_mmshare_version>
53161

> <r_lp_tautomer_probability>
1

> <s_lp_Force_Field>
OPLS_2005

> <r_lp_Energy>
22.714264

> <b_lp_Chiralities_Consistent>
1

> <s_lp_Variant>
CHEMBL3231_lig267-1

> <s_i_glide_gridfile>
glide-grid_2etr

> <i_i_glide_lignum>
412

> <i_i_glide_rotatable_bonds>
2

> <r_i_docking_score>
-7.54305452024305

> <r_i_glide_ligand_efficiency>
-0.443709089426062

> <r_i_glide_ligand_efficiency_sa>
-1.14090101217149

> <r_i_glide_ligand_efficiency_ln>
-1.96781494876598

> <r_i_glide_gscore>
-7.54305452024305

> <r_i_glide_lipo>
-2.35532235038282

> <r_i_glide_hbond>
-0.338827949908481

> <r_i_glide_metal>
0

> <r_i_glide_rewards>
-3.25255314437824

> <r_i_glide_evdw>
-31.1316547393799

> <r_i_glide_ecoul>
-4.62386703491211

> <r_i_glide_erotb>
0.65381171663229

> <r_i_glide_esite>
0

> <r_i_glide_emodel>
-52.3790661489373

> <r_i_glide_energy>
-35.755521774292

> <r_i_glide_einternal>
0.174538269639015

> <i_i_glide_confnum>
4

> <i_i_glide_posenum>
206

> <r_i_glide_eff_state_penalty>
0

> <s_user_duplicate_titles>
CHEMBL3231_lig267

> <i_f3d_flags>
0

> <s_m_subgroup_title>
dock_pv

> <s_m_subgroupid>
dock_pv

> <b_m_subgroup_collapsed>
1

$$$$
CHEMBL3231_lig646
                    3D
 Schrodinger Suite 2021-1.
 43 45  0  0  1  0            999 V2000
   51.5666   97.7975   30.4709 C   0  0  0  0  0  0
   51.2727   98.5042   29.2664 O   0  0  0  0  0  0
   51.4120   99.8816   29.2246 C   0  0  0  0  0  0
   51.8817  100.6354   30.3182 C   0  0  0  0  0  0
   51.9786  102.0348   30.2657 C   0  0  0  0  0  0
   51.5667  102.6797   29.0999 C   0  0  0  0  0  0
   51.1106  101.9508   28.0114 C   0  0  0  0  0  0
   51.0352  100.5559   28.0443 C   0  0  0  0  0  0
   50.5310   99.8843   26.7972 C   0  0  0  0  0  0
   49.9095  100.4874   25.7075 C   0  0  0  0  0  0
   49.6431   99.4988   24.8096 N   0  0  0  0  0  0
   50.0431   98.3017   25.2259 N   0  0  0  0  0  0
   50.5712   98.5318   26.4089 C   0  0  0  0  0  0
   52.4261  102.8824   31.4409 C   0  0  0  0  0  0
   51.7474  103.8836   31.7004 O   0  0  0  0  0  0
   53.5560  102.5711   32.1393 N   0  0  0  0  0  0
   53.9924  103.3959   33.2764 C   0  0  0  0  0  0
   54.4509  101.4252   31.8897 C   0  0  0  0  0  0
   54.2736  100.1976   32.7893 C   0  0  0  0  0  0
   55.2085   99.1652   32.6809 C   0  0  0  0  0  0
   55.0822   98.0162   33.4574 C   0  0  0  0  0  0
   54.0229   97.9037   34.3560 C   0  0  0  0  0  0
   53.0915   98.9325   34.4864 C   0  0  0  0  0  0
   53.2150  100.0777   33.7032 C   0  0  0  0  0  0
   51.3565   96.7367   30.3303 H   0  0  0  0  0  0
   52.6189   97.8967   30.7446 H   0  0  0  0  0  0
   50.9478   98.1421   31.3016 H   0  0  0  0  0  0
   52.1385  100.1316   31.2309 H   0  0  0  0  0  0
   51.6062  103.7565   29.0227 H   0  0  0  0  0  0
   50.8206  102.5005   27.1314 H   0  0  0  0  0  0
   49.6405  101.5105   25.4908 H   0  0  0  0  0  0
   49.2064   99.6400   23.9022 H   0  0  0  0  0  0
   50.9980   97.7226   26.9834 H   0  0  0  0  0  0
   54.9964  103.7794   33.0904 H   0  0  0  0  0  0
   53.3482  104.2553   33.4666 H   0  0  0  0  0  0
   54.0256  102.8018   34.1885 H   0  0  0  0  0  0
   55.4790  101.7704   32.0101 H   0  0  0  0  0  0
   54.3905  101.1026   30.8498 H   0  0  0  0  0  0
   56.0394   99.2433   31.9927 H   0  0  0  0  0  0
   55.8090   97.2207   33.3611 H   0  0  0  0  0  0
   53.9308   97.0117   34.9584 H   0  0  0  0  0  0
   52.2775   98.8430   35.1902 H   0  0  0  0  0  0
   52.4819  100.8630   33.8101 H   0  0  0  0  0  0
  1  2  1  0  0  0
  1 25  1  0  0  0
  1 26  1  0  0  0
  1 27  1  0  0  0
  2  3  1  0  0  0
  3  4  2  0  0  0
  3  8  1  0  0  0
  4  5  1  0  0  0
  4 28  1  0  0  0
  5  6  2  0  0  0
  5 14  1  0  0  0
  6  7  1  0  0  0
  6 29  1  0  0  0
  7  8  2  0  0  0
  7 30  1  0  0  0
  8  9  1  0  0  0
  9 10  2  0  0  0
  9 13  1  0  0  0
 10 11  1  0  0  0
 10 31  1  0  0  0
 11 12  1  0  0  0
 11 32  1  0  0  0
 12 13  2  0  0  0
 13 33  1  0  0  0
 14 15  2  0  0  0
 14 16  1  0  0  0
 16 17  1  0  0  0
 16 18  1  0  0  0
 17 34  1  0  0  0
 17 35  1  0  0  0
 17 36  1  0  0  0
 18 19  1  0  0  0
 18 37  1  0  0  0
 18 38  1  0  0  0
 19 20  2  0  0  0
 19 24  1  0  0  0
 20 21  1  0  0  0
 20 39  1  0  0  0
 21 22  2  0  0  0
 21 40  1  0  0  0
 22 23  1  0  0  0
 22 41  1  0  0  0
 23 24  2  0  0  0
 23 42  1  0  0  0
 24 43  1  0  0  0
M  END
> <s_m_entry_id>
28239

> <s_m_entry_name>
dock_pv.400

> <s_m_Source_Path>
/home/csk/Desktop/cluster/DUD-E-result/rock1

> <s_m_Source_File>
dock_pv.maegz

> <i_m_Source_File_Index>
400

> <chembl_id>
CHEMBL3904808

> <chembl_pref_name>
None

> <i_lp_mmshare_version>
53161

> <r_lp_tautomer_probability>
0.5

> <s_lp_Force_Field>
OPLS_2005

> <r_lp_Energy>
31.090992

> <b_lp_Chiralities_Consistent>
1

> <s_lp_Variant>
CHEMBL3231_lig646-1

> <s_i_glide_gridfile>
glide-grid_2etr

> <i_i_glide_lignum>
935

> <i_i_glide_rotatable_bonds>
6

> <r_i_docking_score>
-7.53627956295836

> <r_i_glide_ligand_efficiency>
-0.314011648456599

> <r_i_glide_ligand_efficiency_sa>
-0.905766329156576

> <r_i_glide_ligand_efficiency_ln>
-1.80377751675132

> <r_i_glide_gscore>
-7.53627956295836

> <r_i_glide_lipo>
-1.94129494233068

> <r_i_glide_hbond>
-0.668578861726988

> <r_i_glide_metal>
0

> <r_i_glide_rewards>
-2.17500631757727

> <r_i_glide_evdw>
-37.6156387329102

> <r_i_glide_ecoul>
-8.73366546630859

> <r_i_glide_erotb>
0.506579815712268

> <r_i_glide_esite>
-0.0671475004438937

> <r_i_glide_emodel>
-66.4294042608382

> <r_i_glide_energy>
-46.3493041992188

> <r_i_glide_einternal>
2.70549201965332

> <i_i_glide_confnum>
19

> <i_i_glide_posenum>
70

> <r_i_glide_eff_state_penalty>
0

> <s_user_duplicate_titles>
CHEMBL3231_lig646

> <i_f3d_flags>
0

> <s_m_subgroup_title>
dock_pv

> <s_m_subgroupid>
dock_pv

> <b_m_subgroup_collapsed>
1

$$$$
CHEMBL3231_lig515
                    3D
 Schrodinger Suite 2021-1.
 60 64  0  0  1  0            999 V2000
   52.4582  102.7360   34.1397 C   0  0  1  0  0  0
   52.5989  102.7866   32.6086 C   0  0  0  0  0  0
   53.5550  103.5524   32.0451 C   0  0  0  0  0  0
   54.4436  104.2405   32.8110 N   0  0  0  0  0  0
   54.5484  104.1706   34.1601 C   0  0  0  0  0  0
   53.7216  103.2566   34.7411 N   0  0  0  0  0  0
   55.2436  104.9387   34.8206 O   0  0  0  0  0  0
   53.8282  103.6084   30.5416 C   0  0  0  0  0  0
   51.6458  102.1092   31.7743 C   0  0  0  0  0  0
   52.0827  100.8916   31.3995 N   0  0  0  0  0  0
   50.6637  102.7030   31.3287 O   0  0  0  0  0  0
   51.6430  100.1312   30.3094 C   0  0  0  0  0  0
   51.3272  100.7147   29.0715 C   0  0  0  0  0  0
   51.2431   97.8926   29.4366 C   0  0  0  0  0  0
   51.6118   98.7473   30.4744 C   0  0  0  0  0  0
   50.9534   98.4739   28.1995 C   0  0  0  0  0  0
   50.9865   99.8754   27.9984 C   0  0  0  0  0  0
   50.6276  100.0379   26.6253 C   0  0  0  0  0  0
   50.4035   98.8857   26.0448 N   0  0  0  0  0  0
   50.5933   97.9360   26.9794 N   0  0  0  0  0  0
   51.1944  103.3934   34.7004 C   0  0  0  0  0  0
   51.0557  104.7862   34.6959 C   0  0  0  0  0  0
   49.9279  105.4150   35.2583 C   0  0  0  0  0  0
   48.9328  104.5925   35.8311 C   0  0  0  0  0  0
   49.0631  103.2059   35.8220 C   0  0  0  0  0  0
   50.1857  102.6077   35.2617 C   0  0  0  0  0  0
   47.8225  105.1030   36.4099 F   0  0  0  0  0  0
   49.7869  106.9291   35.2462 C   0  0  0  0  0  0
   50.8419  107.6435   34.8109 N   0  0  0  0  0  0
   48.7446  107.4745   35.6064 O   0  0  0  0  0  0
   50.9109  109.1032   34.7103 C   0  0  0  0  0  0
   52.0549  109.6888   35.5235 C   0  0  0  0  0  0
   53.3814  109.3658   35.2108 C   0  0  0  0  0  0
   54.4315  109.9017   35.9579 C   0  0  0  0  0  0
   54.1618  110.7723   37.0140 C   0  0  0  0  0  0
   52.8428  111.1083   37.3224 C   0  0  0  0  0  0
   51.7922  110.5706   36.5779 C   0  0  0  0  0  0
   52.5821  111.9558   38.3428 F   0  0  0  0  0  0
   52.3946  101.6912   34.4512 H   0  0  0  0  0  0
   55.1349  104.8223   32.3495 H   0  0  0  0  0  0
   53.8120  103.1922   35.7435 H   0  0  0  0  0  0
   53.1588  104.3030   30.0464 H   0  0  0  0  0  0
   54.8431  103.9029   30.3248 H   0  0  0  0  0  0
   53.7041  102.6359   30.0665 H   0  0  0  0  0  0
   52.7991  100.4680   31.9701 H   0  0  0  0  0  0
   51.3723  101.7852   28.9330 H   0  0  0  0  0  0
   51.2120   96.8231   29.5891 H   0  0  0  0  0  0
   51.8703   98.3109   31.4295 H   0  0  0  0  0  0
   50.5357  100.9602   26.0714 H   0  0  0  0  0  0
   50.4801   96.9600   26.7496 H   0  0  0  0  0  0
   51.8518  105.3664   34.2480 H   0  0  0  0  0  0
   48.2909  102.5939   36.2652 H   0  0  0  0  0  0
   50.2707  101.5305   35.2817 H   0  0  0  0  0  0
   51.6223  107.1597   34.3854 H   0  0  0  0  0  0
   49.9725  109.5893   34.9847 H   0  0  0  0  0  0
   51.0755  109.3481   33.6589 H   0  0  0  0  0  0
   53.6000  108.6990   34.3874 H   0  0  0  0  0  0
   55.4540  109.6510   35.7075 H   0  0  0  0  0  0
   54.9734  111.1913   37.5899 H   0  0  0  0  0  0
   50.7757  110.8394   36.8285 H   0  0  0  0  0  0
  1  2  1  0  0  0
  1  6  1  0  0  0
  1 21  1  0  0  0
  1 39  1  0  0  0
  2  3  2  0  0  0
  2  9  1  0  0  0
  3  4  1  0  0  0
  3  8  1  0  0  0
  4  5  1  0  0  0
  4 40  1  0  0  0
  5  6  1  0  0  0
  5  7  2  0  0  0
  6 41  1  0  0  0
  8 42  1  0  0  0
  8 43  1  0  0  0
  8 44  1  0  0  0
  9 10  1  0  0  0
  9 11  2  0  0  0
 10 12  1  0  0  0
 10 45  1  0  0  0
 12 13  2  0  0  0
 12 15  1  0  0  0
 13 17  1  0  0  0
 13 46  1  0  0  0
 14 16  1  0  0  0
 14 15  2  0  0  0
 14 47  1  0  0  0
 15 48  1  0  0  0
 16 17  2  0  0  0
 16 20  1  0  0  0
 17 18  1  0  0  0
 18 19  2  0  0  0
 18 49  1  0  0  0
 19 20  1  0  0  0
 20 50  1  0  0  0
 21 22  2  0  0  0
 21 26  1  0  0  0
 22 23  1  0  0  0
 22 51  1  0  0  0
 23 24  2  0  0  0
 23 28  1  0  0  0
 24 25  1  0  0  0
 24 27  1  0  0  0
 25 26  2  0  0  0
 25 52  1  0  0  0
 26 53  1  0  0  0
 28 29  1  0  0  0
 28 30  2  0  0  0
 29 31  1  0  0  0
 29 54  1  0  0  0
 31 32  1  0  0  0
 31 55  1  0  0  0
 31 56  1  0  0  0
 32 33  2  0  0  0
 32 37  1  0  0  0
 33 34  1  0  0  0
 33 57  1  0  0  0
 34 35  2  0  0  0
 34 58  1  0  0  0
 35 36  1  0  0  0
 35 59  1  0  0  0
 36 37  2  0  0  0
 36 38  1  0  0  0
 37 60  1  0  0  0
M  END
> <s_m_entry_id>
28241

> <s_m_entry_name>
dock_pv.402

> <s_m_Source_Path>
/home/csk/Desktop/cluster/DUD-E-result/rock1

> <s_m_Source_File>
dock_pv.maegz

> <i_m_Source_File_Index>
402

> <chembl_id>
CHEMBL3809100

> <chembl_pref_name>
None

> <i_lp_mmshare_version>
53161

> <r_lp_tautomer_probability>
0.980392156860701

> <s_lp_Force_Field>
OPLS_2005

> <r_lp_Energy>
46.623891

> <b_lp_Chiralities_Consistent>
1

> <s_lp_Variant>
CHEMBL3231_lig515-2

> <s_i_glide_gridfile>
glide-grid_2etr

> <i_i_glide_lignum>
738

> <i_i_glide_rotatable_bonds>
8

> <r_i_docking_score>
-7.53514217496188

> <r_i_glide_ligand_efficiency>
-0.198293215130576

> <r_i_glide_ligand_efficiency_sa>
-0.666656911795751

> <r_i_glide_ligand_efficiency_ln>
-1.62479831434689

> <r_i_glide_gscore>
-7.53514217496188

> <r_i_glide_lipo>
-2.28008448493399

> <r_i_glide_hbond>
-0.410619139285652

> <r_i_glide_metal>
0

> <r_i_glide_rewards>
-0.478148259703747

> <r_i_glide_evdw>
-53.429370880127

> <r_i_glide_ecoul>
-13.4774198532104

> <r_i_glide_erotb>
0.538595342557354

> <r_i_glide_esite>
-0.211804111607923

> <r_i_glide_emodel>
-92.2887031743309

> <r_i_glide_energy>
-66.9067907333374

> <r_i_glide_einternal>
11.3755912780762

> <i_i_glide_confnum>
14

> <i_i_glide_posenum>
73

> <r_i_glide_eff_state_penalty>
0

> <s_user_duplicate_titles>
CHEMBL3231_lig515

> <i_f3d_flags>
0

> <s_m_subgroup_title>
dock_pv

> <s_m_subgroupid>
dock_pv

> <b_m_subgroup_collapsed>
1

$$$$
CHEMBL3231_lig909
                    3D
 Schrodinger Suite 2021-1.
 35 38  0  0  1  0            999 V2000
   53.5296  100.9543   32.9474 C   0  0  0  0  0  0
   54.9717  100.8530   32.4121 C   0  0  0  0  0  0
   55.6380   99.7072   33.1880 C   0  0  0  0  0  0
   54.8561   99.5913   34.5042 C   0  0  0  0  0  0
   53.7749  100.6813   34.4416 C   0  0  0  0  0  0
   52.6194   99.9539   32.3484 N   0  0  0  0  0  0
   52.9661  102.3214   32.7539 N   0  0  0  0  0  0
   52.2332  102.7393   31.6911 C   0  0  0  0  0  0
   52.1953  100.2982   31.0838 C   0  0  0  0  0  0
   52.0387  101.6464   30.7709 C   0  0  0  0  0  0
   51.4186  101.8320   29.1599 S   0  0  0  0  0  0
   51.4029  100.1004   28.8970 C   0  0  0  0  0  0
   51.8543   99.4371   30.0418 C   0  0  0  0  0  0
   50.9248   99.5135   27.6011 C   0  0  0  0  0  0
   50.5083  100.2956   26.5102 C   0  0  0  0  0  0
   50.0753   99.6626   25.3434 C   0  0  0  0  0  0
   50.0430   98.3142   25.2106 N   0  0  0  0  0  0
   50.4434   97.5626   26.2618 C   0  0  0  0  0  0
   50.8817   98.1183   27.4618 C   0  0  0  0  0  0
   51.8290  103.8968   31.6096 O   0  0  0  0  0  0
   55.5191  101.7783   32.6035 H   0  0  0  0  0  0
   55.0138  100.6922   31.3335 H   0  0  0  0  0  0
   56.6986   99.9015   33.3566 H   0  0  0  0  0  0
   55.5748   98.7753   32.6225 H   0  0  0  0  0  0
   55.5036   99.7189   35.3725 H   0  0  0  0  0  0
   54.4005   98.6034   34.5842 H   0  0  0  0  0  0
   52.8656  100.3930   34.9710 H   0  0  0  0  0  0
   54.1542  101.5783   34.9360 H   0  0  0  0  0  0
   52.8001   98.9906   32.5918 H   0  0  0  0  0  0
   53.2914  103.0490   33.3705 H   0  0  0  0  0  0
   51.9250   98.3639   30.1327 H   0  0  0  0  0  0
   50.5152  101.3742   26.5524 H   0  0  0  0  0  0
   49.7462  100.2372   24.4883 H   0  0  0  0  0  0
   50.4220   96.4909   26.1278 H   0  0  0  0  0  0
   51.1896   97.4598   28.2595 H   0  0  0  0  0  0
  1  2  1  0  0  0
  1  5  1  0  0  0
  1  6  1  0  0  0
  1  7  1  0  0  0
  2  3  1  0  0  0
  2 21  1  0  0  0
  2 22  1  0  0  0
  3  4  1  0  0  0
  3 23  1  0  0  0
  3 24  1  0  0  0
  4  5  1  0  0  0
  4 25  1  0  0  0
  4 26  1  0  0  0
  5 27  1  0  0  0
  5 28  1  0  0  0
  6  9  1  0  0  0
  6 29  1  0  0  0
  7  8  1  0  0  0
  7 30  1  0  0  0
  8 10  1  0  0  0
  8 20  2  0  0  0
  9 10  2  0  0  0
  9 13  1  0  0  0
 10 11  1  0  0  0
 11 12  1  0  0  0
 12 13  2  0  0  0
 12 14  1  0  0  0
 13 31  1  0  0  0
 14 15  2  0  0  0
 14 19  1  0  0  0
 15 16  1  0  0  0
 15 32  1  0  0  0
 16 17  2  0  0  0
 16 33  1  0  0  0
 17 18  1  0  0  0
 18 19  2  0  0  0
 18 34  1  0  0  0
 19 35  1  0  0  0
M  END
> <s_m_entry_id>
28242

> <s_m_entry_name>
dock_pv.403

> <s_m_Source_Path>
/home/csk/Desktop/cluster/DUD-E-result/rock1

> <s_m_Source_File>
dock_pv.maegz

> <i_m_Source_File_Index>
403

> <chembl_id>
CHEMBL4211971

> <chembl_pref_name>
None

> <i_lp_mmshare_version>
53161

> <r_lp_tautomer_probability>
0.99999637101317

> <s_lp_Force_Field>
OPLS_2005

> <r_lp_Energy>
37.074222

> <b_lp_Chiralities_Consistent>
1

> <s_lp_Variant>
CHEMBL3231_lig909-1

> <s_i_glide_gridfile>
glide-grid_2etr

> <i_i_glide_lignum>
1303

> <i_i_glide_rotatable_bonds>
1

> <r_i_docking_score>
-7.53379448963842

> <r_i_glide_ligand_efficiency>
-0.376689724481921

> <r_i_glide_ligand_efficiency_sa>
-1.02249322310297

> <r_i_glide_ligand_efficiency_ln>
-1.88546027958413

> <r_i_glide_gscore>
-7.53379448963842

> <r_i_glide_lipo>
-2.06578086408872

> <r_i_glide_hbond>
-0.376568951706098

> <r_i_glide_metal>
0

> <r_i_glide_rewards>
-2.83008643939394

> <r_i_glide_evdw>
-33.7541618347168

> <r_i_glide_ecoul>
-4.84376096725464

> <r_i_glide_erotb>
0.222788538971915

> <r_i_glide_esite>
-0.0698745365975409

> <r_i_glide_emodel>
-56.8348414070438

> <r_i_glide_energy>
-38.5979228019714

> <r_i_glide_einternal>
0.529237747192383

> <i_i_glide_confnum>
6

> <i_i_glide_posenum>
285

> <r_i_glide_eff_state_penalty>
0

> <s_user_duplicate_titles>
CHEMBL3231_lig909

> <i_f3d_flags>
0

> <s_m_subgroup_title>
dock_pv

> <s_m_subgroupid>
dock_pv

> <b_m_subgroup_collapsed>
1

$$$$
CHEMBL3231_lig908
                    3D
 Schrodinger Suite 2021-1.
 38 41  0  0  1  0            999 V2000
   53.5704  101.0717   32.8380 C   0  0  0  0  0  0
   52.6045  100.1388   33.6260 C   0  0  0  0  0  0
   53.2351   98.7585   33.9295 C   0  0  0  0  0  0
   54.5790   98.8950   34.6798 C   0  0  0  0  0  0
   55.5446   99.8949   34.0065 C   0  0  0  0  0  0
   54.8438  101.2412   33.7019 C   0  0  0  0  0  0
   53.9269  100.4964   31.5242 N   0  0  0  0  0  0
   52.9507  102.4122   32.6502 N   0  0  0  0  0  0
   52.1943  102.8078   31.5966 C   0  0  0  0  0  0
   52.9535  100.6417   30.5644 C   0  0  0  0  0  0
   52.1430  101.7724   30.5981 C   0  0  0  0  0  0
   51.1006  101.8248   29.2096 S   0  0  0  0  0  0
   51.6632  100.2646   28.6690 C   0  0  0  0  0  0
   52.6639   99.7806   29.5102 C   0  0  0  0  0  0
   51.0742   99.6179   27.4637 C   0  0  0  0  0  0
   50.6384  100.3490   26.3491 C   0  0  0  0  0  0
   50.1312   99.6569   25.2477 C   0  0  0  0  0  0
   50.0420   98.3036   25.2110 N   0  0  0  0  0  0
   50.4444   97.6073   26.2996 C   0  0  0  0  0  0
   50.9664   98.2224   27.4350 C   0  0  0  0  0  0
   51.6430  103.9029   31.5930 O   0  0  0  0  0  0
   51.6532  100.0258   33.1040 H   0  0  0  0  0  0
   52.3639  100.5998   34.5860 H   0  0  0  0  0  0
   53.3892   98.2087   32.9996 H   0  0  0  0  0  0
   52.5452   98.1563   34.5207 H   0  0  0  0  0  0
   55.0583   97.9188   34.7662 H   0  0  0  0  0  0
   54.3838   99.2249   35.7012 H   0  0  0  0  0  0
   55.9438   99.4628   33.0874 H   0  0  0  0  0  0
   56.4110  100.0644   34.6487 H   0  0  0  0  0  0
   54.5752  101.6815   34.6641 H   0  0  0  0  0  0
   55.5361  101.9442   33.2355 H   0  0  0  0  0  0
   54.5626   99.7112   31.5580 H   0  0  0  0  0  0
   52.9995  103.0619   33.4185 H   0  0  0  0  0  0
   53.1795   98.8452   29.3554 H   0  0  0  0  0  0
   50.7045  101.4270   26.3257 H   0  0  0  0  0  0
   49.7921  100.1861   24.3679 H   0  0  0  0  0  0
   50.3647   96.5313   26.2464 H   0  0  0  0  0  0
   51.2796   97.6195   28.2752 H   0  0  0  0  0  0
  1  2  1  0  0  0
  1  6  1  0  0  0
  1  7  1  0  0  0
  1  8  1  0  0  0
  2  3  1  0  0  0
  2 22  1  0  0  0
  2 23  1  0  0  0
  3  4  1  0  0  0
  3 24  1  0  0  0
  3 25  1  0  0  0
  4  5  1  0  0  0
  4 26  1  0  0  0
  4 27  1  0  0  0
  5  6  1  0  0  0
  5 28  1  0  0  0
  5 29  1  0  0  0
  6 30  1  0  0  0
  6 31  1  0  0  0
  7 10  1  0  0  0
  7 32  1  0  0  0
  8  9  1  0  0  0
  8 33  1  0  0  0
  9 11  1  0  0  0
  9 21  2  0  0  0
 10 11  2  0  0  0
 10 14  1  0  0  0
 11 12  1  0  0  0
 12 13  1  0  0  0
 13 14  2  0  0  0
 13 15  1  0  0  0
 14 34  1  0  0  0
 15 16  2  0  0  0
 15 20  1  0  0  0
 16 17  1  0  0  0
 16 35  1  0  0  0
 17 18  2  0  0  0
 17 36  1  0  0  0
 18 19  1  0  0  0
 19 20  2  0  0  0
 19 37  1  0  0  0
 20 38  1  0  0  0
M  END
> <s_m_entry_id>
28243

> <s_m_entry_name>
dock_pv.404

> <s_m_Source_Path>
/home/csk/Desktop/cluster/DUD-E-result/rock1

> <s_m_Source_File>
dock_pv.maegz

> <i_m_Source_File_Index>
404

> <chembl_id>
CHEMBL4207094

> <chembl_pref_name>
None

> <i_lp_mmshare_version>
53161

> <r_lp_tautomer_probability>
0.99999637101317

> <s_lp_Force_Field>
OPLS_2005

> <r_lp_Energy>
26.23653

> <b_lp_Chiralities_Consistent>
1

> <s_lp_Variant>
CHEMBL3231_lig908-1

> <s_i_glide_gridfile>
glide-grid_2etr

> <i_i_glide_lignum>
1302

> <i_i_glide_rotatable_bonds>
1

> <r_i_docking_score>
-7.53227052589089

> <r_i_glide_ligand_efficiency>
-0.358679548851947

> <r_i_glide_ligand_efficiency_sa>
-0.989569677896854

> <r_i_glide_ligand_efficiency_ln>
-1.8623386671408

> <r_i_glide_gscore>
-7.53227052589089

> <r_i_glide_lipo>
-2.01414213842253

> <r_i_glide_hbond>
-0.389777706251792

> <r_i_glide_metal>
0

> <r_i_glide_rewards>
-2.72611733333333

> <r_i_glide_evdw>
-34.6613693237305

> <r_i_glide_ecoul>
-5.13821458816528

> <r_i_glide_erotb>
0.204893104834327

> <r_i_glide_esite>
-0.103325798306248

> <r_i_glide_emodel>
-58.9183353850021

> <r_i_glide_energy>
-39.7995839118958

> <r_i_glide_einternal>
0.386673748493195

> <i_i_glide_confnum>
4

> <i_i_glide_posenum>
255

> <r_i_glide_eff_state_penalty>
0

> <s_user_duplicate_titles>
CHEMBL3231_lig908

> <i_f3d_flags>
0

> <s_m_subgroup_title>
dock_pv

> <s_m_subgroupid>
dock_pv

> <b_m_subgroup_collapsed>
1

$$$$
CHEMBL3231_lig261
                    3D
 Schrodinger Suite 2021-1.
 31 33  0  0  1  0            999 V2000
   49.6798   99.6929   25.2055 N   0  0  0  0  0  0
   49.7805  101.0091   25.5285 C   0  0  0  0  0  0
   50.4115  101.4988   26.6100 C   0  0  0  0  0  0
   50.1531   98.6891   25.9865 C   0  0  0  0  0  0
   50.7930   99.1626   27.2915 C   0  0  0  0  0  0
   50.9470  100.5344   27.5754 C   0  0  0  0  0  0
   51.5296  100.9433   28.7741 C   0  0  0  0  0  0
   51.9483  100.0014   29.7136 C   0  0  0  0  0  0
   51.7633   98.6374   29.4368 C   0  0  0  0  0  0
   51.2206   98.2207   28.2240 C   0  0  0  0  0  0
   52.5118  100.4963   30.8760 O   0  0  0  0  0  0
   53.0444   99.5960   31.8546 C   0  0  1  0  0  0
   50.0474   97.5239   25.6115 O   0  0  0  0  0  0
   54.2865   98.8480   31.3283 C   0  0  0  0  0  0
   55.2436   98.8563   32.4189 N   0  0  2  0  0  0
   55.0874  100.1739   33.0113 C   0  0  0  0  0  0
   53.5731  100.3891   33.0539 C   0  0  0  0  0  0
   49.2296   99.4052   24.3486 H   0  0  0  0  0  0
   49.2436  101.6091   24.8109 H   0  0  0  0  0  0
   50.4376  102.5630   26.8017 H   0  0  0  0  0  0
   51.6448  101.9938   28.9902 H   0  0  0  0  0  0
   52.0383   97.8780   30.1492 H   0  0  0  0  0  0
   51.1059   97.1613   28.0347 H   0  0  0  0  0  0
   52.2591   98.8984   32.1572 H   0  0  0  0  0  0
   54.7439   99.4130   30.5093 H   0  0  0  0  0  0
   54.0828   97.8366   30.9690 H   0  0  0  0  0  0
   56.1931   98.7072   32.0649 H   0  0  0  0  0  0
   55.5256  100.1674   34.0112 H   0  0  0  0  0  0
   55.5936  100.9447   32.4209 H   0  0  0  0  0  0
   53.1482  100.0457   33.9980 H   0  0  0  0  0  0
   53.3674  101.4569   32.9604 H   0  0  0  0  0  0
  1  4  1  0  0  0
  1  2  1  0  0  0
  1 18  1  0  0  0
  2  3  2  0  0  0
  2 19  1  0  0  0
  3  6  1  0  0  0
  3 20  1  0  0  0
  4  5  1  0  0  0
  4 13  2  0  0  0
  5 10  1  0  0  0
  5  6  2  0  0  0
  6  7  1  0  0  0
  7  8  2  0  0  0
  7 21  1  0  0  0
  8  9  1  0  0  0
  8 11  1  0  0  0
  9 10  2  0  0  0
  9 22  1  0  0  0
 10 23  1  0  0  0
 11 12  1  0  0  0
 12 14  1  0  0  0
 12 17  1  0  0  0
 12 24  1  0  0  0
 14 15  1  0  0  0
 14 25  1  0  0  0
 14 26  1  0  0  0
 15 16  1  0  0  0
 15 27  1  0  0  0
 16 17  1  0  0  0
 16 28  1  0  0  0
 16 29  1  0  0  0
 17 30  1  0  0  0
 17 31  1  0  0  0
M  END
> <s_m_entry_id>
28244

> <s_m_entry_name>
dock_pv.405

> <s_m_Source_Path>
/home/csk/Desktop/cluster/DUD-E-result/rock1

> <s_m_Source_File>
dock_pv.maegz

> <i_m_Source_File_Index>
405

> <chembl_id>
CHEMBL1667973

> <chembl_pref_name>
None

> <i_lp_mmshare_version>
53161

> <r_lp_tautomer_probability>
1

> <s_lp_Force_Field>
OPLS_2005

> <r_lp_Energy>
35.892398

> <b_lp_Chiralities_Consistent>
1

> <s_lp_Variant>
CHEMBL3231_lig261-1

> <s_i_glide_gridfile>
glide-grid_2etr

> <i_i_glide_lignum>
405

> <i_i_glide_rotatable_bonds>
2

> <r_i_docking_score>
-7.53057061638763

> <r_i_glide_ligand_efficiency>
-0.442974742140449

> <r_i_glide_ligand_efficiency_sa>
-1.13901279851663

> <r_i_glide_ligand_efficiency_ln>
-1.96455817625297

> <r_i_glide_gscore>
-7.53057061638763

> <r_i_glide_lipo>
-2.28558537011843

> <r_i_glide_hbond>
-0.395766351244575

> <r_i_glide_metal>
0

> <r_i_glide_rewards>
-3.03124166794641

> <r_i_glide_evdw>
-28.824104309082

> <r_i_glide_ecoul>
-5.51872396469116

> <r_i_glide_erotb>
0.451036583079556

> <r_i_glide_esite>
0

> <r_i_glide_emodel>
-51.691801709001

> <r_i_glide_energy>
-34.3428282737732

> <r_i_glide_einternal>
1.50482356548309

> <i_i_glide_confnum>
3

> <i_i_glide_posenum>
282

> <r_i_glide_eff_state_penalty>
0

> <s_user_duplicate_titles>
CHEMBL3231_lig261

> <i_f3d_flags>
0

> <s_m_subgroup_title>
dock_pv

> <s_m_subgroupid>
dock_pv

> <b_m_subgroup_collapsed>
1

$$$$
CHEMBL3231_lig1892
                    3D
 Schrodinger Suite 2021-1.
 40 42  0  0  1  0            999 V2000
   50.0436  101.0975   25.6668 Cl  0  0  0  0  0  0
   50.0472   97.9446   26.2510 Cl  0  0  0  0  0  0
   50.6403  103.1029   31.0958 O   0  0  0  0  0  0
   51.6769  101.6923   32.5683 N   0  0  0  0  0  0
   48.8427  103.1039   37.0625 N   0  0  0  0  0  0
   48.9545  104.4445   37.0719 N   0  0  0  0  0  0
   53.6413  104.3033   31.7756 N   0  0  0  0  0  0
   50.0852  103.6088   35.2984 C   0  0  0  0  0  0
   52.4952  101.8077   30.2707 C   0  0  2  0  0  0
   51.8311  100.8609   29.2532 C   0  0  0  0  0  0
   49.5146  102.5260   36.0086 C   0  0  0  0  0  0
   50.9727  102.0203   33.7239 C   0  0  0  0  0  0
   51.5020  102.2538   31.3555 C   0  0  0  0  0  0
   50.8318  103.3508   34.1414 C   0  0  0  0  0  0
   51.2450  101.3368   28.0707 C   0  0  0  0  0  0
   49.6777  101.1964   35.6111 C   0  0  0  0  0  0
   50.4433  100.9691   34.4693 C   0  0  0  0  0  0
   50.7004  100.4557   27.1326 C   0  0  0  0  0  0
   49.6926  104.7647   36.0406 C   0  0  0  0  0  0
   51.8100   99.4819   29.5004 C   0  0  0  0  0  0
   50.7065   99.0779   27.3839 C   0  0  0  0  0  0
   53.1726  103.0447   29.6287 C   0  0  0  0  0  0
   51.2493   98.5997   28.5767 C   0  0  0  0  0  0
   54.1554  103.8350   30.5014 C   0  0  0  0  0  0
   52.3378  100.9346   32.6467 H   0  0  0  0  0  0
   48.2748  102.6285   37.7526 H   0  0  0  0  0  0
   54.3835  104.8569   32.1888 H   0  0  0  0  0  0
   52.9034  104.9762   31.6112 H   0  0  0  0  0  0
   53.3014  101.2353   30.7367 H   0  0  0  0  0  0
   51.2886  104.1567   33.5832 H   0  0  0  0  0  0
   51.2272  102.3941   27.8586 H   0  0  0  0  0  0
   49.2432  100.3758   36.1549 H   0  0  0  0  0  0
   50.5859   99.9509   34.1349 H   0  0  0  0  0  0
   49.9364  105.7961   35.8343 H   0  0  0  0  0  0
   52.2439   99.0847   30.4070 H   0  0  0  0  0  0
   53.7750  102.6925   28.8027 H   0  0  0  0  0  0
   52.4359  103.7324   29.2102 H   0  0  0  0  0  0
   51.2439   97.5387   28.7815 H   0  0  0  0  0  0
   55.0578  103.2509   30.6871 H   0  0  0  0  0  0
   54.4429  104.7029   29.9165 H   0  0  0  0  0  0
  1 18  1  0  0  0
  2 21  1  0  0  0
  3 13  2  0  0  0
  4 12  1  0  0  0
  4 13  1  0  0  0
  4 25  1  0  0  0
  5  6  1  0  0  0
  5 11  1  0  0  0
  5 26  1  0  0  0
  6 19  2  0  0  0
  7 24  1  0  0  0
  7 27  1  0  0  0
  7 28  1  0  0  0
  8 11  1  0  0  0
  8 14  2  0  0  0
  8 19  1  0  0  0
  9 10  1  0  0  0
  9 13  1  0  0  0
  9 22  1  0  0  0
  9 29  1  0  0  0
 10 15  1  0  0  0
 10 20  2  0  0  0
 11 16  2  0  0  0
 12 14  1  0  0  0
 12 17  2  0  0  0
 14 30  1  0  0  0
 15 18  2  0  0  0
 15 31  1  0  0  0
 16 17  1  0  0  0
 16 32  1  0  0  0
 17 33  1  0  0  0
 18 21  1  0  0  0
 19 34  1  0  0  0
 20 23  1  0  0  0
 20 35  1  0  0  0
 21 23  2  0  0  0
 22 24  1  0  0  0
 22 36  1  0  0  0
 22 37  1  0  0  0
 23 38  1  0  0  0
 24 39  1  0  0  0
 24 40  1  0  0  0
M  END
> <s_m_entry_id>
28245

> <s_m_entry_name>
dock_pv.406

> <s_m_Source_Path>
/home/csk/Desktop/cluster/DUD-E-result/rock1

> <s_m_Source_File>
dock_pv.maegz

> <i_m_Source_File_Index>
406

> <chembl_id>
CHEMBL1998121

> <chembl_pref_name>
None

> <i_lp_mmshare_version>
53161

> <r_lp_tautomer_probability>
0.980392156862745

> <s_lp_Force_Field>
OPLS_2005

> <r_lp_Energy>
19.676723

> <b_lp_Chiralities_Consistent>
1

> <s_lp_Variant>
CHEMBL3231_lig1892-1

> <s_i_glide_gridfile>
glide-grid_2etr

> <i_i_glide_lignum>
2742

> <i_i_glide_rotatable_bonds>
6

> <r_i_docking_score>
-7.53019850245679

> <r_i_glide_ligand_efficiency>
-0.3137582709357

> <r_i_glide_ligand_efficiency_sa>
-0.905035461916066

> <r_i_glide_ligand_efficiency_ln>
-1.80232203993161

> <r_i_glide_gscore>
-7.53019850245679

> <r_i_glide_lipo>
-3.22747997458557

> <r_i_glide_hbond>
-0.516848345100789

> <r_i_glide_metal>
0

> <r_i_glide_rewards>
-1.07586410203458

> <r_i_glide_evdw>
-38.0688514709473

> <r_i_glide_ecoul>
-7.99083948135376

> <r_i_glide_erotb>
0.436803859710049

> <r_i_glide_esite>
-0.0447414446954726

> <r_i_glide_emodel>
-65.4972899337887

> <r_i_glide_energy>
-46.059690952301

> <r_i_glide_einternal>
3.83059906959534

> <i_i_glide_confnum>
2

> <i_i_glide_posenum>
203

> <r_i_glide_eff_state_penalty>
0

> <s_user_duplicate_titles>
CHEMBL3231_lig1892

> <i_f3d_flags>
0

> <s_m_subgroup_title>
dock_pv

> <s_m_subgroupid>
dock_pv

> <b_m_subgroup_collapsed>
1

$$$$
CHEMBL3231_lig379
                    3D
 Schrodinger Suite 2021-1.
 40 42  0  0  1  0            999 V2000
   51.9286  102.1904   33.1490 O   0  0  0  0  0  0
   52.3109  103.2928   32.7512 C   0  0  0  0  0  0
   52.5616  104.3279   33.5676 N   0  0  0  0  0  0
   52.2789  104.3466   35.0060 C   0  0  0  0  0  0
   50.7932  104.3420   35.3640 C   0  0  0  0  0  0
   50.1431  103.1339   35.6366 C   0  0  0  0  0  0
   48.8007  103.1296   36.0054 C   0  0  0  0  0  0
   48.1142  104.3361   36.1216 C   0  0  0  0  0  0
   48.7628  105.5461   35.8794 C   0  0  0  0  0  0
   50.1039  105.5499   35.5027 C   0  0  0  0  0  0
   52.4740  103.6177   31.4546 N   0  0  0  0  0  0
   52.1538  102.7666   30.3888 C   0  0  0  0  0  0
   52.7180  101.4924   30.2844 C   0  0  0  0  0  0
   52.3327  100.6497   29.2468 C   0  0  0  0  0  0
   51.3751  101.0577   28.3081 C   0  0  0  0  0  0
   50.8427  102.3504   28.4111 C   0  0  0  0  0  0
   51.2440  103.2093   29.4305 C   0  0  0  0  0  0
   50.9225  100.1277   27.2302 C   0  0  0  0  0  0
   50.5512  100.6021   25.9616 C   0  0  0  0  0  0
   50.1128   99.6987   24.9926 C   0  0  0  0  0  0
   50.0430   98.3624   25.2109 N   0  0  0  0  0  0
   50.4142   97.9027   26.4292 C   0  0  0  0  0  0
   50.8449   98.7430   27.4554 C   0  0  0  0  0  0
   52.8429  105.2133   33.1620 H   0  0  0  0  0  0
   52.7425  105.2398   35.4279 H   0  0  0  0  0  0
   52.7803  103.5066   35.4922 H   0  0  0  0  0  0
   50.6759  102.1975   35.5509 H   0  0  0  0  0  0
   48.2948  102.1956   36.2034 H   0  0  0  0  0  0
   47.0720  104.3302   36.4078 H   0  0  0  0  0  0
   48.2279  106.4783   35.9859 H   0  0  0  0  0  0
   50.6076  106.4888   35.3209 H   0  0  0  0  0  0
   52.7580  104.5588   31.2241 H   0  0  0  0  0  0
   53.4427  101.1511   31.0103 H   0  0  0  0  0  0
   52.7830   99.6701   29.1860 H   0  0  0  0  0  0
   50.1054  102.6985   27.7026 H   0  0  0  0  0  0
   50.8206  104.2005   29.4844 H   0  0  0  0  0  0
   50.5997  101.6541   25.7227 H   0  0  0  0  0  0
   49.8169  100.0435   24.0117 H   0  0  0  0  0  0
   50.3575   96.8341   26.5785 H   0  0  0  0  0  0
   51.1091   98.3173   28.4120 H   0  0  0  0  0  0
  1  2  2  0  0  0
  2  3  1  0  0  0
  2 11  1  0  0  0
  3  4  1  0  0  0
  3 24  1  0  0  0
  4  5  1  0  0  0
  4 25  1  0  0  0
  4 26  1  0  0  0
  5  6  2  0  0  0
  5 10  1  0  0  0
  6  7  1  0  0  0
  6 27  1  0  0  0
  7  8  2  0  0  0
  7 28  1  0  0  0
  8  9  1  0  0  0
  8 29  1  0  0  0
  9 10  2  0  0  0
  9 30  1  0  0  0
 10 31  1  0  0  0
 11 12  1  0  0  0
 11 32  1  0  0  0
 12 13  2  0  0  0
 12 17  1  0  0  0
 13 14  1  0  0  0
 13 33  1  0  0  0
 14 15  2  0  0  0
 14 34  1  0  0  0
 15 16  1  0  0  0
 15 18  1  0  0  0
 16 17  2  0  0  0
 16 35  1  0  0  0
 17 36  1  0  0  0
 18 19  2  0  0  0
 18 23  1  0  0  0
 19 20  1  0  0  0
 19 37  1  0  0  0
 20 21  2  0  0  0
 20 38  1  0  0  0
 21 22  1  0  0  0
 22 23  2  0  0  0
 22 39  1  0  0  0
 23 40  1  0  0  0
M  END
> <s_m_entry_id>
28246

> <s_m_entry_name>
dock_pv.407

> <s_m_Source_Path>
/home/csk/Desktop/cluster/DUD-E-result/rock1

> <s_m_Source_File>
dock_pv.maegz

> <i_m_Source_File_Index>
407

> <chembl_id>
CHEMBL2023156

> <chembl_pref_name>
None

> <i_lp_mmshare_version>
53161

> <r_lp_tautomer_probability>
1

> <s_lp_Force_Field>
OPLS_2005

> <r_lp_Energy>
18.478274

> <b_lp_Chiralities_Consistent>
1

> <s_lp_Variant>
CHEMBL3231_lig379-1

> <s_i_glide_gridfile>
glide-grid_2etr

> <i_i_glide_lignum>
531

> <i_i_glide_rotatable_bonds>
6

> <r_i_docking_score>
-7.53008420175753

> <r_i_glide_ligand_efficiency>
-0.327394965293806

> <r_i_glide_ligand_efficiency_sa>
-0.931067730195584

> <r_i_glide_ligand_efficiency_ln>
-1.82084263901351

> <r_i_glide_gscore>
-7.53008420175753

> <r_i_glide_lipo>
-3.29126531994279

> <r_i_glide_hbond>
-0.283838260450094

> <r_i_glide_metal>
0

> <r_i_glide_rewards>
-1.97903138005264

> <r_i_glide_evdw>
-43.0724487304688

> <r_i_glide_ecoul>
-4.50874185562134

> <r_i_glide_erotb>
1.00113008637583

> <r_i_glide_esite>
-0.147145612821204

> <r_i_glide_emodel>
-65.6086114222823

> <r_i_glide_energy>
-47.5811905860901

> <r_i_glide_einternal>
4.77986764907837

> <i_i_glide_confnum>
9

> <i_i_glide_posenum>
64

> <r_i_glide_eff_state_penalty>
0

> <s_user_duplicate_titles>
CHEMBL3231_lig379

> <i_f3d_flags>
0

> <s_m_subgroup_title>
dock_pv

> <s_m_subgroupid>
dock_pv

> <b_m_subgroup_collapsed>
1

$$$$
CHEMBL3231_lig906
                    3D
 Schrodinger Suite 2021-1.
 34 36  0  0  1  0            999 V2000
   52.4671  100.2429   33.6123 C   0  0  0  0  0  0
   53.5376  101.0899   32.8817 C   0  0  0  0  0  0
   54.8907  101.0677   33.6304 C   0  0  0  0  0  0
   53.8390  100.4106   31.6066 N   0  0  0  0  0  0
   53.0455  102.4916   32.6199 N   0  0  0  0  0  0
   52.2103  102.8156   31.5735 C   0  0  0  0  0  0
   52.8992  100.5797   30.6260 C   0  0  0  0  0  0
   52.1414  101.7423   30.6160 C   0  0  0  0  0  0
   51.1211  101.7967   29.2109 S   0  0  0  0  0  0
   51.6466  100.2143   28.7014 C   0  0  0  0  0  0
   52.6032   99.7083   29.5804 C   0  0  0  0  0  0
   51.0672   99.5811   27.4836 C   0  0  0  0  0  0
   50.9596   98.1868   27.4342 C   0  0  0  0  0  0
   50.4441   97.5902   26.2882 C   0  0  0  0  0  0
   50.0399   98.3030   25.2110 N   0  0  0  0  0  0
   50.1390   99.6546   25.2619 C   0  0  0  0  0  0
   50.6452  100.3288   26.3736 C   0  0  0  0  0  0
   51.6450  103.9018   31.4603 O   0  0  0  0  0  0
   53.2822  103.5198   33.6509 C   0  0  0  0  0  0
   51.5289  100.1942   33.0581 H   0  0  0  0  0  0
   52.2393  100.6657   34.5918 H   0  0  0  0  0  0
   52.8019   99.2172   33.7733 H   0  0  0  0  0  0
   55.6426  101.6557   33.1029 H   0  0  0  0  0  0
   54.7998  101.4729   34.6389 H   0  0  0  0  0  0
   55.2850  100.0556   33.7347 H   0  0  0  0  0  0
   54.4425   99.6038   31.6702 H   0  0  0  0  0  0
   53.0905   98.7519   29.4556 H   0  0  0  0  0  0
   51.2658   97.5705   28.2680 H   0  0  0  0  0  0
   50.3659   96.5157   26.2163 H   0  0  0  0  0  0
   49.8077  100.1929   24.3840 H   0  0  0  0  0  0
   50.7148  101.4055   26.3608 H   0  0  0  0  0  0
   52.8386  104.4910   33.4255 H   0  0  0  0  0  0
   52.8867  103.1905   34.6130 H   0  0  0  0  0  0
   54.3531  103.6915   33.7673 H   0  0  0  0  0  0
  1  2  1  0  0  0
  1 20  1  0  0  0
  1 21  1  0  0  0
  1 22  1  0  0  0
  2  3  1  0  0  0
  2  4  1  0  0  0
  2  5  1  0  0  0
  3 23  1  0  0  0
  3 24  1  0  0  0
  3 25  1  0  0  0
  4  7  1  0  0  0
  4 26  1  0  0  0
  5  6  1  0  0  0
  5 19  1  0  0  0
  6  8  1  0  0  0
  6 18  2  0  0  0
  7  8  2  0  0  0
  7 11  1  0  0  0
  8  9  1  0  0  0
  9 10  1  0  0  0
 10 11  2  0  0  0
 10 12  1  0  0  0
 11 27  1  0  0  0
 12 13  2  0  0  0
 12 17  1  0  0  0
 13 14  1  0  0  0
 13 28  1  0  0  0
 14 15  2  0  0  0
 14 29  1  0  0  0
 15 16  1  0  0  0
 16 17  2  0  0  0
 16 30  1  0  0  0
 17 31  1  0  0  0
 19 32  1  0  0  0
 19 33  1  0  0  0
 19 34  1  0  0  0
M  END
> <s_m_entry_id>
28247

> <s_m_entry_name>
dock_pv.408

> <s_m_Source_Path>
/home/csk/Desktop/cluster/DUD-E-result/rock1

> <s_m_Source_File>
dock_pv.maegz

> <i_m_Source_File_Index>
408

> <chembl_id>
CHEMBL4205235

> <chembl_pref_name>
None

> <i_lp_mmshare_version>
53161

> <r_lp_tautomer_probability>
0.99999637101317

> <s_lp_Force_Field>
OPLS_2005

> <r_lp_Energy>
29.722601

> <b_lp_Chiralities_Consistent>
1

> <s_lp_Variant>
CHEMBL3231_lig906-1

> <s_i_glide_gridfile>
glide-grid_2etr

> <i_i_glide_lignum>
1300

> <i_i_glide_rotatable_bonds>
1

> <r_i_docking_score>
-7.52784806967713

> <r_i_glide_ligand_efficiency>
-0.396202529983007

> <r_i_glide_ligand_efficiency_sa>
-1.05722748319681

> <r_i_glide_ligand_efficiency_ln>
-1.90847116901475

> <r_i_glide_gscore>
-7.52784806967713

> <r_i_glide_lipo>
-2.0252300351816

> <r_i_glide_hbond>
-0.395756012735846

> <r_i_glide_metal>
0

> <r_i_glide_rewards>
-2.90364424242424

> <r_i_glide_evdw>
-31.2517108917236

> <r_i_glide_ecoul>
-5.20312929153442

> <r_i_glide_erotb>
0.240059414020591

> <r_i_glide_esite>
-0.100222255039684

> <r_i_glide_emodel>
-53.8156417429665

> <r_i_glide_energy>
-36.4548401832581

> <r_i_glide_einternal>
0.631278514862061

> <i_i_glide_confnum>
1

> <i_i_glide_posenum>
235

> <r_i_glide_eff_state_penalty>
0

> <s_user_duplicate_titles>
CHEMBL3231_lig906

> <i_f3d_flags>
0

> <s_m_subgroup_title>
dock_pv

> <s_m_subgroupid>
dock_pv

> <b_m_subgroup_collapsed>
1

$$$$
CHEMBL3231_lig2020
                    3D
 Schrodinger Suite 2021-1.
 45 47  0  0  1  0            999 V2000
   50.7661  103.9031   29.7150 F   0  0  0  0  0  0
   51.6623  103.6426   32.4077 O   0  0  0  0  0  0
   53.2001  105.4966   34.4111 O   0  0  0  0  0  0
   53.8483  103.0487   32.1864 N   0  0  0  0  0  0
   50.0431   98.1048   25.2108 N   0  0  0  0  0  0
   52.2403  102.2268   30.5853 C   0  0  0  0  0  0
   51.4851  100.5917   28.4050 C   0  0  0  0  0  0
   51.3210  102.6798   29.6302 C   0  0  0  0  0  0
   52.5612  103.0598   31.7995 C   0  0  0  0  0  0
   50.9446  101.8694   28.5679 C   0  0  0  0  0  0
   51.0214   99.7247   27.2881 C   0  0  0  0  0  0
   52.8170  100.9598   30.4094 C   0  0  0  0  0  0
   52.4428  100.1558   29.3312 C   0  0  0  0  0  0
   54.3859  103.4700   33.4901 C   0  0  2  0  0  0
   50.9260   98.3326   27.4406 C   0  0  0  0  0  0
   50.6310  100.2794   26.0582 C   0  0  0  0  0  0
   53.8839  102.6048   34.6830 C   0  0  0  0  0  0
   53.9739  101.0799   34.5286 C   0  0  0  0  0  0
   50.4430   97.5642   26.3830 C   0  0  0  0  0  0
   50.1368   99.4465   25.0581 C   0  0  0  0  0  0
   54.3522  105.0053   33.7481 C   0  0  0  0  0  0
   53.0790  100.2787   35.2460 C   0  0  0  0  0  0
   54.9349  100.4722   33.7095 C   0  0  0  0  0  0
   53.1326   98.8916   35.1347 C   0  0  0  0  0  0
   54.9892   99.0857   33.5953 C   0  0  0  0  0  0
   54.0838   98.3003   34.3060 C   0  0  0  0  0  0
   52.8427  106.1960   33.8382 H   0  0  0  0  0  0
   54.5180  102.6650   31.5345 H   0  0  0  0  0  0
   50.2012  102.2445   27.8803 H   0  0  0  0  0  0
   53.5348  100.5712   31.1195 H   0  0  0  0  0  0
   52.8980   99.1816   29.2298 H   0  0  0  0  0  0
   55.4499  103.2525   33.3767 H   0  0  0  0  0  0
   51.2109   97.8475   28.3632 H   0  0  0  0  0  0
   50.6951  101.3408   25.8747 H   0  0  0  0  0  0
   52.8362  102.8573   34.8567 H   0  0  0  0  0  0
   54.4175  102.8878   35.5920 H   0  0  0  0  0  0
   50.3816   96.4885   26.4533 H   0  0  0  0  0  0
   49.8170   99.8502   24.1062 H   0  0  0  0  0  0
   55.2193  105.2940   34.3445 H   0  0  0  0  0  0
   54.4546  105.5489   32.8103 H   0  0  0  0  0  0
   52.3390  100.7314   35.8908 H   0  0  0  0  0  0
   55.6437  101.0590   33.1487 H   0  0  0  0  0  0
   52.4415   98.2756   35.6888 H   0  0  0  0  0  0
   55.7340   98.6229   32.9612 H   0  0  0  0  0  0
   54.1272   97.2242   34.2204 H   0  0  0  0  0  0
  1  8  1  0  0  0
  2  9  2  0  0  0
  3 21  1  0  0  0
  3 27  1  0  0  0
  4  9  1  0  0  0
  4 14  1  0  0  0
  4 28  1  0  0  0
  5 19  2  0  0  0
  5 20  1  0  0  0
  6  8  1  0  0  0
  6  9  1  0  0  0
  6 12  2  0  0  0
  7 10  1  0  0  0
  7 11  1  0  0  0
  7 13  2  0  0  0
  8 10  2  0  0  0
 10 29  1  0  0  0
 11 15  2  0  0  0
 11 16  1  0  0  0
 12 13  1  0  0  0
 12 30  1  0  0  0
 13 31  1  0  0  0
 14 17  1  0  0  0
 14 21  1  0  0  0
 14 32  1  0  0  0
 15 19  1  0  0  0
 15 33  1  0  0  0
 16 20  2  0  0  0
 16 34  1  0  0  0
 17 18  1  0  0  0
 17 35  1  0  0  0
 17 36  1  0  0  0
 18 22  2  0  0  0
 18 23  1  0  0  0
 19 37  1  0  0  0
 20 38  1  0  0  0
 21 39  1  0  0  0
 21 40  1  0  0  0
 22 24  1  0  0  0
 22 41  1  0  0  0
 23 25  2  0  0  0
 23 42  1  0  0  0
 24 26  2  0  0  0
 24 43  1  0  0  0
 25 26  1  0  0  0
 25 44  1  0  0  0
 26 45  1  0  0  0
M  END
> <s_m_entry_id>
28248

> <s_m_entry_name>
dock_pv.409

> <s_m_Source_Path>
/home/csk/Desktop/cluster/DUD-E-result/rock1

> <s_m_Source_File>
dock_pv.maegz

> <i_m_Source_File_Index>
409

> <chembl_id>
CHEMBL1969755

> <chembl_pref_name>
None

> <i_lp_mmshare_version>
53161

> <r_lp_tautomer_probability>
1

> <s_lp_Force_Field>
OPLS_2005

> <r_lp_Energy>
18.404922

> <b_lp_Chiralities_Consistent>
1

> <s_lp_Variant>
CHEMBL3231_lig2020-1

> <s_i_glide_gridfile>
glide-grid_2etr

> <i_i_glide_lignum>
2936

> <i_i_glide_rotatable_bonds>
8

> <r_i_docking_score>
-7.52583990425906

> <r_i_glide_ligand_efficiency>
-0.289455380933041

> <r_i_glide_ligand_efficiency_sa>
-0.857510427062207

> <r_i_glide_ligand_efficiency_ln>
-1.76741880722036

> <r_i_glide_gscore>
-7.52583990425906

> <r_i_glide_lipo>
-2.15097322785832

> <r_i_glide_hbond>
-0.350580416440072

> <r_i_glide_metal>
0

> <r_i_glide_rewards>
-2.4156040819827

> <r_i_glide_evdw>
-37.2421569824219

> <r_i_glide_ecoul>
-10.3843488693237

> <r_i_glide_erotb>
0.931505338256756

> <r_i_glide_esite>
-0.120427336715069

> <r_i_glide_emodel>
-67.9514182245043

> <r_i_glide_energy>
-47.6265058517456

> <r_i_glide_einternal>
6.11428880691528

> <i_i_glide_confnum>
11

> <i_i_glide_posenum>
67

> <r_i_glide_eff_state_penalty>
0

> <s_user_duplicate_titles>
CHEMBL3231_lig2020

> <i_f3d_flags>
0

> <s_m_subgroup_title>
dock_pv

> <s_m_subgroupid>
dock_pv

> <b_m_subgroup_collapsed>
1

$$$$
CHEMBL3231_lig2098
                    3D
 Schrodinger Suite 2021-1.
 34 36  0  0  1  0            999 V2000
   50.9853  101.1866   28.2901 C   0  0  0  0  0  0
   51.5121  100.8226   29.4523 N   0  0  0  0  0  0
   51.7170  101.8423   30.2584 C   0  0  0  0  0  0
   51.2942  103.3840   29.6106 S   0  0  0  0  0  0
   50.7534  102.5635   28.1880 C   0  0  0  0  0  0
   52.1820  101.8159   31.5633 N   0  0  0  0  0  0
   52.0785  100.7743   32.4174 C   0  0  0  0  0  0
   52.5016  101.0614   33.8625 C   0  0  0  0  0  0
   51.6428   99.6620   32.1234 O   0  0  0  0  0  0
   51.3925  101.7867   34.6230 C   0  0  0  0  0  0
   50.3090  101.0673   35.1376 C   0  0  0  0  0  0
   49.2767  101.7342   35.7922 C   0  0  0  0  0  0
   49.3275  103.1195   35.9337 C   0  0  0  0  0  0
   50.4025  103.8443   35.4231 C   0  0  0  0  0  0
   51.4330  103.1779   34.7633 C   0  0  0  0  0  0
   50.6788  100.1708   27.2300 C   0  0  0  0  0  0
   50.7744   98.7904   27.4691 C   0  0  0  0  0  0
   50.4460   97.9001   26.4445 C   0  0  0  0  0  0
   50.0428   98.3032   25.2150 N   0  0  0  0  0  0
   49.9712   99.6362   24.9881 C   0  0  0  0  0  0
   50.2754  100.5917   25.9553 C   0  0  0  0  0  0
   50.3282  103.1232   27.3677 H   0  0  0  0  0  0
   52.5306  102.6861   31.9330 H   0  0  0  0  0  0
   53.4207  101.6504   33.8663 H   0  0  0  0  0  0
   52.7395  100.1197   34.3578 H   0  0  0  0  0  0
   50.2659   99.9937   35.0221 H   0  0  0  0  0  0
   48.4435  101.1786   36.1956 H   0  0  0  0  0  0
   48.5268  103.6316   36.4471 H   0  0  0  0  0  0
   50.4394  104.9196   35.5413 H   0  0  0  0  0  0
   52.2611  103.7454   34.3636 H   0  0  0  0  0  0
   51.0851   98.4094   28.4308 H   0  0  0  0  0  0
   50.5097   96.8332   26.6035 H   0  0  0  0  0  0
   49.6434   99.9436   24.0110 H   0  0  0  0  0  0
   50.1906  101.6385   25.7054 H   0  0  0  0  0  0
  1  2  1  0  0  0
  1  5  2  0  0  0
  1 16  1  0  0  0
  2  3  2  0  0  0
  3  4  1  0  0  0
  3  6  1  0  0  0
  4  5  1  0  0  0
  5 22  1  0  0  0
  6  7  1  0  0  0
  6 23  1  0  0  0
  7  8  1  0  0  0
  7  9  2  0  0  0
  8 10  1  0  0  0
  8 24  1  0  0  0
  8 25  1  0  0  0
 10 11  2  0  0  0
 10 15  1  0  0  0
 11 12  1  0  0  0
 11 26  1  0  0  0
 12 13  2  0  0  0
 12 27  1  0  0  0
 13 14  1  0  0  0
 13 28  1  0  0  0
 14 15  2  0  0  0
 14 29  1  0  0  0
 15 30  1  0  0  0
 16 17  2  0  0  0
 16 21  1  0  0  0
 17 18  1  0  0  0
 17 31  1  0  0  0
 18 19  2  0  0  0
 18 32  1  0  0  0
 19 20  1  0  0  0
 20 21  2  0  0  0
 20 33  1  0  0  0
 21 34  1  0  0  0
M  END
> <s_m_entry_id>
28249

> <s_m_entry_name>
dock_pv.410

> <s_m_Source_Path>
/home/csk/Desktop/cluster/DUD-E-result/rock1

> <s_m_Source_File>
dock_pv.maegz

> <i_m_Source_File_Index>
410

> <chembl_id>
CHEMBL3581116

> <chembl_pref_name>
None

> <i_lp_mmshare_version>
53161

> <r_lp_tautomer_probability>
0.999000488399163

> <s_lp_Force_Field>
OPLS_2005

> <r_lp_Energy>
9.654565

> <b_lp_Chiralities_Consistent>
1

> <s_lp_Variant>
CHEMBL3231_lig2098-1

> <s_i_glide_gridfile>
glide-grid_2etr

> <i_i_glide_lignum>
3026

> <i_i_glide_rotatable_bonds>
5

> <r_i_docking_score>
-7.52365719580917

> <r_i_glide_ligand_efficiency>
-0.358269390276627

> <r_i_glide_ligand_efficiency_sa>
-0.988438081488403

> <r_i_glide_ligand_efficiency_ln>
-1.86020903868297

> <r_i_glide_gscore>
-7.52365719580917

> <r_i_glide_lipo>
-3.02112913822914

> <r_i_glide_hbond>
-0.233325134310763

> <r_i_glide_metal>
0

> <r_i_glide_rewards>
-2.73645255558346

> <r_i_glide_evdw>
-38.9867477416992

> <r_i_glide_ecoul>
-2.66915607452393

> <r_i_glide_erotb>
0.839231688119869

> <r_i_glide_esite>
-0.0222712575421253

> <r_i_glide_emodel>
-59.2983053856637

> <r_i_glide_energy>
-41.6559038162231

> <r_i_glide_einternal>
4.15645551681519

> <i_i_glide_confnum>
6

> <i_i_glide_posenum>
206

> <r_i_glide_eff_state_penalty>
0

> <s_user_duplicate_titles>
CHEMBL3231_lig2098

> <i_f3d_flags>
0

> <s_m_subgroup_title>
dock_pv

> <s_m_subgroupid>
dock_pv

> <b_m_subgroup_collapsed>
1

$$$$
CHEMBL3231_lig593
                    3D
 Schrodinger Suite 2021-1.
 50 53  0  0  1  0            999 V2000
   51.4560   97.5890   30.3879 C   0  0  0  0  0  0
   51.2479   98.3543   29.2014 O   0  0  0  0  0  0
   51.3855   99.7336   29.2273 C   0  0  0  0  0  0
   51.8361  100.4215   30.3653 C   0  0  0  0  0  0
   51.8864  101.8217   30.4059 C   0  0  0  0  0  0
   51.4999  102.5459   29.2791 C   0  0  0  0  0  0
   51.0846  101.8785   28.1324 C   0  0  0  0  0  0
   51.0216  100.4785   28.0863 C   0  0  0  0  0  0
   50.5376   99.8541   26.8093 C   0  0  0  0  0  0
   50.5723   98.5070   26.3939 C   0  0  0  0  0  0
   50.0429   98.3037   25.2110 N   0  0  0  0  0  0
   49.6615   99.5150   24.8113 N   0  0  0  0  0  0
   49.9395  100.4873   25.7263 C   0  0  0  0  0  0
   52.2879  102.5336   31.6673 C   0  0  0  0  0  0
   51.6476  103.5029   32.0798 O   0  0  0  0  0  0
   53.3357  101.9834   32.2984 N   0  0  0  0  0  0
   53.7383  102.1977   33.6853 C   0  0  0  0  0  0
   53.5860  100.9271   34.5219 C   0  0  0  0  0  0
   53.0180  100.9878   35.7961 C   0  0  0  0  0  0
   52.8643   99.8256   36.5492 C   0  0  0  0  0  0
   53.2675   98.5957   36.0297 C   0  0  0  0  0  0
   53.8316   98.4958   34.7475 C   0  0  0  0  0  0
   53.9819   99.6832   34.0115 C   0  0  0  0  0  0
   54.2666   97.1748   34.1846 C   0  0  0  0  0  0
   53.6456   95.9777   34.5780 C   0  0  0  0  0  0
   54.0507   94.7516   34.0561 C   0  0  0  0  0  0
   55.0930   94.7056   33.1360 C   0  0  0  0  0  0
   55.7261   95.8765   32.7296 C   0  0  0  0  0  0
   55.3150   97.0993   33.2517 C   0  0  0  0  0  0
   51.2376   96.5404   30.1813 H   0  0  0  0  0  0
   52.4912   97.6476   30.7305 H   0  0  0  0  0  0
   50.7916   97.9049   31.1922 H   0  0  0  0  0  0
   52.1150   99.8702   31.2502 H   0  0  0  0  0  0
   51.5267  103.6271   29.2800 H   0  0  0  0  0  0
   50.8011  102.4717   27.2764 H   0  0  0  0  0  0
   50.9806   97.6765   26.9496 H   0  0  0  0  0  0
   49.2271   99.6765   23.9068 H   0  0  0  0  0  0
   49.6816  101.5175   25.5308 H   0  0  0  0  0  0
   53.9026  101.3378   31.7691 H   0  0  0  0  0  0
   54.7875  102.4988   33.6904 H   0  0  0  0  0  0
   53.1723  103.0152   34.1394 H   0  0  0  0  0  0
   52.7007  101.9349   36.2092 H   0  0  0  0  0  0
   52.4430   99.8788   37.5427 H   0  0  0  0  0  0
   53.1533   97.7175   36.6490 H   0  0  0  0  0  0
   54.4105   99.6431   33.0211 H   0  0  0  0  0  0
   52.8432   95.9799   35.2981 H   0  0  0  0  0  0
   53.5629   93.8387   34.3688 H   0  0  0  0  0  0
   55.4250   93.7583   32.7397 H   0  0  0  0  0  0
   56.5440   95.8420   32.0220 H   0  0  0  0  0  0
   55.8458   97.9850   32.9325 H   0  0  0  0  0  0
  1  2  1  0  0  0
  1 30  1  0  0  0
  1 31  1  0  0  0
  1 32  1  0  0  0
  2  3  1  0  0  0
  3  4  2  0  0  0
  3  8  1  0  0  0
  4  5  1  0  0  0
  4 33  1  0  0  0
  5  6  2  0  0  0
  5 14  1  0  0  0
  6  7  1  0  0  0
  6 34  1  0  0  0
  7  8  2  0  0  0
  7 35  1  0  0  0
  8  9  1  0  0  0
  9 10  1  0  0  0
  9 13  2  0  0  0
 10 11  2  0  0  0
 10 36  1  0  0  0
 11 12  1  0  0  0
 12 13  1  0  0  0
 12 37  1  0  0  0
 13 38  1  0  0  0
 14 15  2  0  0  0
 14 16  1  0  0  0
 16 17  1  0  0  0
 16 39  1  0  0  0
 17 18  1  0  0  0
 17 40  1  0  0  0
 17 41  1  0  0  0
 18 19  2  0  0  0
 18 23  1  0  0  0
 19 20  1  0  0  0
 19 42  1  0  0  0
 20 21  2  0  0  0
 20 43  1  0  0  0
 21 22  1  0  0  0
 21 44  1  0  0  0
 22 23  2  0  0  0
 22 24  1  0  0  0
 23 45  1  0  0  0
 24 25  2  0  0  0
 24 29  1  0  0  0
 25 26  1  0  0  0
 25 46  1  0  0  0
 26 27  2  0  0  0
 26 47  1  0  0  0
 27 28  1  0  0  0
 27 48  1  0  0  0
 28 29  2  0  0  0
 28 49  1  0  0  0
 29 50  1  0  0  0
M  END
> <s_m_entry_id>
28250

> <s_m_entry_name>
dock_pv.411

> <s_m_Source_Path>
/home/csk/Desktop/cluster/DUD-E-result/rock1

> <s_m_Source_File>
dock_pv.maegz

> <i_m_Source_File_Index>
411

> <chembl_id>
CHEMBL3900611

> <chembl_pref_name>
None

> <i_lp_mmshare_version>
53161

> <r_lp_tautomer_probability>
0.5

> <s_lp_Force_Field>
OPLS_2005

> <r_lp_Energy>
28.09069

> <b_lp_Chiralities_Consistent>
1

> <s_lp_Variant>
CHEMBL3231_lig593-1

> <s_i_glide_gridfile>
glide-grid_2etr

> <i_i_glide_lignum>
878

> <i_i_glide_rotatable_bonds>
7

> <r_i_docking_score>
-7.5235650500288

> <r_i_glide_ligand_efficiency>
-0.2594332775872

> <r_i_glide_ligand_efficiency_sa>
-0.797061222979335

> <r_i_glide_ligand_efficiency_ln>
-1.72270561530797

> <r_i_glide_gscore>
-7.5235650500288

> <r_i_glide_lipo>
-2.33053306036428

> <r_i_glide_hbond>
-0.614079086046225

> <r_i_glide_metal>
0

> <r_i_glide_rewards>
-1.73458342025486

> <r_i_glide_evdw>
-45.7425498962402

> <r_i_glide_ecoul>
-7.07198715209961

> <r_i_glide_erotb>
0.555098970638928

> <r_i_glide_esite>
-0.0515428863754047

> <r_i_glide_emodel>
-74.9449577899563

> <r_i_glide_energy>
-52.8145370483398

> <r_i_glide_einternal>
4.77369594573975

> <i_i_glide_confnum>
60

> <i_i_glide_posenum>
232

> <r_i_glide_eff_state_penalty>
0

> <s_user_duplicate_titles>
CHEMBL3231_lig593

> <i_f3d_flags>
0

> <s_m_subgroup_title>
dock_pv

> <s_m_subgroupid>
dock_pv

> <b_m_subgroup_collapsed>
1

$$$$
CHEMBL3231_lig309
                    3D
 Schrodinger Suite 2021-1.
 44 47  0  0  1  0            999 V2000
   51.0964  101.9555   28.3316 C   0  0  0  0  0  0
   51.2661  100.6035   28.0181 C   0  0  0  0  0  0
   52.0438   99.7770   28.8356 C   0  0  0  0  0  0
   51.7221  102.5384   29.4352 C   0  0  0  0  0  0
   52.5388  101.7420   30.2515 C   0  0  0  0  0  0
   52.6832  100.3654   29.9289 C   0  0  0  0  0  0
   53.5342   99.8273   30.8685 N   0  0  0  0  0  0
   53.9300  100.7757   31.7890 C   0  0  0  0  0  0
   53.3259  101.9748   31.4283 C   0  0  0  0  0  0
   54.7684  100.4886   32.9329 C   0  0  0  0  0  0
   54.6822  101.1479   33.9687 O   0  0  0  0  0  0
   55.5135   99.3760   32.8059 N   0  0  0  0  0  0
   56.1683   98.6406   33.8832 C   0  0  0  0  0  0
   55.5370   97.2624   34.0246 C   0  0  0  0  0  0
   55.9174   96.2265   33.1647 C   0  0  0  0  0  0
   55.3079   94.9612   33.2427 C   0  0  0  0  0  0
   54.3317   94.7473   34.2185 C   0  0  0  0  0  0
   53.9744   95.7627   35.1054 C   0  0  0  0  0  0
   54.5757   97.0176   35.0092 C   0  0  0  0  0  0
   50.6588  100.0251   26.7803 C   0  0  0  0  0  0
   50.5954   98.6757   26.3853 C   0  0  0  0  0  0
   50.0427   98.4957   25.2108 N   0  0  0  0  0  0
   49.7070   99.7245   24.8115 N   0  0  0  0  0  0
   50.0431  100.6857   25.7263 C   0  0  0  0  0  0
   55.6001   93.9017   32.4089 O   0  0  0  0  0  0
   56.6797   94.0351   31.4893 C   0  0  0  0  0  0
   50.4884  102.5807   27.6941 H   0  0  0  0  0  0
   52.1880   98.7304   28.6108 H   0  0  0  0  0  0
   51.6000  103.5905   29.6423 H   0  0  0  0  0  0
   53.8358   98.8665   30.9332 H   0  0  0  0  0  0
   53.4505  102.9045   31.9631 H   0  0  0  0  0  0
   55.7886   99.0889   31.8764 H   0  0  0  0  0  0
   56.1253   99.1663   34.8396 H   0  0  0  0  0  0
   57.2307   98.5431   33.6483 H   0  0  0  0  0  0
   56.6719   96.4248   32.4168 H   0  0  0  0  0  0
   53.8530   93.7809   34.2931 H   0  0  0  0  0  0
   53.2263   95.5766   35.8613 H   0  0  0  0  0  0
   54.2797   97.8053   35.6883 H   0  0  0  0  0  0
   50.9711   97.8346   26.9478 H   0  0  0  0  0  0
   49.2499   99.8952   23.9176 H   0  0  0  0  0  0
   49.8357  101.7290   25.5491 H   0  0  0  0  0  0
   56.8436   93.0893   30.9759 H   0  0  0  0  0  0
   56.4587   94.7879   30.7315 H   0  0  0  0  0  0
   57.6099   94.2944   32.0008 H   0  0  0  0  0  0
  1  2  2  0  0  0
  1  4  1  0  0  0
  1 27  1  0  0  0
  2  3  1  0  0  0
  2 20  1  0  0  0
  3  6  2  0  0  0
  3 28  1  0  0  0
  4  5  2  0  0  0
  4 29  1  0  0  0
  5  9  1  0  0  0
  5  6  1  0  0  0
  6  7  1  0  0  0
  7  8  1  0  0  0
  7 30  1  0  0  0
  8  9  2  0  0  0
  8 10  1  0  0  0
  9 31  1  0  0  0
 10 11  2  0  0  0
 10 12  1  0  0  0
 12 13  1  0  0  0
 12 32  1  0  0  0
 13 14  1  0  0  0
 13 33  1  0  0  0
 13 34  1  0  0  0
 14 15  2  0  0  0
 14 19  1  0  0  0
 15 16  1  0  0  0
 15 35  1  0  0  0
 16 17  2  0  0  0
 16 25  1  0  0  0
 17 18  1  0  0  0
 17 36  1  0  0  0
 18 19  2  0  0  0
 18 37  1  0  0  0
 19 38  1  0  0  0
 20 24  2  0  0  0
 20 21  1  0  0  0
 21 39  1  0  0  0
 21 22  2  0  0  0
 22 23  1  0  0  0
 23 40  1  0  0  0
 23 24  1  0  0  0
 24 41  1  0  0  0
 25 26  1  0  0  0
 26 42  1  0  0  0
 26 43  1  0  0  0
 26 44  1  0  0  0
M  END
> <s_m_entry_id>
28251

> <s_m_entry_name>
dock_pv.412

> <s_m_Source_Path>
/home/csk/Desktop/cluster/DUD-E-result/rock1

> <s_m_Source_File>
dock_pv.maegz

> <i_m_Source_File_Index>
412

> <chembl_id>
CHEMBL1922026

> <chembl_pref_name>
None

> <i_lp_mmshare_version>
53161

> <r_lp_tautomer_probability>
0.5

> <s_lp_Force_Field>
OPLS_2005

> <r_lp_Energy>
14.667198

> <b_lp_Chiralities_Consistent>
1

> <s_lp_Variant>
CHEMBL3231_lig309-1

> <s_i_glide_gridfile>
glide-grid_2etr

> <i_i_glide_lignum>
457

> <i_i_glide_rotatable_bonds>
6

> <r_i_docking_score>
-7.52291582308997

> <r_i_glide_ligand_efficiency>
-0.289342916272691

> <r_i_glide_ligand_efficiency_sa>
-0.857177250948448

> <r_i_glide_ligand_efficiency_ln>
-1.76673209635249

> <r_i_glide_gscore>
-7.52291582308997

> <r_i_glide_lipo>
-1.99239807290104

> <r_i_glide_hbond>
-0.660106167184986

> <r_i_glide_metal>
0

> <r_i_glide_rewards>
-1.99475829523498

> <r_i_glide_evdw>
-44.7009506225586

> <r_i_glide_ecoul>
-7.18521976470947

> <r_i_glide_erotb>
0.554588655613883

> <r_i_glide_esite>
-0.117411447548486

> <r_i_glide_emodel>
-71.8452795570712

> <r_i_glide_energy>
-51.8861703872681

> <r_i_glide_einternal>
8.76745986938477

> <i_i_glide_confnum>
15

> <i_i_glide_posenum>
187

> <r_i_glide_eff_state_penalty>
0

> <s_user_duplicate_titles>
CHEMBL3231_lig309

> <i_f3d_flags>
0

> <s_m_subgroup_title>
dock_pv

> <s_m_subgroupid>
dock_pv

> <b_m_subgroup_collapsed>
1

$$$$
CHEMBL3231_lig560
                    3D
 Schrodinger Suite 2021-1.
 36 38  0  0  1  0            999 V2000
   48.8512  100.7115   35.6086 F   0  0  0  0  0  0
   49.5007  101.8806   35.4294 C   0  0  0  0  0  0
   48.8724  103.0848   35.7423 C   0  0  0  0  0  0
   49.5519  104.2888   35.5602 C   0  0  0  0  0  0
   48.9436  105.4579   35.8621 F   0  0  0  0  0  0
   50.8552  104.2883   35.0577 C   0  0  0  0  0  0
   51.4842  103.0816   34.7294 C   0  0  0  0  0  0
   52.9280  103.0646   34.2315 C   0  0  0  0  0  0
   53.0905  103.2643   32.7890 N   0  0  0  0  0  0
   52.5623  102.4890   31.8278 C   0  0  0  0  0  0
   52.0374  101.3936   32.0364 O   0  0  0  0  0  0
   52.6061  103.1058   30.6354 N   0  0  0  0  0  0
   51.8551  102.7160   29.5452 C   0  0  0  0  0  0
   51.8311  101.5250   28.9856 N   0  0  0  0  0  0
   51.0481  101.4984   27.9135 C   0  0  0  0  0  0
   50.4430  102.7174   27.6292 C   0  0  0  0  0  0
   50.8430  103.9034   28.8111 S   0  0  0  0  0  0
   50.8286  100.2564   27.1097 C   0  0  0  0  0  0
   51.0976   98.9882   27.6368 C   0  0  0  0  0  0
   50.8108   97.8653   26.8632 C   0  0  0  0  0  0
   50.2931   97.9318   25.6113 N   0  0  0  0  0  0
   50.0481   99.1634   25.1016 C   0  0  0  0  0  0
   50.3027  100.3371   25.8095 C   0  0  0  0  0  0
   50.8031  101.8780   34.9354 C   0  0  0  0  0  0
   47.8641  103.0814   36.1288 H   0  0  0  0  0  0
   51.3752  105.2263   34.9249 H   0  0  0  0  0  0
   53.4829  103.8530   34.7421 H   0  0  0  0  0  0
   53.4213  102.1361   34.5273 H   0  0  0  0  0  0
   53.7000  104.0208   32.5124 H   0  0  0  0  0  0
   53.0392  104.0161   30.5875 H   0  0  0  0  0  0
   49.7734  102.9608   26.8207 H   0  0  0  0  0  0
   51.4972   98.8698   28.6338 H   0  0  0  0  0  0
   50.9865   96.8766   27.2566 H   0  0  0  0  0  0
   49.6432   99.2039   24.1002 H   0  0  0  0  0  0
   50.0847  101.2874   25.3473 H   0  0  0  0  0  0
   51.2789  100.9366   34.6995 H   0  0  0  0  0  0
  1  2  1  0  0  0
  2  3  2  0  0  0
  2 24  1  0  0  0
  3  4  1  0  0  0
  3 25  1  0  0  0
  4  5  1  0  0  0
  4  6  2  0  0  0
  6  7  1  0  0  0
  6 26  1  0  0  0
  7  8  1  0  0  0
  7 24  2  0  0  0
  8  9  1  0  0  0
  8 27  1  0  0  0
  8 28  1  0  0  0
  9 10  1  0  0  0
  9 29  1  0  0  0
 10 11  2  0  0  0
 10 12  1  0  0  0
 12 13  1  0  0  0
 12 30  1  0  0  0
 13 14  2  0  0  0
 13 17  1  0  0  0
 14 15  1  0  0  0
 15 16  2  0  0  0
 15 18  1  0  0  0
 16 17  1  0  0  0
 16 31  1  0  0  0
 18 19  2  0  0  0
 18 23  1  0  0  0
 19 20  1  0  0  0
 19 32  1  0  0  0
 20 21  2  0  0  0
 20 33  1  0  0  0
 21 22  1  0  0  0
 22 23  2  0  0  0
 22 34  1  0  0  0
 23 35  1  0  0  0
 24 36  1  0  0  0
M  END
> <s_m_entry_id>
28252

> <s_m_entry_name>
dock_pv.413

> <s_m_Source_Path>
/home/csk/Desktop/cluster/DUD-E-result/rock1

> <s_m_Source_File>
dock_pv.maegz

> <i_m_Source_File_Index>
413

> <chembl_id>
CHEMBL3958434

> <chembl_pref_name>
None

> <i_lp_mmshare_version>
53161

> <r_lp_tautomer_probability>
0.999000488399163

> <s_lp_Force_Field>
OPLS_2005

> <r_lp_Energy>
6.168528

> <b_lp_Chiralities_Consistent>
1

> <s_lp_Variant>
CHEMBL3231_lig560-1

> <s_i_glide_gridfile>
glide-grid_2etr

> <i_i_glide_lignum>
838

> <i_i_glide_rotatable_bonds>
6

> <r_i_docking_score>
-7.52288399645408

> <r_i_glide_ligand_efficiency>
-0.313453499852254

> <r_i_glide_ligand_efficiency_sa>
-0.904156349988713

> <r_i_glide_ligand_efficiency_ln>
-1.80057134300435

> <r_i_glide_gscore>
-7.52288399645408

> <r_i_glide_lipo>
-2.97310990982757

> <r_i_glide_hbond>
-0.107615258279289

> <r_i_glide_metal>
0

> <r_i_glide_rewards>
-2.40005253078941

> <r_i_glide_evdw>
-40.2405242919922

> <r_i_glide_ecoul>
-4.9684739112854

> <r_i_glide_erotb>
0.792379335237943

> <r_i_glide_esite>
-0.0771883315033292

> <r_i_glide_emodel>
-66.6721993118845

> <r_i_glide_energy>
-45.2089982032776

> <r_i_glide_einternal>
2.67676758766174

> <i_i_glide_confnum>
6

> <i_i_glide_posenum>
340

> <r_i_glide_eff_state_penalty>
0

> <s_user_duplicate_titles>
CHEMBL3231_lig560

> <i_f3d_flags>
0

> <s_m_subgroup_title>
dock_pv

> <s_m_subgroupid>
dock_pv

> <b_m_subgroup_collapsed>
1

$$$$
CHEMBL3231_lig681
                    3D
 Schrodinger Suite 2021-1.
 48 51  0  0  1  0            999 V2000
   50.7338  103.6538   28.6439 C   0  0  0  0  0  0
   50.6237  102.3452   28.0949 O   0  0  0  0  0  0
   51.1335  101.2551   28.7779 C   0  0  0  0  0  0
   51.6449  101.3548   30.0833 C   0  0  0  0  0  0
   52.1655  100.2372   30.7444 C   0  0  0  0  0  0
   52.1539   98.9980   30.1032 C   0  0  0  0  0  0
   51.6420   98.8820   28.8170 C   0  0  0  0  0  0
   51.1342   99.9968   28.1355 C   0  0  0  0  0  0
   50.6058   99.7749   26.7472 C   0  0  0  0  0  0
   50.0443  100.6886   25.8645 C   0  0  0  0  0  0
   49.7170   99.9898   24.7424 N   0  0  0  0  0  0
   50.0422   98.7034   24.8140 N   0  0  0  0  0  0
   50.5594   98.5724   26.0112 C   0  0  0  0  0  0
   52.7349  100.3711   32.1292 C   0  0  0  0  0  0
   52.1429  101.0006   33.0069 O   0  0  0  0  0  0
   53.9294   99.7822   32.2965 N   0  0  0  0  0  0
   54.6936   99.7111   33.5396 C   0  0  2  0  0  0
   56.1874   99.5903   33.2065 C   0  0  0  0  0  0
   54.2420   98.5595   34.4334 C   0  0  0  0  0  0
   53.7595   98.8078   35.7284 C   0  0  0  0  0  0
   53.4070   97.7492   36.5684 C   0  0  0  0  0  0
   53.5668   96.4492   36.0952 C   0  0  0  0  0  0
   53.2610   95.3203   36.8031 O   0  0  0  0  0  0
   53.6763   94.1978   36.0153 C   0  0  0  0  0  0
   54.0154   94.7062   34.6106 C   0  0  0  0  0  0
   54.0250   96.1841   34.8204 C   0  0  0  0  0  0
   54.3477   97.2371   33.9718 C   0  0  0  0  0  0
   50.3278  104.3759   27.9340 H   0  0  0  0  0  0
   50.1661  103.7478   29.5693 H   0  0  0  0  0  0
   51.7755  103.9230   28.8261 H   0  0  0  0  0  0
   51.6636  102.3037   30.5943 H   0  0  0  0  0  0
   52.5300   98.1130   30.5984 H   0  0  0  0  0  0
   51.6460   97.9035   28.3658 H   0  0  0  0  0  0
   49.8427  101.7478   25.9318 H   0  0  0  0  0  0
   49.2794  100.3765   23.9117 H   0  0  0  0  0  0
   50.9053   97.6074   26.3415 H   0  0  0  0  0  0
   54.3495   99.3289   31.4995 H   0  0  0  0  0  0
   54.5682  100.6593   34.0710 H   0  0  0  0  0  0
   56.8141   99.7729   34.0793 H   0  0  0  0  0  0
   56.4402   98.6074   32.8139 H   0  0  0  0  0  0
   56.4672  100.3029   32.4324 H   0  0  0  0  0  0
   53.6682   99.8203   36.0912 H   0  0  0  0  0  0
   53.0340   97.9382   37.5643 H   0  0  0  0  0  0
   52.9347   93.4003   36.0057 H   0  0  0  0  0  0
   54.5837   93.7938   36.4680 H   0  0  0  0  0  0
   54.9698   94.3013   34.2718 H   0  0  0  0  0  0
   53.2432   94.4011   33.9043 H   0  0  0  0  0  0
   54.7029   97.0376   32.9716 H   0  0  0  0  0  0
  1  2  1  0  0  0
  1 28  1  0  0  0
  1 29  1  0  0  0
  1 30  1  0  0  0
  2  3  1  0  0  0
  3  4  2  0  0  0
  3  8  1  0  0  0
  4  5  1  0  0  0
  4 31  1  0  0  0
  5  6  2  0  0  0
  5 14  1  0  0  0
  6  7  1  0  0  0
  6 32  1  0  0  0
  7  8  2  0  0  0
  7 33  1  0  0  0
  8  9  1  0  0  0
  9 10  2  0  0  0
  9 13  1  0  0  0
 10 11  1  0  0  0
 10 34  1  0  0  0
 11 12  1  0  0  0
 11 35  1  0  0  0
 12 13  2  0  0  0
 13 36  1  0  0  0
 14 15  2  0  0  0
 14 16  1  0  0  0
 16 17  1  0  0  0
 16 37  1  0  0  0
 17 18  1  0  0  0
 17 19  1  0  0  0
 17 38  1  0  0  0
 18 39  1  0  0  0
 18 40  1  0  0  0
 18 41  1  0  0  0
 19 20  2  0  0  0
 19 27  1  0  0  0
 20 21  1  0  0  0
 20 42  1  0  0  0
 21 22  2  0  0  0
 21 43  1  0  0  0
 22 23  1  0  0  0
 22 26  1  0  0  0
 23 24  1  0  0  0
 24 25  1  0  0  0
 24 44  1  0  0  0
 24 45  1  0  0  0
 25 26  1  0  0  0
 25 46  1  0  0  0
 25 47  1  0  0  0
 26 27  2  0  0  0
 27 48  1  0  0  0
M  END
> <s_m_entry_id>
28253

> <s_m_entry_name>
dock_pv.414

> <s_m_Source_Path>
/home/csk/Desktop/cluster/DUD-E-result/rock1

> <s_m_Source_File>
dock_pv.maegz

> <i_m_Source_File_Index>
414

> <chembl_id>
CHEMBL4110015

> <chembl_pref_name>
None

> <i_lp_mmshare_version>
53161

> <r_lp_tautomer_probability>
0.5

> <s_lp_Force_Field>
OPLS_2005

> <r_lp_Energy>
32.623019

> <b_lp_Chiralities_Consistent>
1

> <s_lp_Variant>
CHEMBL3231_lig681-1

> <s_i_glide_gridfile>
glide-grid_2etr

> <i_i_glide_lignum>
974

> <i_i_glide_rotatable_bonds>
6

> <r_i_docking_score>
-7.52245084897061

> <r_i_glide_ligand_efficiency>
-0.278609290702615

> <r_i_glide_ligand_efficiency_sa>
-0.835827871189595

> <r_i_glide_ligand_efficiency_ln>
-1.75110254034563

> <r_i_glide_gscore>
-7.52245084897061

> <r_i_glide_lipo>
-2.35922825885584

> <r_i_glide_hbond>
-0.474003017019657

> <r_i_glide_metal>
0

> <r_i_glide_rewards>
-2.08881997147793

> <r_i_glide_evdw>
-40.5101509094238

> <r_i_glide_ecoul>
-6.32888650894165

> <r_i_glide_erotb>
0.407345004933483

> <r_i_glide_esite>
-0.0329040847382218

> <r_i_glide_emodel>
-65.3467842383883

> <r_i_glide_energy>
-46.8390374183655

> <r_i_glide_einternal>
5.46544694900513

> <i_i_glide_confnum>
8

> <i_i_glide_posenum>
234

> <r_i_glide_eff_state_penalty>
0

> <s_user_duplicate_titles>
CHEMBL3231_lig681

> <i_f3d_flags>
0

> <s_m_subgroup_title>
dock_pv

> <s_m_subgroupid>
dock_pv

> <b_m_subgroup_collapsed>
1

$$$$
CHEMBL3231_lig1877
                    3D
 Schrodinger Suite 2021-1.
 37 41  0  0  1  0            999 V2000
   55.2376  102.0013   35.1465 C   0  0  0  0  0  0
   55.5655  103.3016   34.7769 C   0  0  0  0  0  0
   55.2687  103.8024   33.5099 C   0  0  0  0  0  0
   54.5841  101.1446   34.2600 C   0  0  0  0  0  0
   54.2482  101.6151   32.9757 C   0  0  0  0  0  0
   54.6170  102.9417   32.6245 C   0  0  0  0  0  0
   54.2199  103.1512   31.3250 N   0  0  0  0  0  0
   53.5620  101.0591   31.8664 C   0  0  0  0  0  0
   53.5502  102.0456   30.8483 C   0  0  0  0  0  0
   52.9408  101.8369   29.6110 C   0  0  0  0  0  0
   52.2311  100.6442   29.3915 C   0  0  0  0  0  0
   52.9278   99.8315   31.5875 C   0  0  0  0  0  0
   52.2562   99.6533   30.3944 C   0  0  0  0  0  0
   51.6148   98.3027   30.4697 C   0  0  0  0  0  0
   52.0484   97.7602   31.6140 N   0  0  0  0  0  0
   52.7903   98.5767   32.3780 C   0  0  0  0  0  0
   50.8431   97.7485   29.6923 O   0  0  0  0  0  0
   53.2219   98.3054   33.4939 O   0  0  0  0  0  0
   55.5609  101.5675   36.4052 O   0  0  0  0  0  0
   51.5182  100.4827   28.0800 C   0  0  0  0  0  0
   50.7498  101.5174   27.5072 C   0  0  0  0  0  0
   50.1887  101.3604   26.2365 C   0  0  0  0  0  0
   50.3147  100.1607   25.5424 C   0  0  0  0  0  0
   51.0297   99.1143   26.1142 C   0  0  0  0  0  0
   51.6381   99.2886   27.3531 C   0  0  0  0  0  0
   50.4430  103.0133   28.3333 Cl  0  0  0  0  0  0
   56.0752  103.9324   35.4879 H   0  0  0  0  0  0
   55.5443  104.8061   33.2132 H   0  0  0  0  0  0
   54.3347  100.1443   34.5698 H   0  0  0  0  0  0
   54.3883  104.0066   30.8114 H   0  0  0  0  0  0
   53.0014  102.5993   28.8488 H   0  0  0  0  0  0
   51.7942   96.8255   31.9063 H   0  0  0  0  0  0
   55.4535  100.6210   36.5189 H   0  0  0  0  0  0
   49.6424  102.1766   25.7907 H   0  0  0  0  0  0
   49.8565  100.0432   24.5707 H   0  0  0  0  0  0
   51.1296   98.1671   25.6074 H   0  0  0  0  0  0
   52.2063   98.4642   27.7508 H   0  0  0  0  0  0
  1  2  2  0  0  0
  1 19  1  0  0  0
  1  4  1  0  0  0
  2  3  1  0  0  0
  2 27  1  0  0  0
  3  6  2  0  0  0
  3 28  1  0  0  0
  4  5  2  0  0  0
  4 29  1  0  0  0
  5  8  1  0  0  0
  5  6  1  0  0  0
  6  7  1  0  0  0
  7  9  1  0  0  0
  7 30  1  0  0  0
  8  9  2  0  0  0
  8 12  1  0  0  0
  9 10  1  0  0  0
 10 11  2  0  0  0
 10 31  1  0  0  0
 11 13  1  0  0  0
 11 20  1  0  0  0
 12 13  2  0  0  0
 12 16  1  0  0  0
 13 14  1  0  0  0
 14 15  1  0  0  0
 14 17  2  0  0  0
 15 16  1  0  0  0
 15 32  1  0  0  0
 16 18  2  0  0  0
 19 33  1  0  0  0
 20 21  2  0  0  0
 20 25  1  0  0  0
 21 22  1  0  0  0
 21 26  1  0  0  0
 22 23  2  0  0  0
 22 34  1  0  0  0
 23 24  1  0  0  0
 23 35  1  0  0  0
 24 25  2  0  0  0
 24 36  1  0  0  0
 25 37  1  0  0  0
M  END
> <s_m_entry_id>
28254

> <s_m_entry_name>
dock_pv.415

> <s_m_Source_Path>
/home/csk/Desktop/cluster/DUD-E-result/rock1

> <s_m_Source_File>
dock_pv.maegz

> <i_m_Source_File_Index>
415

> <chembl_id>
CHEMBL379975

> <chembl_pref_name>
None

> <i_lp_mmshare_version>
53161

> <r_lp_tautomer_probability>
1

> <s_lp_Force_Field>
OPLS_2005

> <r_lp_Energy>
66.786592

> <b_lp_Chiralities_Consistent>
1

> <s_lp_Variant>
CHEMBL3231_lig1877-1

> <s_i_glide_gridfile>
glide-grid_2etr

> <i_i_glide_lignum>
2720

> <i_i_glide_rotatable_bonds>
2

> <r_i_docking_score>
-7.51557147667395

> <r_i_glide_ligand_efficiency>
-0.289060441410536

> <r_i_glide_ligand_efficiency_sa>
-0.8563404202808

> <r_i_glide_ligand_efficiency_ln>
-1.76500730069545

> <r_i_glide_gscore>
-7.51557147667395

> <r_i_glide_lipo>
-2.04667863317245

> <r_i_glide_hbond>
-0.386588175511388

> <r_i_glide_metal>
0

> <r_i_glide_rewards>
-2.3913236976052

> <r_i_glide_evdw>
-40.0884857177734

> <r_i_glide_ecoul>
-5.13434219360352

> <r_i_glide_erotb>
0.145941509380587

> <r_i_glide_esite>
-0.0623468648362971

> <r_i_glide_emodel>
-64.6407766646481

> <r_i_glide_energy>
-45.222827911377

> <r_i_glide_einternal>
3.07264280319214

> <i_i_glide_confnum>
1

> <i_i_glide_posenum>
194

> <r_i_glide_eff_state_penalty>
0

> <s_user_duplicate_titles>
CHEMBL3231_lig1877

> <i_f3d_flags>
0

> <s_m_subgroup_title>
dock_pv

> <s_m_subgroupid>
dock_pv

> <b_m_subgroup_collapsed>
1

$$$$
CHEMBL3231_lig295
                    3D
 Schrodinger Suite 2021-1.
 27 29  0  0  1  0            999 V2000
   51.5956  102.0687   28.9802 C   0  0  0  0  0  0
   51.8549  100.6944   28.8238 C   0  0  0  0  0  0
   52.7630  100.0677   29.7000 C   0  0  0  0  0  0
   52.2138  102.8466   29.9565 C   0  0  0  0  0  0
   53.1198  102.2305   30.8265 C   0  0  0  0  0  0
   53.3776  100.8485   30.6852 C   0  0  0  0  0  0
   54.3027  100.5486   31.6677 N   0  0  0  0  0  0
   54.6173  101.6269   32.4117 N   0  0  0  0  0  0
   53.9402  102.6331   31.9252 C   0  0  0  0  0  0
   54.0378  103.9022   32.4171 N   0  0  0  0  0  0
   51.1976   99.9125   27.7164 C   0  0  0  0  0  0
   51.2123   98.5087   27.6468 C   0  0  0  0  0  0
   50.6325   97.9029   26.5282 C   0  0  0  0  0  0
   50.0423   98.6146   25.5387 N   0  0  0  0  0  0
   50.0057   99.9548   25.7202 C   0  0  0  0  0  0
   50.5622  100.6354   26.7486 N   0  0  0  0  0  0
   49.2776  100.7024   24.8110 N   0  0  0  0  0  0
   50.9020  102.5663   28.3179 H   0  0  0  0  0  0
   53.0114   99.0225   29.6139 H   0  0  0  0  0  0
   52.0083  103.9019   30.0371 H   0  0  0  0  0  0
   54.7497   99.6603   31.8487 H   0  0  0  0  0  0
   54.2626  104.6489   31.7683 H   0  0  0  0  0  0
   54.5015  104.0328   33.3036 H   0  0  0  0  0  0
   51.6444   97.9028   28.4232 H   0  0  0  0  0  0
   50.6157   96.8304   26.4112 H   0  0  0  0  0  0
   49.2543  101.7022   24.9382 H   0  0  0  0  0  0
   48.9791  100.2882   23.9302 H   0  0  0  0  0  0
  1  4  1  0  0  0
  1  2  2  0  0  0
  1 18  1  0  0  0
  2  3  1  0  0  0
  2 11  1  0  0  0
  3  6  2  0  0  0
  3 19  1  0  0  0
  4  5  2  0  0  0
  4 20  1  0  0  0
  5  9  1  0  0  0
  5  6  1  0  0  0
  6  7  1  0  0  0
  7  8  1  0  0  0
  7 21  1  0  0  0
  8  9  2  0  0  0
  9 10  1  0  0  0
 10 22  1  0  0  0
 10 23  1  0  0  0
 11 12  2  0  0  0
 11 16  1  0  0  0
 12 13  1  0  0  0
 12 24  1  0  0  0
 13 14  2  0  0  0
 13 25  1  0  0  0
 14 15  1  0  0  0
 15 16  2  0  0  0
 15 17  1  0  0  0
 17 26  1  0  0  0
 17 27  1  0  0  0
M  END
> <s_m_entry_id>
28255

> <s_m_entry_name>
dock_pv.416

> <s_m_Source_Path>
/home/csk/Desktop/cluster/DUD-E-result/rock1

> <s_m_Source_File>
dock_pv.maegz

> <i_m_Source_File_Index>
416

> <chembl_id>
CHEMBL1688215

> <chembl_pref_name>
None

> <i_lp_mmshare_version>
53161

> <r_lp_tautomer_probability>
0.999999987636

> <s_lp_Force_Field>
OPLS_2005

> <r_lp_Energy>
0.711046

> <b_lp_Chiralities_Consistent>
1

> <s_lp_Variant>
CHEMBL3231_lig295-1

> <s_i_glide_gridfile>
glide-grid_2etr

> <i_i_glide_lignum>
443

> <i_i_glide_rotatable_bonds>
1

> <r_i_docking_score>
-7.51320271492484

> <r_i_glide_ligand_efficiency>
-0.441953100877932

> <r_i_glide_ligand_efficiency_sa>
-1.13638587114854

> <r_i_glide_ligand_efficiency_ln>
-1.96002727752548

> <r_i_glide_gscore>
-7.51320271492484

> <r_i_glide_lipo>
-1.34455276989525

> <r_i_glide_hbond>
-0.496869412727136

> <r_i_glide_metal>
0

> <r_i_glide_rewards>
-3.41656386363636

> <r_i_glide_evdw>
-32.7947654724121

> <r_i_glide_ecoul>
-5.71247482299805

> <r_i_glide_erotb>
0.331946627825303

> <r_i_glide_esite>
-0.0905537994210763

> <r_i_glide_emodel>
-54.7074320657349

> <r_i_glide_energy>
-38.5072402954102

> <r_i_glide_einternal>
0.633063733577728

> <i_i_glide_confnum>
3

> <i_i_glide_posenum>
192

> <r_i_glide_eff_state_penalty>
0

> <s_user_duplicate_titles>
CHEMBL3231_lig295

> <i_f3d_flags>
0

> <s_m_subgroup_title>
dock_pv

> <s_m_subgroupid>
dock_pv

> <b_m_subgroup_collapsed>
1

$$$$
CHEMBL3231_lig858
                    3D
 Schrodinger Suite 2021-1.
 54 56  0  0  1  0            999 V2000
   51.1767  103.9041   29.1156 C   0  0  0  0  0  0
   51.7317  103.9015   30.4256 O   0  0  0  0  0  0
   53.1653  103.8807   30.4910 C   0  0  0  0  0  0
   53.7706  102.5609   30.0006 C   0  0  0  0  0  0
   53.3126  101.4861   30.8132 O   0  0  0  0  0  0
   52.6451  100.3884   30.2983 C   0  0  0  0  0  0
   52.1746  100.2908   28.9774 C   0  0  0  0  0  0
   51.4617   99.1730   28.5367 C   0  0  0  0  0  0
   51.2430   98.1185   29.4271 C   0  0  0  0  0  0
   51.6924   98.1980   30.7419 C   0  0  0  0  0  0
   52.3908   99.3266   31.1814 C   0  0  0  0  0  0
   52.8501   99.3748   32.6084 C   0  0  0  0  0  0
   52.0428   99.4961   33.5300 O   0  0  0  0  0  0
   54.1731   99.2145   32.7759 N   0  0  0  0  0  0
   54.8155   98.8557   34.0401 C   0  0  2  0  0  0
   56.3090   99.2131   34.0095 C   0  0  0  0  0  0
   54.5784   97.3817   34.3798 C   0  0  0  0  0  0
   53.8952   97.0272   35.5476 C   0  0  0  0  0  0
   53.6164   95.6890   35.8187 C   0  0  0  0  0  0
   54.0106   94.7001   34.9193 C   0  0  0  0  0  0
   54.7286   95.0230   33.7674 C   0  0  0  0  0  0
   55.1136   93.9741   32.9566 O   0  0  0  0  0  0
   56.1287   94.2062   31.9842 C   0  0  0  0  0  0
   55.0075   96.3733   33.5046 C   0  0  0  0  0  0
   50.9158   99.1264   27.1452 C   0  0  0  0  0  0
   50.6797  100.1830   26.2722 C   0  0  0  0  0  0
   50.1517   99.6315   25.1377 N   0  0  0  0  0  0
   50.0430   98.3041   25.2112 N   0  0  0  0  0  0
   50.4948   98.0054   26.4059 C   0  0  0  0  0  0
   50.1004  104.0583   29.1790 H   0  0  0  0  0  0
   51.5877  104.7035   28.4985 H   0  0  0  0  0  0
   51.3347  102.9604   28.5992 H   0  0  0  0  0  0
   53.4461  104.0358   31.5334 H   0  0  0  0  0  0
   53.6395  104.7026   29.9425 H   0  0  0  0  0  0
   54.8429  102.6240   30.1450 H   0  0  0  0  0  0
   53.6436  102.4531   28.9284 H   0  0  0  0  0  0
   52.3385  101.0717   28.2586 H   0  0  0  0  0  0
   50.6966   97.2400   29.1156 H   0  0  0  0  0  0
   51.4946   97.3729   31.4149 H   0  0  0  0  0  0
   54.7645   99.2219   31.9587 H   0  0  0  0  0  0
   54.3792   99.4733   34.8290 H   0  0  0  0  0  0
   56.8011   98.9602   34.9512 H   0  0  0  0  0  0
   56.8389   98.6924   33.2103 H   0  0  0  0  0  0
   56.4433  100.2835   33.8513 H   0  0  0  0  0  0
   53.5605   97.7871   36.2385 H   0  0  0  0  0  0
   53.0783   95.4179   36.7135 H   0  0  0  0  0  0
   53.7717   93.6674   35.1239 H   0  0  0  0  0  0
   56.4466   93.2443   31.5852 H   0  0  0  0  0  0
   55.7585   94.8132   31.1555 H   0  0  0  0  0  0
   57.0084   94.6856   32.4213 H   0  0  0  0  0  0
   55.5407   96.6593   32.6102 H   0  0  0  0  0  0
   50.8204  101.2495   26.3603 H   0  0  0  0  0  0
   49.8599  100.1490   24.3184 H   0  0  0  0  0  0
   50.5229   96.9806   26.7503 H   0  0  0  0  0  0
  1  2  1  0  0  0
  1 30  1  0  0  0
  1 31  1  0  0  0
  1 32  1  0  0  0
  2  3  1  0  0  0
  3  4  1  0  0  0
  3 33  1  0  0  0
  3 34  1  0  0  0
  4  5  1  0  0  0
  4 35  1  0  0  0
  4 36  1  0  0  0
  5  6  1  0  0  0
  6  7  2  0  0  0
  6 11  1  0  0  0
  7  8  1  0  0  0
  7 37  1  0  0  0
  8  9  2  0  0  0
  8 25  1  0  0  0
  9 10  1  0  0  0
  9 38  1  0  0  0
 10 11  2  0  0  0
 10 39  1  0  0  0
 11 12  1  0  0  0
 12 13  2  0  0  0
 12 14  1  0  0  0
 14 15  1  0  0  0
 14 40  1  0  0  0
 15 16  1  0  0  0
 15 17  1  0  0  0
 15 41  1  0  0  0
 16 42  1  0  0  0
 16 43  1  0  0  0
 16 44  1  0  0  0
 17 18  2  0  0  0
 17 24  1  0  0  0
 18 19  1  0  0  0
 18 45  1  0  0  0
 19 20  2  0  0  0
 19 46  1  0  0  0
 20 21  1  0  0  0
 20 47  1  0  0  0
 21 22  1  0  0  0
 21 24  2  0  0  0
 22 23  1  0  0  0
 23 48  1  0  0  0
 23 49  1  0  0  0
 23 50  1  0  0  0
 24 51  1  0  0  0
 25 26  2  0  0  0
 25 29  1  0  0  0
 26 27  1  0  0  0
 26 52  1  0  0  0
 27 28  1  0  0  0
 27 53  1  0  0  0
 28 29  2  0  0  0
 29 54  1  0  0  0
M  END
> <s_m_entry_id>
28256

> <s_m_entry_name>
dock_pv.417

> <s_m_Source_Path>
/home/csk/Desktop/cluster/DUD-E-result/rock1

> <s_m_Source_File>
dock_pv.maegz

> <i_m_Source_File_Index>
417

> <chembl_id>
CHEMBL4110456

> <chembl_pref_name>
None

> <i_lp_mmshare_version>
53161

> <r_lp_tautomer_probability>
0.5

> <s_lp_Force_Field>
OPLS_2005

> <r_lp_Energy>
25.203905

> <b_lp_Chiralities_Consistent>
1

> <s_lp_Variant>
CHEMBL3231_lig858-1

> <s_i_glide_gridfile>
glide-grid_2etr

> <i_i_glide_lignum>
1211

> <i_i_glide_rotatable_bonds>
10

> <r_i_docking_score>
-7.51295549598554

> <r_i_glide_ligand_efficiency>
-0.259067430896053

> <r_i_glide_ligand_efficiency_sa>
-0.795937226035765

> <r_i_glide_ligand_efficiency_ln>
-1.72027629646715

> <r_i_glide_gscore>
-7.51295549598554

> <r_i_glide_lipo>
-2.39891268542608

> <r_i_glide_hbond>
-0.614424189163628

> <r_i_glide_metal>
0

> <r_i_glide_rewards>
-1.78197804413866

> <r_i_glide_evdw>
-47.5532302856445

> <r_i_glide_ecoul>
-8.67256450653076

> <r_i_glide_erotb>
1.00037193449526

> <r_i_glide_esite>
-0.0394663214906018

> <r_i_glide_emodel>
-76.2036091969904

> <r_i_glide_energy>
-56.2257947921753

> <r_i_glide_einternal>
13.1919851303101

> <i_i_glide_confnum>
41

> <i_i_glide_posenum>
237

> <r_i_glide_eff_state_penalty>
0

> <s_user_duplicate_titles>
CHEMBL3231_lig858

> <i_f3d_flags>
0

> <s_m_subgroup_title>
dock_pv

> <s_m_subgroupid>
dock_pv

> <b_m_subgroup_collapsed>
1

$$$$
CHEMBL3231_lig366
                    3D
 Schrodinger Suite 2021-1.
 46 49  0  0  1  0            999 V2000
   51.9696  100.9898   28.5245 C   0  0  0  0  0  0
   51.3853   99.7813   28.1401 C   0  0  0  0  0  0
   51.4097   98.6721   28.9930 C   0  0  0  0  0  0
   52.6188  101.1311   29.7474 C   0  0  0  0  0  0
   52.6895  100.0348   30.6274 C   0  0  0  0  0  0
   52.0655   98.8114   30.2208 C   0  0  0  0  0  0
   52.2749   97.9028   31.2332 N   0  0  0  0  0  0
   53.0171   98.4846   32.2285 C   0  0  0  0  0  0
   53.2941   99.8093   31.9264 C   0  0  0  0  0  0
   54.0859  100.6624   32.7785 C   0  0  0  0  0  0
   54.0313  101.9660   32.4621 N   0  0  0  0  0  0
   54.7426  100.2108   33.7174 O   0  0  0  0  0  0
   54.7853  103.0411   33.1072 C   0  0  0  0  0  0
   54.5678  103.2053   34.6383 C   0  0  0  0  0  0
   55.3964  104.3735   35.2276 C   0  0  0  0  0  0
   54.8450  105.7595   34.8210 C   0  0  0  0  0  0
   53.3517  105.9017   35.1903 C   0  0  0  0  0  0
   52.5024  104.7389   34.6371 C   0  0  0  0  0  0
   53.0822  103.3700   35.0537 C   0  0  0  0  0  0
   50.7613   99.6584   26.7881 C   0  0  0  0  0  0
   50.3246  100.6633   25.9342 C   0  0  0  0  0  0
   49.8605  100.0357   24.8112 N   0  0  0  0  0  0
   49.9725   98.7091   24.8801 N   0  0  0  0  0  0
   50.4957   98.4844   26.0597 C   0  0  0  0  0  0
   51.9448  101.8333   27.8536 H   0  0  0  0  0  0
   50.9539   97.7348   28.7113 H   0  0  0  0  0  0
   53.0871  102.0724   29.9882 H   0  0  0  0  0  0
   51.9816   96.9350   31.2719 H   0  0  0  0  0  0
   53.3031   97.8935   33.0912 H   0  0  0  0  0  0
   53.4339  102.2327   31.6983 H   0  0  0  0  0  0
   54.4592  103.9539   32.6069 H   0  0  0  0  0  0
   55.8465  102.9855   32.8593 H   0  0  0  0  0  0
   54.9414  102.3033   35.1310 H   0  0  0  0  0  0
   56.4418  104.2815   34.9167 H   0  0  0  0  0  0
   55.4008  104.2969   36.3156 H   0  0  0  0  0  0
   54.9704  105.9139   33.7479 H   0  0  0  0  0  0
   55.4167  106.5523   35.3046 H   0  0  0  0  0  0
   52.9686  106.8522   34.8151 H   0  0  0  0  0  0
   53.2497  105.9395   36.2732 H   0  0  0  0  0  0
   52.4546  104.8091   33.5502 H   0  0  0  0  0  0
   51.4750  104.8293   34.9910 H   0  0  0  0  0  0
   52.9923  103.2541   36.1345 H   0  0  0  0  0  0
   52.4757  102.5734   34.6208 H   0  0  0  0  0  0
   50.3069  101.7403   26.0217 H   0  0  0  0  0  0
   49.4709  100.4926   23.9927 H   0  0  0  0  0  0
   50.7055   97.4788   26.3905 H   0  0  0  0  0  0
  1  2  2  0  0  0
  1  4  1  0  0  0
  1 25  1  0  0  0
  2  3  1  0  0  0
  2 20  1  0  0  0
  3  6  2  0  0  0
  3 26  1  0  0  0
  4  5  2  0  0  0
  4 27  1  0  0  0
  5  9  1  0  0  0
  5  6  1  0  0  0
  6  7  1  0  0  0
  7  8  1  0  0  0
  7 28  1  0  0  0
  8  9  2  0  0  0
  8 29  1  0  0  0
  9 10  1  0  0  0
 10 12  2  0  0  0
 10 11  1  0  0  0
 11 13  1  0  0  0
 11 30  1  0  0  0
 13 14  1  0  0  0
 13 31  1  0  0  0
 13 32  1  0  0  0
 14 15  1  0  0  0
 14 19  1  0  0  0
 14 33  1  0  0  0
 15 16  1  0  0  0
 15 34  1  0  0  0
 15 35  1  0  0  0
 16 17  1  0  0  0
 16 36  1  0  0  0
 16 37  1  0  0  0
 17 18  1  0  0  0
 17 38  1  0  0  0
 17 39  1  0  0  0
 18 19  1  0  0  0
 18 40  1  0  0  0
 18 41  1  0  0  0
 19 42  1  0  0  0
 19 43  1  0  0  0
 20 21  2  0  0  0
 20 24  1  0  0  0
 21 22  1  0  0  0
 21 44  1  0  0  0
 22 23  1  0  0  0
 22 45  1  0  0  0
 23 24  2  0  0  0
 24 46  1  0  0  0
M  END
> <s_m_entry_id>
28257

> <s_m_entry_name>
dock_pv.418

> <s_m_Source_Path>
/home/csk/Desktop/cluster/DUD-E-result/rock1

> <s_m_Source_File>
dock_pv.maegz

> <i_m_Source_File_Index>
418

> <chembl_id>
CHEMBL1923175

> <chembl_pref_name>
None

> <i_lp_mmshare_version>
53161

> <r_lp_tautomer_probability>
0.5

> <s_lp_Force_Field>
OPLS_2005

> <r_lp_Energy>
18.465107

> <b_lp_Chiralities_Consistent>
1

> <s_lp_Variant>
CHEMBL3231_lig366-1

> <s_i_glide_gridfile>
glide-grid_2etr

> <i_i_glide_lignum>
516

> <i_i_glide_rotatable_bonds>
5

> <r_i_docking_score>
-7.51235006616985

> <r_i_glide_ligand_efficiency>
-0.31301458609041

> <r_i_glide_ligand_efficiency_sa>
-0.902890303621213

> <r_i_glide_ligand_efficiency_ln>
-1.79805009011677

> <r_i_glide_gscore>
-7.51235006616985

> <r_i_glide_lipo>
-1.91337845746922

> <r_i_glide_hbond>
-0.434453161894758

> <r_i_glide_metal>
0

> <r_i_glide_rewards>
-3.14744222108218

> <r_i_glide_evdw>
-37.8830604553223

> <r_i_glide_ecoul>
-3.9079155921936

> <r_i_glide_erotb>
0.503727017157145

> <r_i_glide_esite>
-0.0404628812856703

> <r_i_glide_emodel>
-60.2847623217023

> <r_i_glide_energy>
-41.7909760475159

> <r_i_glide_einternal>
3.61499381065369

> <i_i_glide_confnum>
10

> <i_i_glide_posenum>
139

> <r_i_glide_eff_state_penalty>
0

> <s_user_duplicate_titles>
CHEMBL3231_lig366

> <i_f3d_flags>
0

> <s_m_subgroup_title>
dock_pv

> <s_m_subgroupid>
dock_pv

> <b_m_subgroup_collapsed>
1

$$$$
CHEMBL3231_lig914
                    3D
 Schrodinger Suite 2021-1.
 34 36  0  0  1  0            999 V2000
   53.8681  100.7535   34.4359 C   0  0  0  0  0  0
   53.6133  100.9758   32.9268 C   0  0  0  0  0  0
   54.9656  101.1079   32.1768 C   0  0  0  0  0  0
   52.7588   99.8929   32.3390 N   0  0  0  0  0  0
   52.8409  102.2490   32.8255 N   0  0  0  0  0  0
   52.1695  102.6763   31.7255 C   0  0  0  0  0  0
   52.2785  100.2469   31.0932 C   0  0  0  0  0  0
   52.0427  101.5908   30.7840 C   0  0  0  0  0  0
   51.4099  101.7938   29.1820 S   0  0  0  0  0  0
   51.4628  100.0755   28.8860 C   0  0  0  0  0  0
   51.9730   99.4119   30.0049 C   0  0  0  0  0  0
   50.9731   99.4962   27.5908 C   0  0  0  0  0  0
   50.9033   98.1022   27.4531 C   0  0  0  0  0  0
   50.4433   97.5542   26.2578 C   0  0  0  0  0  0
   50.0430   98.3122   25.2110 N   0  0  0  0  0  0
   50.1049   99.6601   25.3412 C   0  0  0  0  0  0
   50.5629  100.2855   26.5024 C   0  0  0  0  0  0
   51.6432  103.7857   31.6857 O   0  0  0  0  0  0
   53.2771   98.5337   32.5352 C   0  0  0  0  0  0
   52.9408  100.5792   34.9831 H   0  0  0  0  0  0
   54.5275   99.9053   34.6213 H   0  0  0  0  0  0
   54.3564  101.6190   34.8865 H   0  0  0  0  0  0
   54.8398  101.2532   31.1043 H   0  0  0  0  0  0
   55.5363  101.9623   32.5421 H   0  0  0  0  0  0
   55.5953  100.2271   32.3072 H   0  0  0  0  0  0
   52.4827  102.6383   33.6827 H   0  0  0  0  0  0
   52.0993   98.3411   30.0445 H   0  0  0  0  0  0
   51.2016   97.4389   28.2503 H   0  0  0  0  0  0
   50.3991   96.4828   26.1264 H   0  0  0  0  0  0
   49.7780  100.2406   24.4892 H   0  0  0  0  0  0
   50.5908  101.3640   26.5430 H   0  0  0  0  0  0
   52.5576   97.7913   32.1882 H   0  0  0  0  0  0
   53.4561   98.3104   33.5858 H   0  0  0  0  0  0
   54.2079   98.3799   31.9874 H   0  0  0  0  0  0
  1  2  1  0  0  0
  1 20  1  0  0  0
  1 21  1  0  0  0
  1 22  1  0  0  0
  2  3  1  0  0  0
  2  4  1  0  0  0
  2  5  1  0  0  0
  3 23  1  0  0  0
  3 24  1  0  0  0
  3 25  1  0  0  0
  4  7  1  0  0  0
  4 19  1  0  0  0
  5  6  1  0  0  0
  5 26  1  0  0  0
  6  8  1  0  0  0
  6 18  2  0  0  0
  7  8  2  0  0  0
  7 11  1  0  0  0
  8  9  1  0  0  0
  9 10  1  0  0  0
 10 11  2  0  0  0
 10 12  1  0  0  0
 11 27  1  0  0  0
 12 13  2  0  0  0
 12 17  1  0  0  0
 13 14  1  0  0  0
 13 28  1  0  0  0
 14 15  2  0  0  0
 14 29  1  0  0  0
 15 16  1  0  0  0
 16 17  2  0  0  0
 16 30  1  0  0  0
 17 31  1  0  0  0
 19 32  1  0  0  0
 19 33  1  0  0  0
 19 34  1  0  0  0
M  END
> <s_m_entry_id>
28258

> <s_m_entry_name>
dock_pv.419

> <s_m_Source_Path>
/home/csk/Desktop/cluster/DUD-E-result/rock1

> <s_m_Source_File>
dock_pv.maegz

> <i_m_Source_File_Index>
419

> <chembl_id>
CHEMBL4210511

> <chembl_pref_name>
None

> <i_lp_mmshare_version>
53161

> <r_lp_tautomer_probability>
1

> <s_lp_Force_Field>
OPLS_2005

> <r_lp_Energy>
19.467491

> <b_lp_Chiralities_Consistent>
1

> <s_lp_Variant>
CHEMBL3231_lig914-1

> <s_i_glide_gridfile>
glide-grid_2etr

> <i_i_glide_lignum>
1312

> <i_i_glide_rotatable_bonds>
1

> <r_i_docking_score>
-7.50779764031647

> <r_i_glide_ligand_efficiency>
-0.395147244227183

> <r_i_glide_ligand_efficiency_sa>
-1.05441155694886

> <r_i_glide_ligand_efficiency_ln>
-1.90338795452809

> <r_i_glide_gscore>
-7.50779764031647

> <r_i_glide_lipo>
-2.05700976525637

> <r_i_glide_hbond>
-0.387938809020383

> <r_i_glide_metal>
0

> <r_i_glide_rewards>
-2.91197757575758

> <r_i_glide_evdw>
-31.4909172058105

> <r_i_glide_ecoul>
-4.96146392822266

> <r_i_glide_erotb>
0.240059414020591

> <r_i_glide_esite>
-0.0721654547788049

> <r_i_glide_emodel>
-54.1251221543452

> <r_i_glide_energy>
-36.4523811340332

> <r_i_glide_einternal>
0.0875549465417862

> <i_i_glide_confnum>
1

> <i_i_glide_posenum>
10

> <r_i_glide_eff_state_penalty>
0

> <s_user_duplicate_titles>
CHEMBL3231_lig914

> <i_f3d_flags>
0

> <s_m_subgroup_title>
dock_pv

> <s_m_subgroupid>
dock_pv

> <b_m_subgroup_collapsed>
1

$$$$
CHEMBL3231_lig941 
                    3D
 Schrodinger Suite 2021-1.
 45 47  0  0  1  0            999 V2000
   50.4328   97.8104   26.4094 C   0  0  0  0  0  0
   50.0430   98.3033   25.2110 N   0  0  0  0  0  0
   50.0880   99.6454   25.0285 C   0  0  0  0  0  0
   50.5322  100.5245   26.0154 C   0  0  0  0  0  0
   50.9343  100.0136   27.2597 C   0  0  0  0  0  0
   50.8699   98.6243   27.4516 C   0  0  0  0  0  0
   51.4292  100.9119   28.3399 C   0  0  0  0  0  0
   50.8978  102.1955   28.5080 C   0  0  0  0  0  0
   51.3730  103.0324   29.5124 C   0  0  0  0  0  0
   52.3830  102.5982   30.3794 C   0  0  0  0  0  0
   52.9173  101.3150   30.2134 C   0  0  0  0  0  0
   52.4428  100.4855   29.2049 C   0  0  0  0  0  0
   52.8284  103.4847   31.5147 C   0  0  0  0  0  0
   54.0789  103.2984   31.9766 N   0  0  0  0  0  0
   52.0432  104.3030   31.9968 O   0  0  0  0  0  0
   54.6202  103.8771   33.2105 C   0  0  0  0  0  0
   54.2537  103.0598   34.4472 C   0  0  0  0  0  0
   55.2309  102.3639   35.1658 C   0  0  0  0  0  0
   54.8706  101.5964   36.2742 C   0  0  0  0  0  0
   53.5314  101.5088   36.6616 C   0  0  0  0  0  0
   52.5395  102.1933   35.9559 C   0  0  0  0  0  0
   52.9231  102.9971   34.8723 C   0  0  0  0  0  0
   51.2285  102.0230   36.3617 O   0  0  0  0  0  0
   50.1849  102.5093   35.5183 C   0  0  0  0  0  0
   48.8450  101.9671   36.0110 C   0  0  0  0  0  0
   50.3926   96.7368   26.5250 H   0  0  0  0  0  0
   49.7718  100.0128   24.0619 H   0  0  0  0  0  0
   50.5699  101.5834   25.8069 H   0  0  0  0  0  0
   51.1584   98.1740   28.3902 H   0  0  0  0  0  0
   50.1108  102.5533   27.8603 H   0  0  0  0  0  0
   50.9463  104.0194   29.6106 H   0  0  0  0  0  0
   53.6919  100.9375   30.8667 H   0  0  0  0  0  0
   52.8826   99.5049   29.0978 H   0  0  0  0  0  0
   54.6858  102.6674   31.4733 H   0  0  0  0  0  0
   54.2512  104.8981   33.3422 H   0  0  0  0  0  0
   55.7045  103.9546   33.1134 H   0  0  0  0  0  0
   56.2683  102.3986   34.8624 H   0  0  0  0  0  0
   55.6286  101.0527   36.8201 H   0  0  0  0  0  0
   53.2575  100.8909   37.5044 H   0  0  0  0  0  0
   52.1833  103.5613   34.3308 H   0  0  0  0  0  0
   50.3336  102.1823   34.4871 H   0  0  0  0  0  0
   50.1706  103.6003   35.5276 H   0  0  0  0  0  0
   48.0221  102.3070   35.3818 H   0  0  0  0  0  0
   48.6470  102.3028   37.0288 H   0  0  0  0  0  0
   48.8424  100.8765   36.0080 H   0  0  0  0  0  0
  1  2  2  0  0  0
  1  6  1  0  0  0
  1 26  1  0  0  0
  2  3  1  0  0  0
  3  4  2  0  0  0
  3 27  1  0  0  0
  4  5  1  0  0  0
  4 28  1  0  0  0
  5  6  2  0  0  0
  5  7  1  0  0  0
  6 29  1  0  0  0
  7  8  2  0  0  0
  7 12  1  0  0  0
  8  9  1  0  0  0
  8 30  1  0  0  0
  9 10  2  0  0  0
  9 31  1  0  0  0
 10 11  1  0  0  0
 10 13  1  0  0  0
 11 12  2  0  0  0
 11 32  1  0  0  0
 12 33  1  0  0  0
 13 14  1  0  0  0
 13 15  2  0  0  0
 14 16  1  0  0  0
 14 34  1  0  0  0
 16 17  1  0  0  0
 16 35  1  0  0  0
 16 36  1  0  0  0
 17 18  2  0  0  0
 17 22  1  0  0  0
 18 19  1  0  0  0
 18 37  1  0  0  0
 19 20  2  0  0  0
 19 38  1  0  0  0
 20 21  1  0  0  0
 20 39  1  0  0  0
 21 22  2  0  0  0
 21 23  1  0  0  0
 22 40  1  0  0  0
 23 24  1  0  0  0
 24 25  1  0  0  0
 24 41  1  0  0  0
 24 42  1  0  0  0
 25 43  1  0  0  0
 25 44  1  0  0  0
 25 45  1  0  0  0
M  END
> <s_m_entry_id>
28259

> <s_m_entry_name>
dock_pv.420

> <s_m_Source_Path>
/home/csk/Desktop/cluster/DUD-E-result/rock1

> <s_m_Source_File>
dock_pv.maegz

> <i_m_Source_File_Index>
420

> <chembl_id>
CHEMBL4454552

> <chembl_pref_name>
None

> <i_lp_mmshare_version>
53161

> <r_lp_tautomer_probability>
1

> <s_lp_Force_Field>
OPLS_2005

> <r_lp_Energy>
16.496192

> <b_lp_Chiralities_Consistent>
1

> <s_lp_Variant>
CHEMBL3231_lig941 -1

> <s_i_glide_gridfile>
glide-grid_2etr

> <i_i_glide_lignum>
1355

> <i_i_glide_rotatable_bonds>
7

> <r_i_docking_score>
-7.50760065911079

> <r_i_glide_ligand_efficiency>
-0.300304026364432

> <r_i_glide_ligand_efficiency_sa>
-0.878094299004184

> <r_i_glide_ligand_efficiency_ln>
-1.77952634084587

> <r_i_glide_gscore>
-7.50760065911079

> <r_i_glide_lipo>
-2.73898528650564

> <r_i_glide_hbond>
-0.301408424610374

> <r_i_glide_metal>
0

> <r_i_glide_rewards>
-2.49498880418785

> <r_i_glide_evdw>
-42.9284172058105

> <r_i_glide_ecoul>
-5.07228469848633

> <r_i_glide_erotb>
1.02277610095143

> <r_i_glide_esite>
-0.0877306796948833

> <r_i_glide_emodel>
-69.3715825821155

> <r_i_glide_energy>
-48.0007019042969

> <r_i_glide_einternal>
2.29179191589355

> <i_i_glide_confnum>
70

> <i_i_glide_posenum>
178

> <r_i_glide_eff_state_penalty>
0

> <s_user_duplicate_titles>
CHEMBL3231_lig941 

> <i_f3d_flags>
0

> <s_m_subgroup_title>
dock_pv

> <s_m_subgroupid>
dock_pv

> <b_m_subgroup_collapsed>
1

$$$$
CHEMBL3231_lig1979
                    3D
 Schrodinger Suite 2021-1.
 38 41  0  0  1  0            999 V2000
   53.3194  101.3569   31.8476 S   0  0  0  0  0  0
   51.8596  103.5044   31.6142 N   0  0  0  0  0  0
   53.1241  103.3579   33.6216 N   0  0  0  0  0  0
   50.0430   98.3024   25.2111 N   0  0  0  0  0  0
   52.3136  101.5383   30.4174 C   0  0  0  0  0  0
   51.6431  102.7830   30.4864 C   0  0  0  0  0  0
   51.2117  101.0416   28.3273 C   0  0  0  0  0  0
   52.6977  102.8936   32.4052 C   0  0  0  0  0  0
   52.1154  100.6693   29.3348 C   0  0  0  0  0  0
   50.8058  103.1853   29.4429 C   0  0  0  0  0  0
   50.8603  100.0942   27.2290 C   0  0  0  0  0  0
   50.5989  102.3021   28.3872 C   0  0  0  0  0  0
   50.4846  100.5545   25.9560 C   0  0  0  0  0  0
   50.8421   98.7074   27.4495 C   0  0  0  0  0  0
   52.7461  104.6096   34.2741 C   0  0  0  0  0  0
   51.2781  104.6928   34.7081 C   0  0  0  0  0  0
   50.0731   99.6385   24.9893 C   0  0  0  0  0  0
   50.4419   97.8540   26.4230 C   0  0  0  0  0  0
   50.6905  105.9567   34.8238 C   0  0  0  0  0  0
   50.5537  103.5572   35.0927 C   0  0  0  0  0  0
   49.3856  106.0853   35.2922 C   0  0  0  0  0  0
   49.2460  103.6833   35.5592 C   0  0  0  0  0  0
   48.6682  104.9467   35.6554 C   0  0  0  0  0  0
   53.9664  102.9567   34.0113 H   0  0  0  0  0  0
   52.6321   99.7216   29.3023 H   0  0  0  0  0  0
   50.3129  104.1413   29.4539 H   0  0  0  0  0  0
   49.9223  102.6080   27.6051 H   0  0  0  0  0  0
   50.4915  101.6071   25.7138 H   0  0  0  0  0  0
   51.1120   98.2864   28.4061 H   0  0  0  0  0  0
   53.0025  105.4397   33.6122 H   0  0  0  0  0  0
   53.3646  104.7339   35.1626 H   0  0  0  0  0  0
   49.7593   99.9735   24.0115 H   0  0  0  0  0  0
   50.4231   96.7847   26.5710 H   0  0  0  0  0  0
   51.2498  106.8422   34.5529 H   0  0  0  0  0  0
   51.0027  102.5757   35.0390 H   0  0  0  0  0  0
   48.9353  107.0636   35.3785 H   0  0  0  0  0  0
   48.6891  102.8067   35.8571 H   0  0  0  0  0  0
   47.6556  105.0451   36.0209 H   0  0  0  0  0  0
  1  5  1  0  0  0
  1  8  1  0  0  0
  2  6  1  0  0  0
  2  8  2  0  0  0
  3  8  1  0  0  0
  3 15  1  0  0  0
  3 24  1  0  0  0
  4 17  2  0  0  0
  4 18  1  0  0  0
  5  6  1  0  0  0
  5  9  2  0  0  0
  6 10  2  0  0  0
  7  9  1  0  0  0
  7 11  1  0  0  0
  7 12  2  0  0  0
  9 25  1  0  0  0
 10 12  1  0  0  0
 10 26  1  0  0  0
 11 13  2  0  0  0
 11 14  1  0  0  0
 12 27  1  0  0  0
 13 17  1  0  0  0
 13 28  1  0  0  0
 14 18  2  0  0  0
 14 29  1  0  0  0
 15 16  1  0  0  0
 15 30  1  0  0  0
 15 31  1  0  0  0
 16 19  2  0  0  0
 16 20  1  0  0  0
 17 32  1  0  0  0
 18 33  1  0  0  0
 19 21  1  0  0  0
 19 34  1  0  0  0
 20 22  2  0  0  0
 20 35  1  0  0  0
 21 23  2  0  0  0
 21 36  1  0  0  0
 22 23  1  0  0  0
 22 37  1  0  0  0
 23 38  1  0  0  0
M  END
> <s_m_entry_id>
28260

> <s_m_entry_name>
dock_pv.421

> <s_m_Source_Path>
/home/csk/Desktop/cluster/DUD-E-result/rock1

> <s_m_Source_File>
dock_pv.maegz

> <i_m_Source_File_Index>
421

> <chembl_id>
CHEMBL1983534

> <chembl_pref_name>
None

> <i_lp_mmshare_version>
53161

> <r_lp_tautomer_probability>
1

> <s_lp_Force_Field>
OPLS_2005

> <r_lp_Energy>
11.654867

> <b_lp_Chiralities_Consistent>
1

> <s_lp_Variant>
CHEMBL3231_lig1979-1

> <s_i_glide_gridfile>
glide-grid_2etr

> <i_i_glide_lignum>
2879

> <i_i_glide_rotatable_bonds>
4

> <r_i_docking_score>
-7.5055261354049

> <r_i_glide_ligand_efficiency>
-0.326327223278474

> <r_i_glide_ligand_efficiency_sa>
-0.928031213938356

> <r_i_glide_ligand_efficiency_ln>
-1.81490427588921

> <r_i_glide_gscore>
-7.5055261354049

> <r_i_glide_lipo>
-2.60068315486488

> <r_i_glide_hbond>
-0.300280231550462

> <r_i_glide_metal>
0

> <r_i_glide_rewards>
-2.64494204545454

> <r_i_glide_evdw>
-40.4156227111816

> <r_i_glide_ecoul>
-4.43267107009888

> <r_i_glide_erotb>
0.739684016457143

> <r_i_glide_esite>
-0.0136229239182471

> <r_i_glide_emodel>
-64.7189676541574

> <r_i_glide_energy>
-44.8482937812805

> <r_i_glide_einternal>
1.45961701869965

> <i_i_glide_confnum>
46

> <i_i_glide_posenum>
357

> <r_i_glide_eff_state_penalty>
0

> <s_user_duplicate_titles>
CHEMBL3231_lig1979

> <i_f3d_flags>
0

> <s_m_subgroup_title>
dock_pv

> <s_m_subgroupid>
dock_pv

> <b_m_subgroup_collapsed>
1

$$$$
CHEMBL3231_lig912
                    3D
 Schrodinger Suite 2021-1.
 37 39  0  0  1  0            999 V2000
   53.2734  100.7735   34.4980 C   0  0  0  0  0  0
   53.4694  101.0976   32.9959 C   0  0  1  0  0  0
   54.9443  101.0291   32.5585 C   0  0  0  0  0  0
   52.7650  100.0270   32.2535 N   0  0  0  0  0  0
   52.9042  102.4389   32.6801 N   0  0  0  0  0  0
   52.1391  102.7831   31.6210 C   0  0  0  0  0  0
   52.3198  100.3561   30.9946 C   0  0  0  0  0  0
   52.0430  101.6849   30.7016 C   0  0  0  0  0  0
   51.3987  101.8453   29.1015 S   0  0  0  0  0  0
   51.5047  100.1224   28.8229 C   0  0  0  0  0  0
   52.0394   99.4841   29.9450 C   0  0  0  0  0  0
   51.0069   99.5206   27.5454 C   0  0  0  0  0  0
   50.9215   98.1253   27.4395 C   0  0  0  0  0  0
   50.4429   97.5592   26.2632 C   0  0  0  0  0  0
   50.0426   98.3031   25.2061 N   0  0  0  0  0  0
   50.1214   99.6513   25.3038 C   0  0  0  0  0  0
   50.5962  100.2940   26.4461 C   0  0  0  0  0  0
   51.6441  103.9030   31.5299 O   0  0  0  0  0  0
   51.8122  100.8446   35.0041 C   0  0  0  0  0  0
   51.6861  100.6222   36.5118 C   0  0  0  0  0  0
   53.8752  101.4728   35.0821 H   0  0  0  0  0  0
   53.6850   99.7873   34.7242 H   0  0  0  0  0  0
   55.0539  101.1952   31.4874 H   0  0  0  0  0  0
   55.5394  101.7896   33.0651 H   0  0  0  0  0  0
   55.3960  100.0619   32.7849 H   0  0  0  0  0  0
   53.0615   99.0894   32.4851 H   0  0  0  0  0  0
   53.1454  103.1980   33.2988 H   0  0  0  0  0  0
   52.1937   98.4190   30.0175 H   0  0  0  0  0  0
   51.2215   97.4767   28.2497 H   0  0  0  0  0  0
   50.3836   96.4866   26.1506 H   0  0  0  0  0  0
   49.7917  100.2168   24.4427 H   0  0  0  0  0  0
   50.6354  101.3726   26.4651 H   0  0  0  0  0  0
   51.2003  100.1059   34.4843 H   0  0  0  0  0  0
   51.3795  101.8167   34.7619 H   0  0  0  0  0  0
   50.6428  100.7039   36.8101 H   0  0  0  0  0  0
   52.2525  101.3647   37.0745 H   0  0  0  0  0  0
   52.0422   99.6340   36.8055 H   0  0  0  0  0  0
  1  2  1  0  0  0
  1 19  1  0  0  0
  1 21  1  0  0  0
  1 22  1  0  0  0
  2  3  1  0  0  0
  2  4  1  0  0  0
  2  5  1  0  0  0
  3 23  1  0  0  0
  3 24  1  0  0  0
  3 25  1  0  0  0
  4  7  1  0  0  0
  4 26  1  0  0  0
  5  6  1  0  0  0
  5 27  1  0  0  0
  6  8  1  0  0  0
  6 18  2  0  0  0
  7  8  2  0  0  0
  7 11  1  0  0  0
  8  9  1  0  0  0
  9 10  1  0  0  0
 10 11  2  0  0  0
 10 12  1  0  0  0
 11 28  1  0  0  0
 12 13  2  0  0  0
 12 17  1  0  0  0
 13 14  1  0  0  0
 13 29  1  0  0  0
 14 15  2  0  0  0
 14 30  1  0  0  0
 15 16  1  0  0  0
 16 17  2  0  0  0
 16 31  1  0  0  0
 17 32  1  0  0  0
 19 20  1  0  0  0
 19 33  1  0  0  0
 19 34  1  0  0  0
 20 35  1  0  0  0
 20 36  1  0  0  0
 20 37  1  0  0  0
M  END
> <s_m_entry_id>
28262

> <s_m_entry_name>
dock_pv.423

> <s_m_Source_Path>
/home/csk/Desktop/cluster/DUD-E-result/rock1

> <s_m_Source_File>
dock_pv.maegz

> <i_m_Source_File_Index>
423

> <chembl_id>
CHEMBL4214928

> <chembl_pref_name>
None

> <i_lp_mmshare_version>
53161

> <r_lp_tautomer_probability>
0.99999637101317

> <s_lp_Force_Field>
OPLS_2005

> <r_lp_Energy>
19.329244

> <b_lp_Chiralities_Consistent>
1

> <s_lp_Variant>
CHEMBL3231_lig912-2

> <s_i_glide_gridfile>
glide-grid_2etr

> <i_i_glide_lignum>
1309

> <i_i_glide_rotatable_bonds>
3

> <r_i_docking_score>
-7.50325951250217

> <r_i_glide_ligand_efficiency>
-0.375162975625109

> <r_i_glide_ligand_efficiency_sa>
-1.01834898911406

> <r_i_glide_ligand_efficiency_ln>
-1.87781838191787

> <r_i_glide_gscore>
-7.50325951250217

> <r_i_glide_lipo>
-2.21571479558111

> <r_i_glide_hbond>
-0.396750983363538

> <r_i_glide_metal>
0

> <r_i_glide_rewards>
-2.8163418030303

> <r_i_glide_evdw>
-32.4495811462402

> <r_i_glide_ecoul>
-5.42524385452271

> <r_i_glide_erotb>
0.440149046207935

> <r_i_glide_esite>
-0.0783353412447353

> <r_i_glide_emodel>
-55.9177039513038

> <r_i_glide_energy>
-37.8748250007629

> <r_i_glide_einternal>
0.27669483423233

> <i_i_glide_confnum>
1

> <i_i_glide_posenum>
162

> <r_i_glide_eff_state_penalty>
0

> <s_user_duplicate_titles>
CHEMBL3231_lig912

> <i_f3d_flags>
0

> <s_m_subgroup_title>
dock_pv

> <s_m_subgroupid>
dock_pv

> <b_m_subgroup_collapsed>
1

$$$$
CHEMBL3231_lig263
                    3D
 Schrodinger Suite 2021-1.
 37 39  0  0  1  0            999 V2000
   49.7606   99.5949   24.9958 N   0  0  0  0  0  0
   49.7093  100.9184   25.3003 C   0  0  0  0  0  0
   50.2342  101.4784   26.4068 C   0  0  0  0  0  0
   50.3469   98.6636   25.7911 C   0  0  0  0  0  0
   50.8734   99.2083   27.1162 C   0  0  0  0  0  0
   50.8541  100.5876   27.3950 C   0  0  0  0  0  0
   51.3941  101.0657   28.5885 C   0  0  0  0  0  0
   51.9748  100.1906   29.5078 C   0  0  0  0  0  0
   51.9919   98.8165   29.2173 C   0  0  0  0  0  0
   51.4342   98.3260   28.0386 C   0  0  0  0  0  0
   52.4961  100.7577   30.6569 O   0  0  0  0  0  0
   53.3205   99.9867   31.5357 C   0  0  2  0  0  0
   50.4410   97.5029   25.4036 O   0  0  0  0  0  0
   52.4713   99.0716   32.4513 C   0  0  0  0  0  0
   53.2560   97.8795   33.0338 C   0  0  0  0  0  0
   54.2163  101.0126   32.2702 C   0  0  0  0  0  0
   54.8286  100.5904   33.6239 C   0  0  0  0  0  0
   55.3119   99.1301   33.7133 C   0  0  0  0  0  0
   54.2538   98.1839   34.0490 N   0  0  2  0  0  0
   49.4012   99.2611   24.1134 H   0  0  0  0  0  0
   49.1961  101.4760   24.5312 H   0  0  0  0  0  0
   50.1580  102.5436   26.5795 H   0  0  0  0  0  0
   51.3791  102.1241   28.8057 H   0  0  0  0  0  0
   52.4320   98.1039   29.8978 H   0  0  0  0  0  0
   51.4511   97.2648   27.8417 H   0  0  0  0  0  0
   53.9912   99.3823   30.9185 H   0  0  0  0  0  0
   52.0505   99.6672   33.2615 H   0  0  0  0  0  0
   51.6069   98.6885   31.9107 H   0  0  0  0  0  0
   53.7891   97.3829   32.2207 H   0  0  0  0  0  0
   52.5638   97.1325   33.4229 H   0  0  0  0  0  0
   55.0546  101.2443   31.6113 H   0  0  0  0  0  0
   53.6799  101.9530   32.4133 H   0  0  0  0  0  0
   55.6428  101.2692   33.8776 H   0  0  0  0  0  0
   54.0595  100.7434   34.3814 H   0  0  0  0  0  0
   55.7540   98.8263   32.7623 H   0  0  0  0  0  0
   56.1060   99.0616   34.4589 H   0  0  0  0  0  0
   54.6739   97.3288   34.3931 H   0  0  0  0  0  0
  1  4  1  0  0  0
  1  2  1  0  0  0
  1 20  1  0  0  0
  2  3  2  0  0  0
  2 21  1  0  0  0
  3  6  1  0  0  0
  3 22  1  0  0  0
  4 13  2  0  0  0
  4  5  1  0  0  0
  5 10  1  0  0  0
  5  6  2  0  0  0
  6  7  1  0  0  0
  7  8  2  0  0  0
  7 23  1  0  0  0
  8 11  1  0  0  0
  8  9  1  0  0  0
  9 10  2  0  0  0
  9 24  1  0  0  0
 10 25  1  0  0  0
 11 12  1  0  0  0
 12 14  1  0  0  0
 12 16  1  0  0  0
 12 26  1  0  0  0
 14 15  1  0  0  0
 14 27  1  0  0  0
 14 28  1  0  0  0
 15 19  1  0  0  0
 15 29  1  0  0  0
 15 30  1  0  0  0
 16 17  1  0  0  0
 16 31  1  0  0  0
 16 32  1  0  0  0
 17 18  1  0  0  0
 17 33  1  0  0  0
 17 34  1  0  0  0
 18 19  1  0  0  0
 18 35  1  0  0  0
 18 36  1  0  0  0
 19 37  1  0  0  0
M  END
> <s_m_entry_id>
28263

> <s_m_entry_name>
dock_pv.424

> <s_m_Source_Path>
/home/csk/Desktop/cluster/DUD-E-result/rock1

> <s_m_Source_File>
dock_pv.maegz

> <i_m_Source_File_Index>
424

> <chembl_id>
CHEMBL1667971

> <chembl_pref_name>
None

> <i_lp_mmshare_version>
53161

> <r_lp_tautomer_probability>
1

> <s_lp_Force_Field>
OPLS_2005

> <r_lp_Energy>
31.952273

> <b_lp_Chiralities_Consistent>
1

> <s_lp_Variant>
CHEMBL3231_lig263-1

> <s_i_glide_gridfile>
glide-grid_2etr

> <i_i_glide_lignum>
407

> <i_i_glide_rotatable_bonds>
2

> <r_i_docking_score>
-7.50161229984248

> <r_i_glide_ligand_efficiency>
-0.394821699991709

> <r_i_glide_ligand_efficiency_sa>
-1.05354287417505

> <r_i_glide_ligand_efficiency_ln>
-1.901819837869

> <r_i_glide_gscore>
-7.50161229984248

> <r_i_glide_lipo>
-2.29480650379747

> <r_i_glide_hbond>
-0.456661413444599

> <r_i_glide_metal>
0

> <r_i_glide_rewards>
-2.92731444684795

> <r_i_glide_evdw>
-30.3721084594727

> <r_i_glide_ecoul>
-4.49867248535156

> <r_i_glide_erotb>
0.370576360023912

> <r_i_glide_esite>
0

> <r_i_glide_emodel>
-52.3165578712098

> <r_i_glide_energy>
-34.8707809448242

> <r_i_glide_einternal>
0.438041239976883

> <i_i_glide_confnum>
5

> <i_i_glide_posenum>
133

> <r_i_glide_eff_state_penalty>
0

> <s_user_duplicate_titles>
CHEMBL3231_lig263,CHEMBL3231_lig264

> <i_f3d_flags>
0

> <s_m_subgroup_title>
dock_pv

> <s_m_subgroupid>
dock_pv

> <b_m_subgroup_collapsed>
1

$$$$
CHEMBL3231_lig1635
                    3D
 Schrodinger Suite 2021-1.
 48 51  0  0  1  0            999 V2000
   49.8733  103.4305   35.5586 O   0  0  0  0  0  0
   50.5850  104.3167   37.5379 O   0  0  0  0  0  0
   51.7068  103.2410   33.3847 N   0  0  0  0  0  0
   53.6154  103.9195   32.4418 N   0  0  0  0  0  0
   50.8341  100.4929   27.5969 N   0  0  0  0  0  0
   50.4429   97.5025   25.5193 N   0  0  0  0  0  0
   52.4025  104.0064   34.2924 C   0  0  0  0  0  0
   53.6322  104.4345   33.7170 C   0  0  0  0  0  0
   52.4450  103.2163   32.3070 C   0  0  0  0  0  0
   52.0558  104.3813   35.6168 C   0  0  0  0  0  0
   52.0470  102.5046   31.0721 C   0  0  0  0  0  0
   54.5528  105.2196   34.4088 C   0  0  0  0  0  0
   50.7914  104.0384   36.3522 C   0  0  0  0  0  0
   53.0046  105.1688   36.2939 C   0  0  0  0  0  0
   51.2419  101.1620   28.7574 C   0  0  0  0  0  0
   52.0433  101.1121   31.0445 C   0  0  0  0  0  0
   51.6425  103.2267   29.9520 C   0  0  0  0  0  0
   54.2054  105.5744   35.7117 C   0  0  0  0  0  0
   51.6472  100.4460   29.8901 C   0  0  0  0  0  0
   51.2162  102.5586   28.8110 C   0  0  0  0  0  0
   50.8962   99.0537   27.3750 C   0  0  0  0  0  0
   50.5437  101.1047   26.2947 C   0  0  0  0  0  0
   50.1161   98.7796   26.1038 C   0  0  1  0  0  0
   50.4219   99.9931   25.2511 C   0  0  0  0  0  0
   48.5761  103.0863   36.0279 C   0  0  0  0  0  0
   47.6429  104.3032   36.0109 C   0  0  0  0  0  0
   54.3027  104.0262   31.7076 H   0  0  0  0  0  0
   51.4313   97.4769   25.3107 H   0  0  0  0  0  0
   50.2963   96.7786   26.2107 H   0  0  0  0  0  0
   55.4694  105.5560   33.9463 H   0  0  0  0  0  0
   52.8117  105.4989   37.3060 H   0  0  0  0  0  0
   52.3517  100.5463   31.9130 H   0  0  0  0  0  0
   51.6357  104.3030   29.9674 H   0  0  0  0  0  0
   54.8716  106.1989   36.2867 H   0  0  0  0  0  0
   51.6671   99.3667   29.8907 H   0  0  0  0  0  0
   50.8654  103.1383   27.9705 H   0  0  0  0  0  0
   51.9331   98.7184   27.3322 H   0  0  0  0  0  0
   50.4307   98.5439   28.2181 H   0  0  0  0  0  0
   49.6432  101.7165   26.3272 H   0  0  0  0  0  0
   51.3836  101.7410   26.0103 H   0  0  0  0  0  0
   49.0497   98.7685   26.3244 H   0  0  0  0  0  0
   49.6258  100.2021   24.5367 H   0  0  0  0  0  0
   51.3626   99.8983   24.7098 H   0  0  0  0  0  0
   48.6255  102.6463   37.0250 H   0  0  0  0  0  0
   48.1752  102.3154   35.3692 H   0  0  0  0  0  0
   46.6322  104.0193   36.3051 H   0  0  0  0  0  0
   47.5835  104.7410   35.0149 H   0  0  0  0  0  0
   47.9839  105.0751   36.6999 H   0  0  0  0  0  0
  1 13  1  0  0  0
  1 25  1  0  0  0
  2 13  2  0  0  0
  3  7  1  0  0  0
  3  9  2  0  0  0
  4  8  1  0  0  0
  4  9  1  0  0  0
  4 27  1  0  0  0
  5 15  1  0  0  0
  5 21  1  0  0  0
  5 22  1  0  0  0
  6 23  1  0  0  0
  6 28  1  0  0  0
  6 29  1  0  0  0
  7  8  2  0  0  0
  7 10  1  0  0  0
  8 12  1  0  0  0
  9 11  1  0  0  0
 10 13  1  0  0  0
 10 14  2  0  0  0
 11 16  2  0  0  0
 11 17  1  0  0  0
 12 18  2  0  0  0
 12 30  1  0  0  0
 14 18  1  0  0  0
 14 31  1  0  0  0
 15 19  2  0  0  0
 15 20  1  0  0  0
 16 19  1  0  0  0
 16 32  1  0  0  0
 17 20  2  0  0  0
 17 33  1  0  0  0
 18 34  1  0  0  0
 19 35  1  0  0  0
 20 36  1  0  0  0
 21 23  1  0  0  0
 21 37  1  0  0  0
 21 38  1  0  0  0
 22 24  1  0  0  0
 22 39  1  0  0  0
 22 40  1  0  0  0
 23 24  1  0  0  0
 23 41  1  0  0  0
 24 42  1  0  0  0
 24 43  1  0  0  0
 25 26  1  0  0  0
 25 44  1  0  0  0
 25 45  1  0  0  0
 26 46  1  0  0  0
 26 47  1  0  0  0
 26 48  1  0  0  0
M  END
> <s_m_entry_id>
28265

> <s_m_entry_name>
dock_pv.426

> <s_m_Source_Path>
/home/csk/Desktop/cluster/DUD-E-result/rock1

> <s_m_Source_File>
dock_pv.maegz

> <i_m_Source_File_Index>
426

> <chembl_id>
CHEMBL1995736

> <chembl_pref_name>
None

> <i_lp_mmshare_version>
53161

> <r_lp_tautomer_probability>
1

> <s_lp_Force_Field>
OPLS_2005

> <r_lp_Energy>
44.620051

> <b_lp_Chiralities_Consistent>
1

> <s_lp_Variant>
CHEMBL3231_lig1635-2

> <s_i_glide_gridfile>
glide-grid_2etr

> <i_i_glide_lignum>
2333

> <i_i_glide_rotatable_bonds>
5

> <r_i_docking_score>
-7.48953906649074

> <r_i_glide_ligand_efficiency>
-0.288059194865029

> <r_i_glide_ligand_efficiency_sa>
-0.853374231329448

> <r_i_glide_ligand_efficiency_ln>
-1.75889367458323

> <r_i_glide_gscore>
-7.48953906649074

> <r_i_glide_lipo>
-2.41472749238987

> <r_i_glide_hbond>
-0.275001331688472

> <r_i_glide_metal>
0

> <r_i_glide_rewards>
-2.27591755207815

> <r_i_glide_evdw>
-43.0916442871094

> <r_i_glide_ecoul>
-5.97782468795776

> <r_i_glide_erotb>
0.62091496705787

> <r_i_glide_esite>
-0.0935517398429925

> <r_i_glide_emodel>
-68.8010597520306

> <r_i_glide_energy>
-49.0694689750671

> <r_i_glide_einternal>
4.34452962875366

> <i_i_glide_confnum>
6

> <i_i_glide_posenum>
330

> <r_i_glide_eff_state_penalty>
0

> <s_user_duplicate_titles>
CHEMBL3231_lig1635

> <i_f3d_flags>
0

> <s_m_subgroup_title>
dock_pv

> <s_m_subgroupid>
dock_pv

> <b_m_subgroup_collapsed>
1

$$$$
CHEMBL3231_lig602
                    3D
 Schrodinger Suite 2021-1.
 40 42  0  0  1  0            999 V2000
   51.6967   97.8277   30.4042 C   0  0  0  0  0  0
   51.4516   98.5211   29.1821 O   0  0  0  0  0  0
   51.5060   99.9038   29.1547 C   0  0  0  0  0  0
   52.0464  100.6598   30.2122 C   0  0  0  0  0  0
   52.0266  102.0610   30.1896 C   0  0  0  0  0  0
   51.4298  102.7093   29.1093 C   0  0  0  0  0  0
   50.9235  101.9765   28.0447 C   0  0  0  0  0  0
   50.9839  100.5777   28.0302 C   0  0  0  0  0  0
   50.4891   99.8940   26.7866 C   0  0  0  0  0  0
   50.5445   98.5359   26.4096 C   0  0  0  0  0  0
   50.0430   98.2936   25.2204 N   0  0  0  0  0  0
   49.6431   99.4859   24.7900 N   0  0  0  0  0  0
   49.8852  100.4847   25.6824 C   0  0  0  0  0  0
   52.6142  102.8811   31.3052 C   0  0  0  0  0  0
   52.0398  103.9032   31.6829 O   0  0  0  0  0  0
   53.7841  102.4407   31.8022 N   0  0  0  0  0  0
   54.5903  103.1128   32.8240 C   0  0  0  0  0  0
   53.8703  103.3986   34.1385 C   0  0  0  0  0  0
   53.4699  104.7030   34.4417 C   0  0  0  0  0  0
   52.8286  104.9712   35.6481 C   0  0  0  0  0  0
   52.6016  103.9359   36.5534 C   0  0  0  0  0  0
   53.0142  102.6361   36.2647 C   0  0  0  0  0  0
   53.6554  102.3678   35.0576 C   0  0  0  0  0  0
   51.4553   96.7720   30.2783 H   0  0  0  0  0  0
   52.7453   97.8950   30.6975 H   0  0  0  0  0  0
   51.0711   98.2046   31.2152 H   0  0  0  0  0  0
   52.4793  100.1614   31.0667 H   0  0  0  0  0  0
   51.3911  103.7893   29.0671 H   0  0  0  0  0  0
   50.5064  102.5256   27.2148 H   0  0  0  0  0  0
   50.9633   97.7295   26.9929 H   0  0  0  0  0  0
   49.2193   99.6171   23.8756 H   0  0  0  0  0  0
   49.6164  101.5032   25.4474 H   0  0  0  0  0  0
   54.2432  101.6902   31.3069 H   0  0  0  0  0  0
   55.0168  104.0285   32.4114 H   0  0  0  0  0  0
   55.4496  102.4746   33.0350 H   0  0  0  0  0  0
   53.6399  105.5036   33.7342 H   0  0  0  0  0  0
   52.5091  105.9775   35.8760 H   0  0  0  0  0  0
   52.1046  104.1439   37.4894 H   0  0  0  0  0  0
   52.8404  101.8391   36.9731 H   0  0  0  0  0  0
   53.9783  101.3611   34.8341 H   0  0  0  0  0  0
  1  2  1  0  0  0
  1 24  1  0  0  0
  1 25  1  0  0  0
  1 26  1  0  0  0
  2  3  1  0  0  0
  3  4  2  0  0  0
  3  8  1  0  0  0
  4  5  1  0  0  0
  4 27  1  0  0  0
  5  6  2  0  0  0
  5 14  1  0  0  0
  6  7  1  0  0  0
  6 28  1  0  0  0
  7  8  2  0  0  0
  7 29  1  0  0  0
  8  9  1  0  0  0
  9 10  1  0  0  0
  9 13  2  0  0  0
 10 11  2  0  0  0
 10 30  1  0  0  0
 11 12  1  0  0  0
 12 13  1  0  0  0
 12 31  1  0  0  0
 13 32  1  0  0  0
 14 15  2  0  0  0
 14 16  1  0  0  0
 16 17  1  0  0  0
 16 33  1  0  0  0
 17 18  1  0  0  0
 17 34  1  0  0  0
 17 35  1  0  0  0
 18 19  2  0  0  0
 18 23  1  0  0  0
 19 20  1  0  0  0
 19 36  1  0  0  0
 20 21  2  0  0  0
 20 37  1  0  0  0
 21 22  1  0  0  0
 21 38  1  0  0  0
 22 23  2  0  0  0
 22 39  1  0  0  0
 23 40  1  0  0  0
M  END
> <s_m_entry_id>
28266

> <s_m_entry_name>
dock_pv.427

> <s_m_Source_Path>
/home/csk/Desktop/cluster/DUD-E-result/rock1

> <s_m_Source_File>
dock_pv.maegz

> <i_m_Source_File_Index>
427

> <chembl_id>
CHEMBL3910168

> <chembl_pref_name>
None

> <i_lp_mmshare_version>
53161

> <r_lp_tautomer_probability>
0.5

> <s_lp_Force_Field>
OPLS_2005

> <r_lp_Energy>
20.762125

> <b_lp_Chiralities_Consistent>
1

> <s_lp_Variant>
CHEMBL3231_lig602-1

> <s_i_glide_gridfile>
glide-grid_2etr

> <i_i_glide_lignum>
888

> <i_i_glide_rotatable_bonds>
6

> <r_i_docking_score>
-7.4856476120604

> <r_i_glide_ligand_efficiency>
-0.3254629396548

> <r_i_glide_ligand_efficiency_sa>
-0.925573306282332

> <r_i_glide_ligand_efficiency_ln>
-1.81009746869602

> <r_i_glide_gscore>
-7.4856476120604

> <r_i_glide_lipo>
-2.00140182016036

> <r_i_glide_hbond>
-0.600290573472721

> <r_i_glide_metal>
0

> <r_i_glide_rewards>
-2.27447496260256

> <r_i_glide_evdw>
-37.2431602478027

> <r_i_glide_ecoul>
-8.16734027862549

> <r_i_glide_erotb>
0.547938610834468

> <r_i_glide_esite>
-0.070159812475266

> <r_i_glide_emodel>
-64.4788075183165

> <r_i_glide_energy>
-45.4105005264282

> <r_i_glide_einternal>
2.70987677574158

> <i_i_glide_confnum>
6

> <i_i_glide_posenum>
33

> <r_i_glide_eff_state_penalty>
0

> <s_user_duplicate_titles>
CHEMBL3231_lig602

> <i_f3d_flags>
0

> <s_m_subgroup_title>
dock_pv

> <s_m_subgroupid>
dock_pv

> <b_m_subgroup_collapsed>
1

$$$$
CHEMBL3231_lig1052 
                    3D
 Schrodinger Suite 2021-1.
 58 61  0  0  1  0            999 V2000
   49.0291  103.6308   36.5113 C   0  0  0  0  0  0
   48.5314  104.8925   36.1820 C   0  0  0  0  0  0
   49.3204  105.7832   35.4552 C   0  0  0  0  0  0
   50.6010  105.4095   35.0434 C   0  0  0  0  0  0
   50.3133  103.2623   36.1092 C   0  0  0  0  0  0
   51.1144  104.1467   35.3560 C   0  0  0  0  0  0
   52.5176  103.7220   34.9303 C   0  0  0  0  0  0
   52.6217  102.1802   34.8681 C   0  0  1  0  0  0
   52.0584  101.6188   36.2021 C   0  0  0  0  0  0
   50.6796  101.9595   36.4093 O   0  0  0  0  0  0
   51.8962  101.5995   33.6290 C   0  0  0  0  0  0
   50.8430  100.9713   33.7530 O   0  0  0  0  0  0
   52.4960  101.8158   32.4346 N   0  0  0  0  0  0
   52.0746  101.2816   31.2036 C   0  0  0  0  0  0
   51.8631   99.9039   31.0152 C   0  0  0  0  0  0
   51.4300   99.4519   29.7621 C   0  0  0  0  0  0
   51.2877  100.3102   28.6623 C   0  0  0  0  0  0
   51.5745  101.6704   28.8667 C   0  0  0  0  0  0
   51.9578  102.1537   30.1179 C   0  0  0  0  0  0
   52.0693   99.0378   32.0703 O   0  0  0  0  0  0
   52.4586   97.6953   31.7834 C   0  0  0  0  0  0
   53.3957   97.1401   32.8789 C   0  0  0  0  0  0
   54.4640   98.0667   33.2796 N   0  0  0  0  0  0
   55.3528   97.4146   34.2368 C   0  0  0  0  0  0
   55.2435   98.5547   32.1438 C   0  0  0  0  0  0
   50.8490   99.7777   27.3263 C   0  0  0  0  0  0
   50.3883  100.6261   26.3015 C   0  0  0  0  0  0
   50.0089  100.0835   25.0719 C   0  0  0  0  0  0
   50.0392   98.7548   24.8111 N   0  0  0  0  0  0
   50.4432   97.9312   25.8065 C   0  0  0  0  0  0
   50.8742   98.3980   27.0431 C   0  0  0  0  0  0
   48.8430  107.0071   35.1378 F   0  0  0  0  0  0
   48.4149  102.9306   37.0574 H   0  0  0  0  0  0
   47.5326  105.1722   36.4800 H   0  0  0  0  0  0
   51.2030  106.1148   34.4847 H   0  0  0  0  0  0
   52.7846  104.1922   33.9799 H   0  0  0  0  0  0
   53.2150  104.1002   35.6803 H   0  0  0  0  0  0
   53.6608  101.8718   34.7555 H   0  0  0  0  0  0
   52.6325  102.0343   37.0316 H   0  0  0  0  0  0
   52.1860  100.5365   36.2578 H   0  0  0  0  0  0
   53.2720  102.4580   32.4050 H   0  0  0  0  0  0
   51.1941   98.4053   29.6645 H   0  0  0  0  0  0
   51.5056  102.3786   28.0566 H   0  0  0  0  0  0
   52.1659  103.2077   30.2408 H   0  0  0  0  0  0
   51.5517   97.1030   31.6935 H   0  0  0  0  0  0
   52.9801   97.6066   30.8246 H   0  0  0  0  0  0
   52.8215   96.8875   33.7652 H   0  0  0  0  0  0
   53.8317   96.2052   32.5225 H   0  0  0  0  0  0
   56.1117   98.1098   34.5981 H   0  0  0  0  0  0
   54.7990   97.0585   35.1053 H   0  0  0  0  0  0
   55.8691   96.5617   33.7906 H   0  0  0  0  0  0
   56.0804   99.1710   32.4770 H   0  0  0  0  0  0
   55.6405   97.7280   31.5524 H   0  0  0  0  0  0
   54.6424   99.1831   31.4843 H   0  0  0  0  0  0
   50.3139  101.6950   26.4361 H   0  0  0  0  0  0
   49.6541  100.7127   24.2676 H   0  0  0  0  0  0
   50.4579   96.8739   25.5894 H   0  0  0  0  0  0
   51.2245   97.6659   27.7567 H   0  0  0  0  0  0
  1  5  1  0  0  0
  1  2  2  0  0  0
  1 33  1  0  0  0
  2  3  1  0  0  0
  2 34  1  0  0  0
  3  4  2  0  0  0
  3 32  1  0  0  0
  4  6  1  0  0  0
  4 35  1  0  0  0
  5  6  2  0  0  0
  5 10  1  0  0  0
  6  7  1  0  0  0
  7  8  1  0  0  0
  7 36  1  0  0  0
  7 37  1  0  0  0
  8  9  1  0  0  0
  8 11  1  0  0  0
  8 38  1  0  0  0
  9 10  1  0  0  0
  9 39  1  0  0  0
  9 40  1  0  0  0
 11 12  2  0  0  0
 11 13  1  0  0  0
 13 14  1  0  0  0
 13 41  1  0  0  0
 14 15  2  0  0  0
 14 19  1  0  0  0
 15 16  1  0  0  0
 15 20  1  0  0  0
 16 17  2  0  0  0
 16 42  1  0  0  0
 17 18  1  0  0  0
 17 26  1  0  0  0
 18 19  2  0  0  0
 18 43  1  0  0  0
 19 44  1  0  0  0
 20 21  1  0  0  0
 21 22  1  0  0  0
 21 45  1  0  0  0
 21 46  1  0  0  0
 22 23  1  0  0  0
 22 47  1  0  0  0
 22 48  1  0  0  0
 23 24  1  0  0  0
 23 25  1  0  0  0
 24 49  1  0  0  0
 24 50  1  0  0  0
 24 51  1  0  0  0
 25 52  1  0  0  0
 25 53  1  0  0  0
 25 54  1  0  0  0
 26 27  2  0  0  0
 26 31  1  0  0  0
 27 28  1  0  0  0
 27 55  1  0  0  0
 28 29  2  0  0  0
 28 56  1  0  0  0
 29 30  1  0  0  0
 30 31  2  0  0  0
 30 57  1  0  0  0
 31 58  1  0  0  0
M  END
> <s_m_entry_id>
28267

> <s_m_entry_name>
dock_pv.428

> <s_m_Source_Path>
/home/csk/Desktop/cluster/DUD-E-result/rock1

> <s_m_Source_File>
dock_pv.maegz

> <i_m_Source_File_Index>
428

> <chembl_id>
CHEMBL4483646

> <chembl_pref_name>
None

> <i_lp_mmshare_version>
53161

> <r_lp_tautomer_probability>
1

> <s_lp_Force_Field>
OPLS_2005

> <r_lp_Energy>
35.541497

> <b_lp_Chiralities_Consistent>
1

> <s_lp_Variant>
CHEMBL3231_lig1052 -2

> <s_i_glide_gridfile>
glide-grid_2etr

> <i_i_glide_lignum>
1468

> <i_i_glide_rotatable_bonds>
8

> <r_i_docking_score>
-7.48553814454809

> <r_i_glide_ligand_efficiency>
-0.233923067017128

> <r_i_glide_ligand_efficiency_sa>
-0.742659444467279

> <r_i_glide_ligand_efficiency_ln>
-1.67621603862762

> <r_i_glide_gscore>
-7.48553814454809

> <r_i_glide_lipo>
-3.08531682127856

> <r_i_glide_hbond>
-0.170638767013415

> <r_i_glide_metal>
0

> <r_i_glide_rewards>
-1.67321966297233

> <r_i_glide_evdw>
-47.4798355102539

> <r_i_glide_ecoul>
-5.97209024429321

> <r_i_glide_erotb>
0.735416567972232

> <r_i_glide_esite>
-0.0219741490993372

> <r_i_glide_emodel>
-75.0672808553816

> <r_i_glide_energy>
-53.4519257545471

> <r_i_glide_einternal>
7.50518703460693

> <i_i_glide_confnum>
69

> <i_i_glide_posenum>
272

> <r_i_glide_eff_state_penalty>
0

> <s_user_duplicate_titles>
CHEMBL3231_lig1052 

> <i_f3d_flags>
0

> <s_m_subgroup_title>
dock_pv

> <s_m_subgroupid>
dock_pv

> <b_m_subgroup_collapsed>
1

$$$$
CHEMBL3231_lig660
                    3D
 Schrodinger Suite 2021-1.
 51 53  0  0  1  0            999 V2000
   51.2429   97.3036   30.3474 C   0  0  0  0  0  0
   51.1953   98.1059   29.1712 O   0  0  0  0  0  0
   51.4955   99.4541   29.2400 C   0  0  0  0  0  0
   52.0438  100.0447   30.3908 C   0  0  0  0  0  0
   52.3083  101.4195   30.4690 C   0  0  0  0  0  0
   52.0041  102.2118   29.3554 C   0  0  0  0  0  0
   51.4647  101.6415   28.2067 C   0  0  0  0  0  0
   51.2173  100.2676   28.1216 C   0  0  0  0  0  0
   50.6504   99.7485   26.8278 C   0  0  0  0  0  0
   50.0738  100.4661   25.7784 C   0  0  0  0  0  0
   49.7450   99.5535   24.8115 N   0  0  0  0  0  0
   50.0428   98.3034   25.1723 N   0  0  0  0  0  0
   50.5916   98.4249   26.3562 C   0  0  0  0  0  0
   52.8960  101.9983   31.7429 C   0  0  0  0  0  0
   53.0395  101.2927   32.7415 O   0  0  0  0  0  0
   53.2299  103.3034   31.7187 N   0  0  0  0  0  0
   53.8391  104.0530   32.8216 C   0  0  0  0  0  0
   53.1540  103.9296   34.1834 C   0  0  0  0  0  0
   53.8635  103.4228   35.2775 C   0  0  0  0  0  0
   53.2362  103.2720   36.5142 C   0  0  0  0  0  0
   51.9008  103.6401   36.6700 C   0  0  0  0  0  0
   51.1837  104.1740   35.5930 C   0  0  0  0  0  0
   49.7030  104.5094   35.7590 C   0  0  0  0  0  0
   48.8002  103.4490   35.2871 N   0  0  0  0  0  0
   48.9541  102.2091   36.0454 C   0  0  0  0  0  0
   47.4100  103.8885   35.3967 C   0  0  0  0  0  0
   51.8129  104.3015   34.3475 C   0  0  0  0  0  0
   50.9000   96.3000   30.1005 H   0  0  0  0  0  0
   52.2558   97.2170   30.7399 H   0  0  0  0  0  0
   50.5872   97.6919   31.1262 H   0  0  0  0  0  0
   52.2679   99.4298   31.2480 H   0  0  0  0  0  0
   52.1819  103.2775   29.3554 H   0  0  0  0  0  0
   51.2429  102.2877   27.3716 H   0  0  0  0  0  0
   49.8754  101.5169   25.6311 H   0  0  0  0  0  0
   49.3111   99.7747   23.9191 H   0  0  0  0  0  0
   50.9527   97.5480   26.8737 H   0  0  0  0  0  0
   53.2829  103.7454   30.8175 H   0  0  0  0  0  0
   53.8230  105.1032   32.5338 H   0  0  0  0  0  0
   54.8976  103.7871   32.8855 H   0  0  0  0  0  0
   54.8928  103.1191   35.1641 H   0  0  0  0  0  0
   53.7835  102.8519   37.3448 H   0  0  0  0  0  0
   51.4218  103.5076   37.6277 H   0  0  0  0  0  0
   49.4962  105.4265   35.2031 H   0  0  0  0  0  0
   49.4925  104.7188   36.8101 H   0  0  0  0  0  0
   49.9450  101.7814   35.8950 H   0  0  0  0  0  0
   48.2328  101.4609   35.7160 H   0  0  0  0  0  0
   48.8117  102.3670   37.1160 H   0  0  0  0  0  0
   47.2456  104.7961   34.8160 H   0  0  0  0  0  0
   46.7258  103.1332   35.0087 H   0  0  0  0  0  0
   47.1269  104.0959   36.4296 H   0  0  0  0  0  0
   51.2593  104.6797   33.5029 H   0  0  0  0  0  0
  1  2  1  0  0  0
  1 28  1  0  0  0
  1 29  1  0  0  0
  1 30  1  0  0  0
  2  3  1  0  0  0
  3  4  2  0  0  0
  3  8  1  0  0  0
  4  5  1  0  0  0
  4 31  1  0  0  0
  5  6  2  0  0  0
  5 14  1  0  0  0
  6  7  1  0  0  0
  6 32  1  0  0  0
  7  8  2  0  0  0
  7 33  1  0  0  0
  8  9  1  0  0  0
  9 10  2  0  0  0
  9 13  1  0  0  0
 10 11  1  0  0  0
 10 34  1  0  0  0
 11 12  1  0  0  0
 11 35  1  0  0  0
 12 13  2  0  0  0
 13 36  1  0  0  0
 14 15  2  0  0  0
 14 16  1  0  0  0
 16 17  1  0  0  0
 16 37  1  0  0  0
 17 18  1  0  0  0
 17 38  1  0  0  0
 17 39  1  0  0  0
 18 19  2  0  0  0
 18 27  1  0  0  0
 19 20  1  0  0  0
 19 40  1  0  0  0
 20 21  2  0  0  0
 20 41  1  0  0  0
 21 22  1  0  0  0
 21 42  1  0  0  0
 22 23  1  0  0  0
 22 27  2  0  0  0
 23 24  1  0  0  0
 23 43  1  0  0  0
 23 44  1  0  0  0
 24 25  1  0  0  0
 24 26  1  0  0  0
 25 45  1  0  0  0
 25 46  1  0  0  0
 25 47  1  0  0  0
 26 48  1  0  0  0
 26 49  1  0  0  0
 26 50  1  0  0  0
 27 51  1  0  0  0
M  END
> <s_m_entry_id>
28268

> <s_m_entry_name>
dock_pv.429

> <s_m_Source_Path>
/home/csk/Desktop/cluster/DUD-E-result/rock1

> <s_m_Source_File>
dock_pv.maegz

> <i_m_Source_File_Index>
429

> <chembl_id>
CHEMBL3947868

> <chembl_pref_name>
None

> <i_lp_mmshare_version>
53161

> <r_lp_tautomer_probability>
0.5

> <s_lp_Force_Field>
OPLS_2005

> <r_lp_Energy>
25.401025

> <b_lp_Chiralities_Consistent>
1

> <s_lp_Variant>
CHEMBL3231_lig660-1

> <s_i_glide_gridfile>
glide-grid_2etr

> <i_i_glide_lignum>
950

> <i_i_glide_rotatable_bonds>
8

> <r_i_docking_score>
-7.48455235698971

> <r_i_glide_ligand_efficiency>
-0.277205642851471

> <r_i_glide_ligand_efficiency_sa>
-0.831616927640787

> <r_i_glide_ligand_efficiency_ln>
-1.74228039621795

> <r_i_glide_gscore>
-7.48455235698971

> <r_i_glide_lipo>
-2.47454299805048

> <r_i_glide_hbond>
-0.557413864035765

> <r_i_glide_metal>
0

> <r_i_glide_rewards>
-1.89762433305501

> <r_i_glide_evdw>
-45.6844749450684

> <r_i_glide_ecoul>
-5.44643402099609

> <r_i_glide_erotb>
0.60793604161891

> <r_i_glide_esite>
-0.0617183530645299

> <r_i_glide_emodel>
-73.5800744853169

> <r_i_glide_energy>
-51.1309089660645

> <r_i_glide_einternal>
1.5935469865799

> <i_i_glide_confnum>
17

> <i_i_glide_posenum>
378

> <r_i_glide_eff_state_penalty>
0

> <s_user_duplicate_titles>
CHEMBL3231_lig660

> <i_f3d_flags>
0

> <s_m_subgroup_title>
dock_pv

> <s_m_subgroupid>
dock_pv

> <b_m_subgroup_collapsed>
1

$$$$
CHEMBL3231_lig787
                    3D
 Schrodinger Suite 2021-1.
 48 50  0  0  1  0            999 V2000
   51.2428   97.1412   30.4110 C   0  0  0  0  0  0
   51.2407   97.9951   29.2662 O   0  0  0  0  0  0
   51.6204   99.3188   29.3907 C   0  0  0  0  0  0
   52.1797   99.8348   30.5761 C   0  0  0  0  0  0
   52.5232  101.1858   30.7105 C   0  0  0  0  0  0
   52.3106  102.0332   29.6140 C   0  0  0  0  0  0
   51.7639  101.5356   28.4318 C   0  0  0  0  0  0
   51.4088  100.1871   28.2975 C   0  0  0  0  0  0
   50.7941   99.7475   26.9935 C   0  0  0  0  0  0
   50.2107  100.5396   26.0096 C   0  0  0  0  0  0
   49.7858   99.6925   25.0215 N   0  0  0  0  0  0
   50.0437   98.4129   25.2921 N   0  0  0  0  0  0
   50.6591   98.4493   26.4558 C   0  0  0  0  0  0
   53.1035  101.6896   32.0188 C   0  0  0  0  0  0
   53.5953  100.9021   32.8296 O   0  0  0  0  0  0
   52.9886  103.0079   32.2712 N   0  0  0  0  0  0
   53.4122  103.6968   33.5006 C   0  0  1  0  0  0
   54.4474  104.7764   33.1186 C   0  0  0  0  0  0
   54.8831  105.6144   34.2262 N   0  0  0  0  0  0
   52.1878  104.2645   34.2772 C   0  0  0  0  0  0
   51.1425  103.2652   34.7816 C   0  0  0  0  0  0
   49.8320  103.7085   34.9973 C   0  0  0  0  0  0
   48.8556  102.8307   35.4632 C   0  0  0  0  0  0
   49.1955  101.5052   35.7230 C   0  0  0  0  0  0
   50.5006  101.0569   35.5397 C   0  0  0  0  0  0
   51.4757  101.9374   35.0803 C   0  0  0  0  0  0
   50.8493   96.1659   30.1275 H   0  0  0  0  0  0
   52.2461   96.9901   30.8110 H   0  0  0  0  0  0
   50.6043   97.5365   31.2044 H   0  0  0  0  0  0
   52.3494   99.1815   31.4172 H   0  0  0  0  0  0
   52.5778  103.0798   29.6576 H   0  0  0  0  0  0
   51.6139  102.2184   27.6110 H   0  0  0  0  0  0
   50.0515  101.6058   25.9331 H   0  0  0  0  0  0
   49.3135   99.9760   24.1703 H   0  0  0  0  0  0
   51.0031   97.5345   26.9144 H   0  0  0  0  0  0
   52.6898  103.6010   31.5162 H   0  0  0  0  0  0
   53.9437  103.0064   34.1597 H   0  0  0  0  0  0
   55.3274  104.2937   32.6944 H   0  0  0  0  0  0
   54.0413  105.4299   32.3462 H   0  0  0  0  0  0
   55.4818  106.3269   33.8265 H   0  0  0  0  0  0
   54.0756  106.1291   34.5549 H   0  0  0  0  0  0
   51.6961  104.9979   33.6379 H   0  0  0  0  0  0
   52.5280  104.8083   35.1580 H   0  0  0  0  0  0
   49.5671  104.7388   34.8114 H   0  0  0  0  0  0
   47.8435  103.1724   35.6304 H   0  0  0  0  0  0
   48.4440  100.8250   36.0899 H   0  0  0  0  0  0
   50.7572  100.0307   35.7627 H   0  0  0  0  0  0
   52.4840  101.5733   34.9677 H   0  0  0  0  0  0
  1  2  1  0  0  0
  1 27  1  0  0  0
  1 28  1  0  0  0
  1 29  1  0  0  0
  2  3  1  0  0  0
  3  4  2  0  0  0
  3  8  1  0  0  0
  4  5  1  0  0  0
  4 30  1  0  0  0
  5  6  2  0  0  0
  5 14  1  0  0  0
  6  7  1  0  0  0
  6 31  1  0  0  0
  7  8  2  0  0  0
  7 32  1  0  0  0
  8  9  1  0  0  0
  9 10  2  0  0  0
  9 13  1  0  0  0
 10 11  1  0  0  0
 10 33  1  0  0  0
 11 12  1  0  0  0
 11 34  1  0  0  0
 12 13  2  0  0  0
 13 35  1  0  0  0
 14 15  2  0  0  0
 14 16  1  0  0  0
 16 17  1  0  0  0
 16 36  1  0  0  0
 17 18  1  0  0  0
 17 20  1  0  0  0
 17 37  1  0  0  0
 18 19  1  0  0  0
 18 38  1  0  0  0
 18 39  1  0  0  0
 19 40  1  0  0  0
 19 41  1  0  0  0
 20 21  1  0  0  0
 20 42  1  0  0  0
 20 43  1  0  0  0
 21 22  2  0  0  0
 21 26  1  0  0  0
 22 23  1  0  0  0
 22 44  1  0  0  0
 23 24  2  0  0  0
 23 45  1  0  0  0
 24 25  1  0  0  0
 24 46  1  0  0  0
 25 26  2  0  0  0
 25 47  1  0  0  0
 26 48  1  0  0  0
M  END
> <s_m_entry_id>
28270

> <s_m_entry_name>
dock_pv.431

> <s_m_Source_Path>
/home/csk/Desktop/cluster/DUD-E-result/rock1

> <s_m_Source_File>
dock_pv.maegz

> <i_m_Source_File_Index>
431

> <chembl_id>
CHEMBL3964418

> <chembl_pref_name>
None

> <i_lp_mmshare_version>
53161

> <r_lp_tautomer_probability>
0.5

> <s_lp_Force_Field>
OPLS_2005

> <r_lp_Energy>
27.276733

> <b_lp_Chiralities_Consistent>
1

> <s_lp_Variant>
CHEMBL3231_lig787-2

> <s_i_glide_gridfile>
glide-grid_2etr

> <i_i_glide_lignum>
1113

> <i_i_glide_rotatable_bonds>
8

> <r_i_docking_score>
-7.48398439134557

> <r_i_glide_ligand_efficiency>
-0.287845553513291

> <r_i_glide_ligand_efficiency_sa>
-0.852741319665564

> <r_i_glide_ligand_efficiency_ln>
-1.75758917735176

> <r_i_glide_gscore>
-7.48398439134557

> <r_i_glide_lipo>
-2.71158685378375

> <r_i_glide_hbond>
-0.363943736986569

> <r_i_glide_metal>
0

> <r_i_glide_rewards>
-2.01423429026252

> <r_i_glide_evdw>
-44.9216613769531

> <r_i_glide_ecoul>
-4.28643608093262

> <r_i_glide_erotb>
0.543300596175636

> <r_i_glide_esite>
-0.0484716255008109

> <r_i_glide_emodel>
-68.9441240889891

> <r_i_glide_energy>
-49.2080974578857

> <r_i_glide_einternal>
4.37250089645386

> <i_i_glide_confnum>
104

> <i_i_glide_posenum>
278

> <r_i_glide_eff_state_penalty>
0

> <s_user_duplicate_titles>
CHEMBL3231_lig787

> <i_f3d_flags>
0

> <s_m_subgroup_title>
dock_pv

> <s_m_subgroupid>
dock_pv

> <b_m_subgroup_collapsed>
1

$$$$
CHEMBL3231_lig1254
                    3D
 Schrodinger Suite 2021-1.
 36 38  0  0  1  0            999 V2000
   50.8105   98.8185   27.4993 C   0  0  0  0  0  0
   50.5818   99.8340   26.5612 C   0  0  0  0  0  0
   50.8430  101.1611   26.9185 C   0  0  0  0  0  0
   51.3065  101.4846   28.1929 C   0  0  0  0  0  0
   51.4986  100.4746   29.1677 C   0  0  0  0  0  0
   51.9043  100.7729   30.4937 C   0  0  0  0  0  0
   52.0113   99.7627   31.4534 C   0  0  0  0  0  0
   51.7624   98.4331   31.0930 C   0  0  0  0  0  0
   51.3897   98.1082   29.7935 C   0  0  0  0  0  0
   51.2431   99.1182   28.8126 C   0  0  0  0  0  0
   50.0715   99.4712   25.1886 C   0  0  0  0  0  0
   50.0404   98.3033   24.8110 O   0  0  0  0  0  0
   49.6439  100.5096   24.4111 O   0  0  0  0  0  0
   52.2677  100.1695   32.7740 N   0  0  0  0  0  0
   52.7422   99.4406   33.8093 C   0  0  0  0  0  0
   53.2325   98.3204   33.6985 O   0  0  0  0  0  0
   52.6916  100.0336   35.0209 N   0  0  0  0  0  0
   51.8785  101.0971   35.4510 C   0  0  0  0  0  0
   50.5557  101.2744   35.0062 C   0  0  0  0  0  0
   52.4218  101.9404   36.3699 N   0  0  0  0  0  0
   49.7799  102.2944   35.4591 N   0  0  0  0  0  0
   50.3427  103.1443   36.3575 C   0  0  0  0  0  0
   51.6560  102.9743   36.8091 C   0  0  0  0  0  0
   49.5059  104.2333   36.8305 C   0  0  0  0  0  0
   48.8429  105.1014   37.2107 N   0  0  0  0  0  0
   50.6209   97.7828   27.2496 H   0  0  0  0  0  0
   50.6896  101.9625   26.2087 H   0  0  0  0  0  0
   51.5019  102.5155   28.4505 H   0  0  0  0  0  0
   52.0876  101.8034   30.7623 H   0  0  0  0  0  0
   51.8217   97.6336   31.8174 H   0  0  0  0  0  0
   51.1858   97.0786   29.5363 H   0  0  0  0  0  0
   49.2946  100.2232   23.5518 H   0  0  0  0  0  0
   52.1157  101.1485   32.9597 H   0  0  0  0  0  0
   53.3185   99.6560   35.7159 H   0  0  0  0  0  0
   50.0898  100.5918   34.3111 H   0  0  0  0  0  0
   52.1112  103.6452   37.5242 H   0  0  0  0  0  0
  1  2  1  0  0  0
  1 10  2  0  0  0
  1 26  1  0  0  0
  2  3  2  0  0  0
  2 11  1  0  0  0
  3  4  1  0  0  0
  3 27  1  0  0  0
  4  5  2  0  0  0
  4 28  1  0  0  0
  5  6  1  0  0  0
  5 10  1  0  0  0
  6  7  2  0  0  0
  6 29  1  0  0  0
  7  8  1  0  0  0
  7 14  1  0  0  0
  8  9  2  0  0  0
  8 30  1  0  0  0
  9 10  1  0  0  0
  9 31  1  0  0  0
 11 12  2  0  0  0
 11 13  1  0  0  0
 13 32  1  0  0  0
 14 15  1  0  0  0
 14 33  1  0  0  0
 15 16  2  0  0  0
 15 17  1  0  0  0
 17 18  1  0  0  0
 17 34  1  0  0  0
 18 19  1  0  0  0
 18 20  2  0  0  0
 19 21  2  0  0  0
 19 35  1  0  0  0
 20 23  1  0  0  0
 21 22  1  0  0  0
 22 23  2  0  0  0
 22 24  1  0  0  0
 23 36  1  0  0  0
 24 25  3  0  0  0
M  END
> <s_m_entry_id>
28271

> <s_m_entry_name>
dock_pv.432

> <s_m_Source_Path>
/home/csk/Desktop/cluster/DUD-E-result/rock1

> <s_m_Source_File>
dock_pv.maegz

> <i_m_Source_File_Index>
432

> <chembl_id>
CHEMBL560813

> <chembl_pref_name>
None

> <i_lp_mmshare_version>
53161

> <r_lp_tautomer_probability>
1

> <s_lp_Force_Field>
OPLS_2005

> <r_lp_Energy>
29.389072

> <b_lp_Chiralities_Consistent>
1

> <s_lp_Variant>
CHEMBL3231_lig1254-1

> <s_i_glide_gridfile>
glide-grid_2etr

> <i_i_glide_lignum>
1745

> <i_i_glide_rotatable_bonds>
6

> <r_i_docking_score>
-7.48345292244148

> <r_i_glide_ligand_efficiency>
-0.299338116897659

> <r_i_glide_ligand_efficiency_sa>
-0.875269962592864

> <r_i_glide_ligand_efficiency_ln>
-1.77380260360597

> <r_i_glide_gscore>
-7.48345292244148

> <r_i_glide_lipo>
-2.51724540904881

> <r_i_glide_hbond>
-0.440290015430491

> <r_i_glide_metal>
0

> <r_i_glide_rewards>
-1.8222354914119

> <r_i_glide_evdw>
-41.1463203430176

> <r_i_glide_ecoul>
-9.88746166229248

> <r_i_glide_erotb>
0.848222755115624

> <r_i_glide_esite>
-0.0114694951711536

> <r_i_glide_emodel>
-63.9966354387356

> <r_i_glide_energy>
-51.0337820053101

> <r_i_glide_einternal>
9.64371871948242

> <i_i_glide_confnum>
27

> <i_i_glide_posenum>
323

> <r_i_glide_eff_state_penalty>
0

> <s_user_duplicate_titles>
CHEMBL3231_lig1254

> <i_f3d_flags>
0

> <s_m_subgroup_title>
dock_pv

> <s_m_subgroupid>
dock_pv

> <b_m_subgroup_collapsed>
1

$$$$
CHEMBL3231_lig1531
                    3D
 Schrodinger Suite 2021-1.
 41 43  0  0  1  0            999 V2000
   54.2646   97.3966   32.2631 S   0  0  0  0  0  0
   54.6310  101.8156   33.3941 O   0  0  0  0  0  0
   54.4296   97.5011   30.8113 O   0  0  0  0  0  0
   53.0424   97.8973   32.9005 O   0  0  0  0  0  0
   52.5938  103.9017   31.2107 N   0  0  0  0  0  0
   50.0432   98.3043   25.2365 N   0  0  0  0  0  0
   55.6430   98.2032   32.9956 N   0  0  2  0  0  0
   51.7932  100.6373   29.4264 C   0  0  0  0  0  0
   52.3487  101.6085   30.4268 C   0  0  0  0  0  0
   50.9122  100.1676   27.1806 C   0  0  0  0  0  0
   50.8661   98.7775   27.4902 C   0  0  0  0  0  0
   51.3879  101.0731   28.1566 C   0  0  0  0  0  0
   51.6867   99.2689   29.7191 C   0  0  0  0  0  0
   53.2053  101.1987   31.4623 C   0  0  0  0  0  0
   51.2430   98.3431   28.7777 C   0  0  0  0  0  0
   53.7751  102.1267   32.3526 C   0  0  0  0  0  0
   52.0698  102.9824   30.3641 C   0  0  0  0  0  0
   50.4834  100.5939   25.8978 C   0  0  0  0  0  0
   50.4373   97.9029   26.4665 C   0  0  0  0  0  0
   53.4440  103.4684   32.1704 C   0  0  0  0  0  0
   50.0483   99.6352   24.9846 C   0  0  0  0  0  0
   54.8068  100.4518   33.7786 C   0  0  0  0  0  0
   55.7334   99.6693   32.8229 C   0  0  0  0  0  0
   54.4996   95.6053   32.7672 C   0  0  0  0  0  0
   56.4999   97.8352   32.5566 H   0  0  0  0  0  0
   51.4532  102.1135   27.8792 H   0  0  0  0  0  0
   51.9603   98.8928   30.6928 H   0  0  0  0  0  0
   53.4520  100.1555   31.5531 H   0  0  0  0  0  0
   51.1917   97.2921   29.0257 H   0  0  0  0  0  0
   51.4146  103.3900   29.6109 H   0  0  0  0  0  0
   50.4935  101.6429   25.6411 H   0  0  0  0  0  0
   50.4140   96.8384   26.6492 H   0  0  0  0  0  0
   53.8640  104.2306   32.8105 H   0  0  0  0  0  0
   49.7006   99.9389   24.0111 H   0  0  0  0  0  0
   53.8331   99.9808   33.9002 H   0  0  0  0  0  0
   55.2389  100.4332   34.7798 H   0  0  0  0  0  0
   56.7617   99.9040   33.0984 H   0  0  0  0  0  0
   55.6379   99.9434   31.7715 H   0  0  0  0  0  0
   53.6439   95.0339   32.4131 H   0  0  0  0  0  0
   54.5612   95.5539   33.8531 H   0  0  0  0  0  0
   55.4204   95.2353   32.3172 H   0  0  0  0  0  0
  1  3  2  0  0  0
  1  4  2  0  0  0
  1  7  1  0  0  0
  1 24  1  0  0  0
  2 16  1  0  0  0
  2 22  1  0  0  0
  5 17  2  0  0  0
  5 20  1  0  0  0
  6 19  2  0  0  0
  6 21  1  0  0  0
  7 23  1  0  0  0
  7 25  1  0  0  0
  8  9  1  0  0  0
  8 12  1  0  0  0
  8 13  2  0  0  0
  9 14  2  0  0  0
  9 17  1  0  0  0
 10 11  1  0  0  0
 10 12  2  0  0  0
 10 18  1  0  0  0
 11 15  2  0  0  0
 11 19  1  0  0  0
 12 26  1  0  0  0
 13 15  1  0  0  0
 13 27  1  0  0  0
 14 16  1  0  0  0
 14 28  1  0  0  0
 15 29  1  0  0  0
 16 20  2  0  0  0
 17 30  1  0  0  0
 18 21  2  0  0  0
 18 31  1  0  0  0
 19 32  1  0  0  0
 20 33  1  0  0  0
 21 34  1  0  0  0
 22 23  1  0  0  0
 22 35  1  0  0  0
 22 36  1  0  0  0
 23 37  1  0  0  0
 23 38  1  0  0  0
 24 39  1  0  0  0
 24 40  1  0  0  0
 24 41  1  0  0  0
M  END
> <s_m_entry_id>
28272

> <s_m_entry_name>
dock_pv.433

> <s_m_Source_Path>
/home/csk/Desktop/cluster/DUD-E-result/rock1

> <s_m_Source_File>
dock_pv.maegz

> <i_m_Source_File_Index>
433

> <chembl_id>
CHEMBL1964804

> <chembl_pref_name>
None

> <i_lp_mmshare_version>
53161

> <r_lp_tautomer_probability>
1

> <s_lp_Force_Field>
OPLS_2005

> <r_lp_Energy>
18.467482

> <b_lp_Chiralities_Consistent>
1

> <s_lp_Variant>
CHEMBL3231_lig1531-1

> <s_i_glide_gridfile>
glide-grid_2etr

> <i_i_glide_lignum>
2171

> <i_i_glide_rotatable_bonds>
6

> <r_i_docking_score>
-7.48133935113879

> <r_i_glide_ligand_efficiency>
-0.311722472964116

> <r_i_glide_ligand_efficiency_sa>
-0.899163204422789

> <r_i_glide_ligand_efficiency_ln>
-1.79062780302085

> <r_i_glide_gscore>
-7.48133935113879

> <r_i_glide_lipo>
-2.41084124097616

> <r_i_glide_hbond>
-0.358555337451859

> <r_i_glide_metal>
0

> <r_i_glide_rewards>
-2.479738105607

> <r_i_glide_evdw>
-40.3348617553711

> <r_i_glide_ecoul>
-5.80402374267578

> <r_i_glide_erotb>
0.804521141251023

> <r_i_glide_esite>
-0.149379159184867

> <r_i_glide_emodel>
-64.7776484299292

> <r_i_glide_energy>
-46.1388854980469

> <r_i_glide_einternal>
6.76477956771851

> <i_i_glide_confnum>
207

> <i_i_glide_posenum>
106

> <r_i_glide_eff_state_penalty>
0

> <s_user_duplicate_titles>
CHEMBL3231_lig1531

> <i_f3d_flags>
0

> <s_m_subgroup_title>
dock_pv

> <s_m_subgroupid>
dock_pv

> <b_m_subgroup_collapsed>
1

$$$$
CHEMBL3231_lig1947
                    3D
 Schrodinger Suite 2021-1.
 49 52  0  0  1  0            999 V2000
   51.8644  103.6531   33.3402 O   0  0  0  0  0  0
   50.4423   97.7066   26.8164 N   0  0  0  0  0  0
   50.1551   98.3838   25.6908 N   0  0  0  0  0  0
   53.9206  103.5574   30.2486 N   0  0  0  0  0  0
   51.7705  106.7983   35.2114 N   0  0  0  0  0  0
   50.8338   99.8352   27.2783 C   0  0  0  0  0  0
   50.8562   98.5376   27.8347 C   0  0  0  0  0  0
   51.6526  100.7077   29.3834 C   0  0  0  0  0  0
   51.2273  100.9240   28.0662 C   0  0  0  0  0  0
   50.3790   99.6505   25.9354 C   0  0  0  0  0  0
   52.2196  101.8373   30.1619 C   0  0  0  0  0  0
   51.2426   98.3024   29.1610 C   0  0  0  0  0  0
   51.6380   99.4126   29.9119 C   0  0  0  0  0  0
   51.7829  102.2186   31.4404 C   0  0  0  0  0  0
   52.3928  103.2845   32.1167 C   0  0  0  0  0  0
   53.2747  102.5598   29.6107 C   0  0  0  0  0  0
   53.4814  103.9030   31.4809 C   0  0  0  0  0  0
   50.1488  100.7032   24.8803 C   0  0  0  0  0  0
   52.4602  104.7022   34.1109 C   0  0  0  0  0  0
   51.3614  105.4342   34.9250 C   0  0  1  0  0  0
   50.3275  103.3588   35.9515 C   0  0  0  0  0  0
   50.9507  104.7172   36.2293 C   0  0  0  0  0  0
   48.9831  103.2787   35.5842 C   0  0  0  0  0  0
   51.1209  102.2079   35.9871 C   0  0  0  0  0  0
   48.4424  102.0529   35.2114 C   0  0  0  0  0  0
   50.5786  100.9832   35.6105 C   0  0  0  0  0  0
   49.2446  100.9139   35.2150 C   0  0  0  0  0  0
   50.3476   96.7018   26.8439 H   0  0  0  0  0  0
   52.6091  106.7966   35.7728 H   0  0  0  0  0  0
   52.0432  107.2213   34.3204 H   0  0  0  0  0  0
   51.2417  101.9169   27.6426 H   0  0  0  0  0  0
   51.2485   97.3095   29.5877 H   0  0  0  0  0  0
   51.9790   99.2570   30.9260 H   0  0  0  0  0  0
   50.9681  101.6997   31.9199 H   0  0  0  0  0  0
   53.6429  102.3030   28.6308 H   0  0  0  0  0  0
   54.0428  104.7113   31.9213 H   0  0  0  0  0  0
   50.9825  101.4100   24.8454 H   0  0  0  0  0  0
   50.0436  100.2815   23.8789 H   0  0  0  0  0  0
   49.2414  101.2790   25.0801 H   0  0  0  0  0  0
   52.9812  105.4327   33.5023 H   0  0  0  0  0  0
   53.2236  104.2845   34.7686 H   0  0  0  0  0  0
   50.4779  105.5246   34.2933 H   0  0  0  0  0  0
   50.2275  105.3190   36.7822 H   0  0  0  0  0  0
   51.8039  104.6049   36.8994 H   0  0  0  0  0  0
   48.3664  104.1642   35.5574 H   0  0  0  0  0  0
   52.1635  102.2641   36.2614 H   0  0  0  0  0  0
   47.4040  101.9873   34.9128 H   0  0  0  0  0  0
   51.1910  100.0924   35.6163 H   0  0  0  0  0  0
   48.8286   99.9633   34.9173 H   0  0  0  0  0  0
  1 15  1  0  0  0
  1 19  1  0  0  0
  2  3  1  0  0  0
  2  7  1  0  0  0
  2 28  1  0  0  0
  3 10  2  0  0  0
  4 16  1  0  0  0
  4 17  2  0  0  0
  5 20  1  0  0  0
  5 29  1  0  0  0
  5 30  1  0  0  0
  6  7  1  0  0  0
  6  9  2  0  0  0
  6 10  1  0  0  0
  7 12  2  0  0  0
  8  9  1  0  0  0
  8 11  1  0  0  0
  8 13  2  0  0  0
  9 31  1  0  0  0
 10 18  1  0  0  0
 11 14  1  0  0  0
 11 16  2  0  0  0
 12 13  1  0  0  0
 12 32  1  0  0  0
 13 33  1  0  0  0
 14 15  2  0  0  0
 14 34  1  0  0  0
 15 17  1  0  0  0
 16 35  1  0  0  0
 17 36  1  0  0  0
 18 37  1  0  0  0
 18 38  1  0  0  0
 18 39  1  0  0  0
 19 20  1  0  0  0
 19 40  1  0  0  0
 19 41  1  0  0  0
 20 22  1  0  0  0
 20 42  1  0  0  0
 21 22  1  0  0  0
 21 23  2  0  0  0
 21 24  1  0  0  0
 22 43  1  0  0  0
 22 44  1  0  0  0
 23 25  1  0  0  0
 23 45  1  0  0  0
 24 26  2  0  0  0
 24 46  1  0  0  0
 25 27  2  0  0  0
 25 47  1  0  0  0
 26 27  1  0  0  0
 26 48  1  0  0  0
 27 49  1  0  0  0
M  END
> <s_m_entry_id>
28273

> <s_m_entry_name>
dock_pv.434

> <s_m_Source_Path>
/home/csk/Desktop/cluster/DUD-E-result/rock1

> <s_m_Source_File>
dock_pv.maegz

> <i_m_Source_File_Index>
434

> <chembl_id>
CHEMBL2002726

> <chembl_pref_name>
None

> <i_lp_mmshare_version>
53161

> <r_lp_tautomer_probability>
0.980392156862745

> <s_lp_Force_Field>
OPLS_2005

> <r_lp_Energy>
24.458238

> <b_lp_Chiralities_Consistent>
1

> <s_lp_Variant>
CHEMBL3231_lig1947-2

> <s_i_glide_gridfile>
glide-grid_2etr

> <i_i_glide_lignum>
2829

> <i_i_glide_rotatable_bonds>
6

> <r_i_docking_score>
-7.48013338778792

> <r_i_glide_ligand_efficiency>
-0.277041977325478

> <r_i_glide_ligand_efficiency_sa>
-0.83112593106335

> <r_i_glide_ligand_efficiency_ln>
-1.74125173304018

> <r_i_glide_gscore>
-7.48013338778792

> <r_i_glide_lipo>
-3.38830127136823

> <r_i_glide_hbond>
-0.16

> <r_i_glide_metal>
0

> <r_i_glide_rewards>
-1.89852901789713

> <r_i_glide_evdw>
-44.2481956481934

> <r_i_glide_ecoul>
-3.7759268283844

> <r_i_glide_erotb>
0.745495708144768

> <r_i_glide_esite>
0

> <r_i_glide_emodel>
-67.234125490941

> <r_i_glide_energy>
-48.0241224765778

> <r_i_glide_einternal>
5.66302537918091

> <i_i_glide_confnum>
19

> <i_i_glide_posenum>
261

> <r_i_glide_eff_state_penalty>
0

> <s_user_duplicate_titles>
CHEMBL3231_lig1947

> <i_f3d_flags>
0

> <s_m_subgroup_title>
dock_pv

> <s_m_subgroupid>
dock_pv

> <b_m_subgroup_collapsed>
1

$$$$
CHEMBL3231_lig1563
                    3D
 Schrodinger Suite 2021-1.
 39 42  0  0  1  0            999 V2000
   51.2938  101.0765   28.7862 C   0  0  0  0  0  0
   50.8488  102.0187   27.8567 C   0  0  0  0  0  0
   50.4402  101.6705   26.5740 C   0  0  0  0  0  0
   51.2905   99.7145   28.4576 C   0  0  0  0  0  0
   50.8211   99.3241   27.1902 C   0  0  0  0  0  0
   50.4097  100.3132   26.2657 C   0  0  0  0  0  0
   50.0078   99.6280   25.1364 N   0  0  0  0  0  0
   50.1105   98.2992   25.2956 N   0  0  0  0  0  0
   50.6082   98.0997   26.4895 C   0  0  0  0  0  0
   51.7607  101.5513   30.1215 C   0  0  0  0  0  0
   52.2542  100.9375   31.2548 C   0  0  0  0  0  0
   52.4649  101.9633   32.1768 C   0  0  0  0  0  0
   52.1634  103.1362   31.6609 N   0  0  0  0  0  0
   51.7022  102.8873   30.3707 O   0  0  0  0  0  0
   52.9328  101.8618   33.6242 C   0  0  0  0  0  0
   51.8424  101.8467   34.6136 N   0  0  0  0  0  0
   50.8918  100.7439   34.4075 C   0  0  0  0  0  0
   49.8013  100.6983   35.4953 C   0  0  0  0  0  0
   49.1164  102.0536   35.7208 C   0  0  0  0  0  0
   50.1755  103.1436   35.9453 C   0  0  0  0  0  0
   51.2220  103.1659   34.8144 C   0  0  0  0  0  0
   50.8432  103.0668   28.1157 H   0  0  0  0  0  0
   50.1100  102.4281   25.8842 H   0  0  0  0  0  0
   51.6242   98.9734   29.1675 H   0  0  0  0  0  0
   49.6427  100.0111   24.2738 H   0  0  0  0  0  0
   50.8034   97.1028   26.8482 H   0  0  0  0  0  0
   52.4230   99.8818   31.4062 H   0  0  0  0  0  0
   53.6136  102.6827   33.8610 H   0  0  0  0  0  0
   53.5307  100.9581   33.7578 H   0  0  0  0  0  0
   51.4491   99.8063   34.4188 H   0  0  0  0  0  0
   50.4436  100.8202   33.4181 H   0  0  0  0  0  0
   50.2415  100.3055   36.4111 H   0  0  0  0  0  0
   49.0473   99.9654   35.2104 H   0  0  0  0  0  0
   48.5046  102.3066   34.8513 H   0  0  0  0  0  0
   48.4434  101.9976   36.5756 H   0  0  0  0  0  0
   49.6841  104.1165   36.0044 H   0  0  0  0  0  0
   50.6716  103.0143   36.9060 H   0  0  0  0  0  0
   51.9998  103.8888   35.0629 H   0  0  0  0  0  0
   50.7676  103.5098   33.8840 H   0  0  0  0  0  0
  1 10  1  0  0  0
  1  2  2  0  0  0
  1  4  1  0  0  0
  2  3  1  0  0  0
  2 22  1  0  0  0
  3  6  2  0  0  0
  3 23  1  0  0  0
  4  5  2  0  0  0
  4 24  1  0  0  0
  5  6  1  0  0  0
  5  9  1  0  0  0
  6  7  1  0  0  0
  7  8  1  0  0  0
  7 25  1  0  0  0
  8  9  2  0  0  0
  9 26  1  0  0  0
 10 11  2  0  0  0
 10 14  1  0  0  0
 11 12  1  0  0  0
 11 27  1  0  0  0
 12 13  2  0  0  0
 12 15  1  0  0  0
 13 14  1  0  0  0
 15 16  1  0  0  0
 15 28  1  0  0  0
 15 29  1  0  0  0
 16 17  1  0  0  0
 16 21  1  0  0  0
 17 18  1  0  0  0
 17 30  1  0  0  0
 17 31  1  0  0  0
 18 19  1  0  0  0
 18 32  1  0  0  0
 18 33  1  0  0  0
 19 20  1  0  0  0
 19 34  1  0  0  0
 19 35  1  0  0  0
 20 21  1  0  0  0
 20 36  1  0  0  0
 20 37  1  0  0  0
 21 38  1  0  0  0
 21 39  1  0  0  0
M  END
> <s_m_entry_id>
28275

> <s_m_entry_name>
dock_pv.436

> <s_m_Source_Path>
/home/csk/Desktop/cluster/DUD-E-result/rock1

> <s_m_Source_File>
dock_pv.maegz

> <i_m_Source_File_Index>
436

> <chembl_id>
CHEMBL1682360

> <chembl_pref_name>
None

> <i_lp_mmshare_version>
53161

> <r_lp_tautomer_probability>
0.980392156862745

> <s_lp_Force_Field>
OPLS_2005

> <r_lp_Energy>
17.406278

> <b_lp_Chiralities_Consistent>
1

> <s_lp_Variant>
CHEMBL3231_lig1563-1

> <s_i_glide_gridfile>
glide-grid_2etr

> <i_i_glide_lignum>
2215

> <i_i_glide_rotatable_bonds>
3

> <r_i_docking_score>
-7.47847698683833

> <r_i_glide_ligand_efficiency>
-0.356117951754206

> <r_i_glide_ligand_efficiency_sa>
-0.982502425740921

> <r_i_glide_ligand_efficiency_ln>
-1.84903832331013

> <r_i_glide_gscore>
-7.47847698683833

> <r_i_glide_lipo>
-2.81526270459877

> <r_i_glide_hbond>
-0.224871734192233

> <r_i_glide_metal>
0

> <r_i_glide_rewards>
-2.72070993939394

> <r_i_glide_evdw>
-34.7651596069336

> <r_i_glide_ecoul>
-2.38791656494141

> <r_i_glide_erotb>
0.476609151611921

> <r_i_glide_esite>
-0.0977962951774194

> <r_i_glide_emodel>
-53.351204317493

> <r_i_glide_energy>
-37.153076171875

> <r_i_glide_einternal>
3.14977693557739

> <i_i_glide_confnum>
9

> <i_i_glide_posenum>
123

> <r_i_glide_eff_state_penalty>
0

> <s_user_duplicate_titles>
CHEMBL3231_lig1563,CHEMBL3231_lig1563

> <i_f3d_flags>
0

> <s_m_subgroup_title>
dock_pv

> <s_m_subgroupid>
dock_pv

> <b_m_subgroup_collapsed>
1

$$$$
CHEMBL3231_lig927
                    3D
 Schrodinger Suite 2021-1.
 37 40  0  0  1  0            999 V2000
   53.2962  100.1752   30.9849 N   0  0  0  0  0  0
   53.5582  100.9305   32.0046 C   0  0  0  0  0  0
   52.9903  102.1864   32.1016 N   0  0  0  0  0  0
   52.1157  102.7952   31.2427 C   0  0  0  0  0  0
   52.4532  100.6637   30.0267 C   0  0  0  0  0  0
   51.8652  101.9256   30.1040 C   0  0  0  0  0  0
   50.8415  102.2663   28.7507 S   0  0  0  0  0  0
   51.1879  100.7005   28.0575 C   0  0  0  0  0  0
   52.0719   99.9848   28.8664 C   0  0  0  0  0  0
   50.5854  100.2866   26.7959 C   0  0  0  0  0  0
   50.1244  101.1030   25.7756 C   0  0  0  0  0  0
   49.6511  100.2650   24.8107 N   0  0  0  0  0  0
   49.7901   98.9799   25.1263 N   0  0  0  0  0  0
   50.3286   98.9793   26.3260 C   0  0  0  0  0  0
   51.6436  103.9008   31.4824 O   0  0  0  0  0  0
   50.5867   97.6612   27.0012 C   0  0  0  0  0  0
   54.4854  100.4819   33.1561 C   0  0  1  0  0  0
   53.7406  100.0777   34.3612 N   0  0  1  0  0  0
   53.0088   98.8168   34.1948 C   0  0  0  0  0  0
   53.8065   97.7186   33.5090 C   0  0  0  0  0  0
   54.9639   97.9742   32.8733 C   0  0  0  0  0  0
   55.5283   99.3875   32.7462 C   0  0  0  0  0  0
   53.2159  102.7285   32.9189 H   0  0  0  0  0  0
   52.4387   98.9985   28.6338 H   0  0  0  0  0  0
   50.0855  102.1765   25.6626 H   0  0  0  0  0  0
   49.2431  100.5493   23.9257 H   0  0  0  0  0  0
   50.1346   97.6245   27.9944 H   0  0  0  0  0  0
   50.2009   96.8089   26.4398 H   0  0  0  0  0  0
   51.6553   97.5046   27.1312 H   0  0  0  0  0  0
   55.0651  101.3635   33.4307 H   0  0  0  0  0  0
   54.4249   99.9260   35.0939 H   0  0  0  0  0  0
   52.0699   98.9631   33.6607 H   0  0  0  0  0  0
   52.6980   98.4589   35.1781 H   0  0  0  0  0  0
   53.4457   96.7000   33.5383 H   0  0  0  0  0  0
   55.5035   97.1547   32.4194 H   0  0  0  0  0  0
   55.8983   99.5531   31.7303 H   0  0  0  0  0  0
   56.4100   99.4510   33.3898 H   0  0  0  0  0  0
  1  5  1  0  0  0
  1  2  2  0  0  0
  2  3  1  0  0  0
  2 17  1  0  0  0
  3  4  1  0  0  0
  3 23  1  0  0  0
  4  6  1  0  0  0
  4 15  2  0  0  0
  5  6  2  0  0  0
  5  9  1  0  0  0
  6  7  1  0  0  0
  7  8  1  0  0  0
  8  9  2  0  0  0
  8 10  1  0  0  0
  9 24  1  0  0  0
 10 11  2  0  0  0
 10 14  1  0  0  0
 11 12  1  0  0  0
 11 25  1  0  0  0
 12 13  1  0  0  0
 12 26  1  0  0  0
 13 14  2  0  0  0
 14 16  1  0  0  0
 16 27  1  0  0  0
 16 28  1  0  0  0
 16 29  1  0  0  0
 17 18  1  0  0  0
 17 22  1  0  0  0
 17 30  1  0  0  0
 18 19  1  0  0  0
 18 31  1  0  0  0
 19 20  1  0  0  0
 19 32  1  0  0  0
 19 33  1  0  0  0
 20 21  2  0  0  0
 20 34  1  0  0  0
 21 22  1  0  0  0
 21 35  1  0  0  0
 22 36  1  0  0  0
 22 37  1  0  0  0
M  END
> <s_m_entry_id>
28276

> <s_m_entry_name>
dock_pv.437

> <s_m_Source_Path>
/home/csk/Desktop/cluster/DUD-E-result/rock1

> <s_m_Source_File>
dock_pv.maegz

> <i_m_Source_File_Index>
437

> <chembl_id>
CHEMBL4543158

> <chembl_pref_name>
None

> <i_lp_mmshare_version>
53161

> <r_lp_tautomer_probability>
0.5

> <s_lp_Force_Field>
OPLS_2005

> <r_lp_Energy>
23.259188

> <b_lp_Chiralities_Consistent>
1

> <s_lp_Variant>
CHEMBL3231_lig927-1

> <s_i_glide_gridfile>
glide-grid_2etr

> <i_i_glide_lignum>
1329

> <i_i_glide_rotatable_bonds>
2

> <r_i_docking_score>
-7.47328787281006

> <r_i_glide_ligand_efficiency>
-0.339694903309548

> <r_i_glide_ligand_efficiency_sa>
-0.951838478515809

> <r_i_glide_ligand_efficiency_ln>
-1.82674415091324

> <r_i_glide_gscore>
-7.47328787281006

> <r_i_glide_lipo>
-1.94976173998636

> <r_i_glide_hbond>
-0.458267459889417

> <r_i_glide_metal>
0

> <r_i_glide_rewards>
-2.50908598484848

> <r_i_glide_evdw>
-37.0136070251465

> <r_i_glide_ecoul>
-6.94473886489868

> <r_i_glide_erotb>
0.37825005299595

> <r_i_glide_esite>
-0.0420315600896226

> <r_i_glide_emodel>
-64.8594891168271

> <r_i_glide_energy>
-43.9583458900452

> <r_i_glide_einternal>
0.0482704564929008

> <i_i_glide_confnum>
28

> <i_i_glide_posenum>
69

> <r_i_glide_eff_state_penalty>
0

> <s_user_duplicate_titles>
CHEMBL3231_lig927,CHEMBL3231_lig927

> <i_f3d_flags>
0

> <s_m_subgroup_title>
dock_pv

> <s_m_subgroupid>
dock_pv

> <b_m_subgroup_collapsed>
1

$$$$
CHEMBL3231_lig913
                    3D
 Schrodinger Suite 2021-1.
 34 36  0  0  1  0            999 V2000
   53.0963  100.4648   34.4701 C   0  0  0  0  0  0
   53.2551  100.9111   32.9908 C   0  0  1  0  0  0
   54.7225  100.8546   32.5130 C   0  0  0  0  0  0
   52.5081   99.9180   32.1842 N   0  0  0  0  0  0
   52.6987  102.2779   32.7894 N   0  0  0  0  0  0
   52.0420  102.7399   31.6971 C   0  0  0  0  0  0
   52.1179  100.3406   30.9357 C   0  0  0  0  0  0
   51.9124  101.6991   30.7132 C   0  0  0  0  0  0
   51.3270  101.9721   29.1022 S   0  0  0  0  0  0
   51.3729  100.2640   28.7254 C   0  0  0  0  0  0
   51.8376   99.5423   29.8282 C   0  0  0  0  0  0
   50.9171   99.7518   27.3912 C   0  0  0  0  0  0
   50.8813   98.3672   27.1654 C   0  0  0  0  0  0
   50.4431   97.8893   25.9333 C   0  0  0  0  0  0
   50.0427   98.7032   24.9265 N   0  0  0  0  0  0
   50.0768  100.0413   25.1438 C   0  0  0  0  0  0
   50.5043  100.5992   26.3481 C   0  0  0  0  0  0
   51.6430  103.9021   31.6424 O   0  0  0  0  0  0
   51.6606  100.4988   35.0430 C   0  0  0  0  0  0
   53.7231  101.1024   35.0962 H   0  0  0  0  0  0
   53.5016   99.4594   34.5999 H   0  0  0  0  0  0
   54.8241  101.1250   31.4608 H   0  0  0  0  0  0
   55.3432  101.5483   33.0809 H   0  0  0  0  0  0
   55.1571   99.8617   32.6367 H   0  0  0  0  0  0
   52.7622   98.9572   32.3639 H   0  0  0  0  0  0
   52.9349  102.9757   33.4761 H   0  0  0  0  0  0
   51.9439   98.4676   29.8461 H   0  0  0  0  0  0
   51.1842   97.6599   27.9230 H   0  0  0  0  0  0
   50.4188   96.8266   25.7386 H   0  0  0  0  0  0
   49.7489  100.6667   24.3251 H   0  0  0  0  0  0
   50.5066  101.6736   26.4572 H   0  0  0  0  0  0
   51.6482  100.1706   36.0835 H   0  0  0  0  0  0
   50.9908   99.8418   34.4860 H   0  0  0  0  0  0
   51.2404  101.5047   35.0116 H   0  0  0  0  0  0
  1  2  1  0  0  0
  1 19  1  0  0  0
  1 20  1  0  0  0
  1 21  1  0  0  0
  2  3  1  0  0  0
  2  4  1  0  0  0
  2  5  1  0  0  0
  3 22  1  0  0  0
  3 23  1  0  0  0
  3 24  1  0  0  0
  4  7  1  0  0  0
  4 25  1  0  0  0
  5  6  1  0  0  0
  5 26  1  0  0  0
  6  8  1  0  0  0
  6 18  2  0  0  0
  7  8  2  0  0  0
  7 11  1  0  0  0
  8  9  1  0  0  0
  9 10  1  0  0  0
 10 11  2  0  0  0
 10 12  1  0  0  0
 11 27  1  0  0  0
 12 13  2  0  0  0
 12 17  1  0  0  0
 13 14  1  0  0  0
 13 28  1  0  0  0
 14 15  2  0  0  0
 14 29  1  0  0  0
 15 16  1  0  0  0
 16 17  2  0  0  0
 16 30  1  0  0  0
 17 31  1  0  0  0
 19 32  1  0  0  0
 19 33  1  0  0  0
 19 34  1  0  0  0
M  END
> <s_m_entry_id>
28277

> <s_m_entry_name>
dock_pv.438

> <s_m_Source_Path>
/home/csk/Desktop/cluster/DUD-E-result/rock1

> <s_m_Source_File>
dock_pv.maegz

> <i_m_Source_File_Index>
438

> <chembl_id>
CHEMBL4203275

> <chembl_pref_name>
None

> <i_lp_mmshare_version>
53161

> <r_lp_tautomer_probability>
0.99999637101317

> <s_lp_Force_Field>
OPLS_2005

> <r_lp_Energy>
18.964103

> <b_lp_Chiralities_Consistent>
1

> <s_lp_Variant>
CHEMBL3231_lig913-2

> <s_i_glide_gridfile>
glide-grid_2etr

> <i_i_glide_lignum>
1311

> <i_i_glide_rotatable_bonds>
2

> <r_i_docking_score>
-7.47011752450393

> <r_i_glide_ligand_efficiency>
-0.393164080237049

> <r_i_glide_ligand_efficiency_sa>
-1.0491196788931

> <r_i_glide_ligand_efficiency_ln>
-1.89383523587493

> <r_i_glide_gscore>
-7.47011752450393

> <r_i_glide_lipo>
-2.24749028200841

> <r_i_glide_hbond>
-0.311871075370161

> <r_i_glide_metal>
0

> <r_i_glide_rewards>
-2.70026426744983

> <r_i_glide_evdw>
-33.7036552429199

> <r_i_glide_ecoul>
-4.65875673294067

> <r_i_glide_erotb>
0.240059414020591

> <r_i_glide_esite>
-0.066555041609019

> <r_i_glide_emodel>
-56.4933371816585

> <r_i_glide_energy>
-38.3624119758606

> <r_i_glide_einternal>
0.0173596329987049

> <i_i_glide_confnum>
1

> <i_i_glide_posenum>
15

> <r_i_glide_eff_state_penalty>
0

> <s_user_duplicate_titles>
CHEMBL3231_lig913

> <i_f3d_flags>
0

> <s_m_subgroup_title>
dock_pv

> <s_m_subgroupid>
dock_pv

> <b_m_subgroup_collapsed>
1

$$$$
CHEMBL3231_lig611
                    3D
 Schrodinger Suite 2021-1.
 43 45  0  0  1  0            999 V2000
   51.2698   97.9759   29.9970 C   0  0  0  0  0  0
   51.9878   98.7043   29.0006 O   0  0  0  0  0  0
   51.7515  100.0588   28.9883 C   0  0  0  0  0  0
   52.3078  100.8433   30.0034 C   0  0  0  0  0  0
   52.0928  102.2273   30.0466 C   0  0  0  0  0  0
   51.2813  102.8180   29.0786 C   0  0  0  0  0  0
   50.7613  102.0502   28.0421 C   0  0  0  0  0  0
   51.0124  100.6731   27.9587 C   0  0  0  0  0  0
   50.5066   99.9481   26.7472 C   0  0  0  0  0  0
   50.5500   98.5770   26.4214 C   0  0  0  0  0  0
   50.0440   98.2964   25.2427 N   0  0  0  0  0  0
   49.6431   99.4744   24.7745 N   0  0  0  0  0  0
   49.9004  100.5035   25.6273 C   0  0  0  0  0  0
   52.7162  103.0718   31.1193 C   0  0  0  0  0  0
   52.0452  103.9009   31.7371 O   0  0  0  0  0  0
   54.0187  102.8286   31.3342 N   0  0  0  0  0  0
   54.8124  103.3166   32.4593 C   0  0  0  0  0  0
   54.5138  102.5609   33.7790 C   0  0  0  0  0  0
   54.2849  101.0529   33.6384 C   0  0  0  0  0  0
   53.1610  100.4670   34.2287 C   0  0  0  0  0  0
   52.9215   99.1042   34.0746 C   0  0  0  0  0  0
   53.8061   98.3263   33.3308 C   0  0  0  0  0  0
   54.9339   98.8995   32.7471 C   0  0  0  0  0  0
   55.1745  100.2617   32.9029 C   0  0  0  0  0  0
   51.6436   96.9561   30.0619 H   0  0  0  0  0  0
   51.3562   98.4172   30.9919 H   0  0  0  0  0  0
   50.2158   97.8907   29.7395 H   0  0  0  0  0  0
   52.9118  100.3608   30.7602 H   0  0  0  0  0  0
   51.0920  103.8820   29.0931 H   0  0  0  0  0  0
   50.1785  102.5551   27.2867 H   0  0  0  0  0  0
   50.9632   97.7891   27.0329 H   0  0  0  0  0  0
   49.2158   99.5766   23.8582 H   0  0  0  0  0  0
   49.6387  101.5151   25.3578 H   0  0  0  0  0  0
   54.5037  102.2187   30.6901 H   0  0  0  0  0  0
   54.6368  104.3884   32.5761 H   0  0  0  0  0  0
   55.8514  103.1604   32.1676 H   0  0  0  0  0  0
   53.6204  103.0077   34.2175 H   0  0  0  0  0  0
   55.3158  102.7351   34.4970 H   0  0  0  0  0  0
   52.4668  101.0662   34.7989 H   0  0  0  0  0  0
   52.0536   98.6554   34.5315 H   0  0  0  0  0  0
   53.6209   97.2687   33.2083 H   0  0  0  0  0  0
   55.6240   98.2943   32.1745 H   0  0  0  0  0  0
   56.0430  100.6975   32.4322 H   0  0  0  0  0  0
  1  2  1  0  0  0
  1 25  1  0  0  0
  1 26  1  0  0  0
  1 27  1  0  0  0
  2  3  1  0  0  0
  3  4  2  0  0  0
  3  8  1  0  0  0
  4  5  1  0  0  0
  4 28  1  0  0  0
  5  6  2  0  0  0
  5 14  1  0  0  0
  6  7  1  0  0  0
  6 29  1  0  0  0
  7  8  2  0  0  0
  7 30  1  0  0  0
  8  9  1  0  0  0
  9 10  1  0  0  0
  9 13  2  0  0  0
 10 11  2  0  0  0
 10 31  1  0  0  0
 11 12  1  0  0  0
 12 13  1  0  0  0
 12 32  1  0  0  0
 13 33  1  0  0  0
 14 15  2  0  0  0
 14 16  1  0  0  0
 16 17  1  0  0  0
 16 34  1  0  0  0
 17 18  1  0  0  0
 17 35  1  0  0  0
 17 36  1  0  0  0
 18 19  1  0  0  0
 18 37  1  0  0  0
 18 38  1  0  0  0
 19 20  2  0  0  0
 19 24  1  0  0  0
 20 21  1  0  0  0
 20 39  1  0  0  0
 21 22  2  0  0  0
 21 40  1  0  0  0
 22 23  1  0  0  0
 22 41  1  0  0  0
 23 24  2  0  0  0
 23 42  1  0  0  0
 24 43  1  0  0  0
M  END
> <s_m_entry_id>
28278

> <s_m_entry_name>
dock_pv.439

> <s_m_Source_Path>
/home/csk/Desktop/cluster/DUD-E-result/rock1

> <s_m_Source_File>
dock_pv.maegz

> <i_m_Source_File_Index>
439

> <chembl_id>
CHEMBL3963314

> <chembl_pref_name>
None

> <i_lp_mmshare_version>
53161

> <r_lp_tautomer_probability>
0.5

> <s_lp_Force_Field>
OPLS_2005

> <r_lp_Energy>
21.268896

> <b_lp_Chiralities_Consistent>
1

> <s_lp_Variant>
CHEMBL3231_lig611-1

> <s_i_glide_gridfile>
glide-grid_2etr

> <i_i_glide_lignum>
897

> <i_i_glide_rotatable_bonds>
7

> <r_i_docking_score>
-7.46875782744719

> <r_i_glide_ligand_efficiency>
-0.3111982428103

> <r_i_glide_ligand_efficiency_sa>
-0.897651062996222

> <r_i_glide_ligand_efficiency_ln>
-1.78761646707295

> <r_i_glide_gscore>
-7.46875782744719

> <r_i_glide_lipo>
-2.1458332894565

> <r_i_glide_hbond>
-0.580903079837768

> <r_i_glide_metal>
0

> <r_i_glide_rewards>
-2.07382653093327

> <r_i_glide_evdw>
-40.7685699462891

> <r_i_glide_ecoul>
-7.82839441299438

> <r_i_glide_erotb>
0.633224769640335

> <r_i_glide_esite>
-0.0887320375963819

> <r_i_glide_emodel>
-64.8275567274165

> <r_i_glide_energy>
-48.5969643592834

> <r_i_glide_einternal>
10.3700742721558

> <i_i_glide_confnum>
18

> <i_i_glide_posenum>
263

> <r_i_glide_eff_state_penalty>
0

> <s_user_duplicate_titles>
CHEMBL3231_lig611

> <i_f3d_flags>
0

> <s_m_subgroup_title>
dock_pv

> <s_m_subgroupid>
dock_pv

> <b_m_subgroup_collapsed>
1

$$$$
CHEMBL3231_lig2066
                    3D
 Schrodinger Suite 2021-1.
 43 45  0  0  1  0            999 V2000
   51.3568  100.8998   28.3633 C   0  0  0  0  0  0
   52.3211  100.4417   29.2814 C   0  0  0  0  0  0
   52.5761  101.3308   30.3163 C   0  0  0  0  0  0
   51.6487  102.7913   30.1631 S   0  0  0  0  0  0
   50.8996  102.1680   28.7300 C   0  0  0  0  0  0
   53.4711  101.1653   31.3519 N   0  0  0  0  0  0
   53.0855  100.9572   32.6279 C   0  0  0  0  0  0
   54.2067  100.6911   33.6441 C   0  0  0  0  0  0
   51.9095  100.9712   33.0062 O   0  0  0  0  0  0
   53.9766   99.4077   34.4404 C   0  0  0  0  0  0
   54.2623   98.1658   33.8618 C   0  0  0  0  0  0
   54.0411   96.9731   34.5661 C   0  0  0  0  0  0
   53.5359   97.0456   35.8681 C   0  0  0  0  0  0
   53.2425   98.2786   36.4504 C   0  0  0  0  0  0
   53.4552   99.4574   35.7382 C   0  0  0  0  0  0
   50.8891  100.1370   27.1663 C   0  0  0  0  0  0
   50.4553  100.8099   26.0167 C   0  0  0  0  0  0
   50.0435  100.0644   24.9131 C   0  0  0  0  0  0
   50.0429   98.7085   24.9023 N   0  0  0  0  0  0
   50.4521   98.0572   26.0192 C   0  0  0  0  0  0
   50.8801   98.7345   27.1624 C   0  0  0  0  0  0
   50.4433   96.7042   26.0200 F   0  0  0  0  0  0
   54.2884   95.6971   34.0332 N   0  0  0  0  0  0
   55.2793   95.3608   32.6028 S   0  0  0  0  0  0
   56.9945   95.8414   33.2024 C   0  0  0  0  0  0
   54.8480   96.2694   31.5350 O   0  0  0  0  0  0
   55.2410   93.9067   32.4110 O   0  0  0  0  0  0
   52.8218   99.4881   29.2010 H   0  0  0  0  0  0
   50.1627  102.7678   28.2156 H   0  0  0  0  0  0
   54.4340  100.9747   31.1075 H   0  0  0  0  0  0
   54.2565  101.5491   34.3142 H   0  0  0  0  0  0
   55.1776  100.6356   33.1482 H   0  0  0  0  0  0
   54.6575   98.1624   32.8615 H   0  0  0  0  0  0
   53.3586   96.1426   36.4327 H   0  0  0  0  0  0
   52.8468   98.3216   37.4545 H   0  0  0  0  0  0
   53.2176  100.4077   36.1938 H   0  0  0  0  0  0
   50.4498  101.8892   25.9699 H   0  0  0  0  0  0
   49.7032  100.5541   24.0126 H   0  0  0  0  0  0
   51.1962   98.1700   28.0280 H   0  0  0  0  0  0
   54.0905   94.9001   34.6171 H   0  0  0  0  0  0
   57.7090   95.6278   32.4111 H   0  0  0  0  0  0
   57.2366   95.2565   34.0883 H   0  0  0  0  0  0
   57.0058   96.9071   33.4244 H   0  0  0  0  0  0
  1  2  1  0  0  0
  1  5  2  0  0  0
  1 16  1  0  0  0
  2  3  2  0  0  0
  2 28  1  0  0  0
  3  4  1  0  0  0
  3  6  1  0  0  0
  4  5  1  0  0  0
  5 29  1  0  0  0
  6  7  1  0  0  0
  6 30  1  0  0  0
  7  8  1  0  0  0
  7  9  2  0  0  0
  8 10  1  0  0  0
  8 31  1  0  0  0
  8 32  1  0  0  0
 10 11  2  0  0  0
 10 15  1  0  0  0
 11 12  1  0  0  0
 11 33  1  0  0  0
 12 13  2  0  0  0
 12 23  1  0  0  0
 13 14  1  0  0  0
 13 34  1  0  0  0
 14 15  2  0  0  0
 14 35  1  0  0  0
 15 36  1  0  0  0
 16 17  2  0  0  0
 16 21  1  0  0  0
 17 18  1  0  0  0
 17 37  1  0  0  0
 18 19  2  0  0  0
 18 38  1  0  0  0
 19 20  1  0  0  0
 20 21  2  0  0  0
 20 22  1  0  0  0
 21 39  1  0  0  0
 23 24  1  0  0  0
 23 40  1  0  0  0
 24 25  1  0  0  0
 24 26  2  0  0  0
 24 27  2  0  0  0
 25 41  1  0  0  0
 25 42  1  0  0  0
 25 43  1  0  0  0
M  END
> <s_m_entry_id>
28279

> <s_m_entry_name>
dock_pv.440

> <s_m_Source_Path>
/home/csk/Desktop/cluster/DUD-E-result/rock1

> <s_m_Source_File>
dock_pv.maegz

> <i_m_Source_File_Index>
440

> <chembl_id>
CHEMBL3580669

> <chembl_pref_name>
None

> <i_lp_mmshare_version>
53161

> <r_lp_tautomer_probability>
1

> <s_lp_Force_Field>
OPLS_2005

> <r_lp_Energy>
6.389288

> <b_lp_Chiralities_Consistent>
1

> <s_lp_Variant>
CHEMBL3231_lig2066-1

> <s_i_glide_gridfile>
glide-grid_2etr

> <i_i_glide_lignum>
2993

> <i_i_glide_rotatable_bonds>
7

> <r_i_docking_score>
-7.46817110820744

> <r_i_glide_ligand_efficiency>
-0.276598929933609

> <r_i_glide_ligand_efficiency_sa>
-0.829796788889202

> <r_i_glide_ligand_efficiency_ln>
-1.73846711156743

> <r_i_glide_gscore>
-7.46817110820744

> <r_i_glide_lipo>
-2.18480683597463

> <r_i_glide_hbond>
-0.166440800951354

> <r_i_glide_metal>
0

> <r_i_glide_rewards>
-2.15413701492856

> <r_i_glide_evdw>
-46.2379035949707

> <r_i_glide_ecoul>
-8.41644763946533

> <r_i_glide_erotb>
0.717243169695429

> <r_i_glide_esite>
-0.105667300379981

> <r_i_glide_emodel>
-79.2058376885293

> <r_i_glide_energy>
-54.654351234436

> <r_i_glide_einternal>
2.55602145195007

> <i_i_glide_confnum>
12

> <i_i_glide_posenum>
70

> <r_i_glide_eff_state_penalty>
0

> <s_user_duplicate_titles>
CHEMBL3231_lig2066

> <i_f3d_flags>
0

> <s_m_subgroup_title>
dock_pv

> <s_m_subgroupid>
dock_pv

> <b_m_subgroup_collapsed>
1

$$$$
CHEMBL3231_lig436
                    3D
 Schrodinger Suite 2021-1.
 36 38  0  0  1  0            999 V2000
   50.2449  104.1714   36.7616 F   0  0  0  0  0  0
   51.3078  103.9125   35.9660 C   0  0  0  0  0  0
   51.7801  102.6068   35.8480 C   0  0  0  0  0  0
   52.8751  102.3397   35.0289 C   0  0  0  0  0  0
   53.4925  103.3796   34.3276 C   0  0  0  0  0  0
   54.6996  103.0908   33.4393 C   0  0  0  0  0  0
   54.4430  103.2788   32.0119 N   0  0  0  0  0  0
   53.5879  102.5414   31.2868 C   0  0  0  0  0  0
   53.2085  101.4136   31.6086 O   0  0  0  0  0  0
   53.1518  103.2236   30.2154 N   0  0  0  0  0  0
   52.1851  102.7700   29.3377 C   0  0  0  0  0  0
   52.1031  101.5681   28.8031 N   0  0  0  0  0  0
   51.1487  101.5031   27.8841 C   0  0  0  0  0  0
   50.4409  102.6894   27.7208 C   0  0  0  0  0  0
   50.9906  103.9018   28.8143 S   0  0  0  0  0  0
   50.8713  100.2657   27.0978 C   0  0  0  0  0  0
   51.0790   98.9891   27.6321 C   0  0  0  0  0  0
   50.7299   97.8780   26.8642 C   0  0  0  0  0  0
   50.2194   97.9678   25.6113 N   0  0  0  0  0  0
   50.0433   99.2083   25.0939 C   0  0  0  0  0  0
   50.3506  100.3703   25.7989 C   0  0  0  0  0  0
   53.0175  104.6888   34.4543 C   0  0  0  0  0  0
   51.9214  104.9537   35.2720 C   0  0  0  0  0  0
   51.2992  101.8058   36.3904 H   0  0  0  0  0  0
   53.2381  101.3260   34.9336 H   0  0  0  0  0  0
   55.5079  103.7641   33.7269 H   0  0  0  0  0  0
   55.0831  102.0825   33.6128 H   0  0  0  0  0  0
   54.8936  104.0767   31.5805 H   0  0  0  0  0  0
   53.4811  104.1695   30.0907 H   0  0  0  0  0  0
   49.6455  102.8974   27.0303 H   0  0  0  0  0  0
   51.4718   98.8603   28.6305 H   0  0  0  0  0  0
   50.8433   96.8796   27.2581 H   0  0  0  0  0  0
   49.6431   99.2661   24.0913 H   0  0  0  0  0  0
   50.1822  101.3324   25.3392 H   0  0  0  0  0  0
   53.4896  105.4990   33.9146 H   0  0  0  0  0  0
   51.5523  105.9640   35.3686 H   0  0  0  0  0  0
  1  2  1  0  0  0
  2  3  2  0  0  0
  2 23  1  0  0  0
  3  4  1  0  0  0
  3 24  1  0  0  0
  4  5  2  0  0  0
  4 25  1  0  0  0
  5  6  1  0  0  0
  5 22  1  0  0  0
  6  7  1  0  0  0
  6 26  1  0  0  0
  6 27  1  0  0  0
  7  8  1  0  0  0
  7 28  1  0  0  0
  8  9  2  0  0  0
  8 10  1  0  0  0
 10 11  1  0  0  0
 10 29  1  0  0  0
 11 12  2  0  0  0
 11 15  1  0  0  0
 12 13  1  0  0  0
 13 14  2  0  0  0
 13 16  1  0  0  0
 14 15  1  0  0  0
 14 30  1  0  0  0
 16 17  2  0  0  0
 16 21  1  0  0  0
 17 18  1  0  0  0
 17 31  1  0  0  0
 18 19  2  0  0  0
 18 32  1  0  0  0
 19 20  1  0  0  0
 20 21  2  0  0  0
 20 33  1  0  0  0
 21 34  1  0  0  0
 22 23  2  0  0  0
 22 35  1  0  0  0
 23 36  1  0  0  0
M  END
> <s_m_entry_id>
28280

> <s_m_entry_name>
dock_pv.441

> <s_m_Source_Path>
/home/csk/Desktop/cluster/DUD-E-result/rock1

> <s_m_Source_File>
dock_pv.maegz

> <i_m_Source_File_Index>
441

> <chembl_id>
CHEMBL3218023

> <chembl_pref_name>
None

> <i_lp_mmshare_version>
53161

> <r_lp_tautomer_probability>
0.999000488399163

> <s_lp_Force_Field>
OPLS_2005

> <r_lp_Energy>
7.299495

> <b_lp_Chiralities_Consistent>
1

> <s_lp_Variant>
CHEMBL3231_lig436-1

> <s_i_glide_gridfile>
glide-grid_2etr

> <i_i_glide_lignum>
620

> <i_i_glide_rotatable_bonds>
6

> <r_i_docking_score>
-7.46542323714614

> <r_i_glide_ligand_efficiency>
-0.324583619006354

> <r_i_glide_ligand_efficiency_sa>
-0.923072635328128

> <r_i_glide_ligand_efficiency_ln>
-1.80520703145726

> <r_i_glide_gscore>
-7.46542323714614

> <r_i_glide_lipo>
-2.31424867058094

> <r_i_glide_hbond>
-0.414323871378891

> <r_i_glide_metal>
0

> <r_i_glide_rewards>
-2.71759600000558

> <r_i_glide_evdw>
-36.7470474243164

> <r_i_glide_ecoul>
-6.46714353561401

> <r_i_glide_erotb>
0.870893794050034

> <r_i_glide_esite>
-0.0827245876728427

> <r_i_glide_emodel>
-62.169786511124

> <r_i_glide_energy>
-43.2141909599304

> <r_i_glide_einternal>
4.21045732498169

> <i_i_glide_confnum>
8

> <i_i_glide_posenum>
279

> <r_i_glide_eff_state_penalty>
0

> <s_user_duplicate_titles>
CHEMBL3231_lig436

> <i_f3d_flags>
0

> <s_m_subgroup_title>
dock_pv

> <s_m_subgroupid>
dock_pv

> <b_m_subgroup_collapsed>
1

$$$$
CHEMBL3231_lig396
                    3D
 Schrodinger Suite 2021-1.
 60 63  0  0  1  0            999 V2000
   53.1367  103.1912   33.4883 N   0  0  0  0  0  0
   52.4949  102.9955   32.2988 C   0  0  0  0  0  0
   52.0339  103.9357   31.6508 O   0  0  0  0  0  0
   52.5083  101.7275   31.8175 N   0  0  0  0  0  0
   53.3328  102.1070   34.4917 C   0  0  0  0  0  0
   52.5032  102.2507   35.7889 C   0  0  0  0  0  0
   51.0706  102.3810   35.5196 N   0  0  0  0  0  0
   50.3782  101.1016   35.5718 C   0  0  0  0  0  0
   48.9028  101.4443   35.7587 C   0  0  0  0  0  0
   48.9027  102.8356   36.3967 C   0  0  0  0  0  0
   50.3810  103.2097   36.5005 C   0  0  0  0  0  0
   53.5592  104.5832   33.8107 C   0  0  0  0  0  0
   54.0725  104.9144   35.2069 C   0  0  0  0  0  0
   55.2392  104.3288   35.7062 C   0  0  0  0  0  0
   55.6523  104.5765   37.0261 C   0  0  0  0  0  0
   54.9152  105.4638   37.8115 C   0  0  0  0  0  0
   53.7785  106.0882   37.3037 C   0  0  0  0  0  0
   53.3577  105.8126   36.0040 C   0  0  0  0  0  0
   56.7734  104.0151   37.6064 O   0  0  0  0  0  0
   57.5356  103.0624   36.8670 C   0  0  0  0  0  0
   52.1057  101.2507   30.5517 C   0  0  0  0  0  0
   52.0524   99.8622   30.3957 C   0  0  0  0  0  0
   51.6412   99.3049   29.1857 C   0  0  0  0  0  0
   51.2660  100.1306   28.1211 C   0  0  0  0  0  0
   51.3530  101.5149   28.2671 C   0  0  0  0  0  0
   51.7783  102.0740   29.4633 C   0  0  0  0  0  0
   50.0430   98.0828   25.2708 N   0  0  0  0  0  0
   49.9456   99.3261   24.8009 N   0  0  0  0  0  0
   50.3628  100.2671   25.6955 C   0  0  0  0  0  0
   50.7551   99.5728   26.8343 C   0  0  0  0  0  0
   50.5334   98.2301   26.4792 C   0  0  0  0  0  0
   52.8952  101.0221   32.4250 H   0  0  0  0  0  0
   53.0916  101.1308   34.0763 H   0  0  0  0  0  0
   54.3900  102.0404   34.7412 H   0  0  0  0  0  0
   52.7016  101.4027   36.4466 H   0  0  0  0  0  0
   52.8518  103.1030   36.3667 H   0  0  0  0  0  0
   50.5652  100.5589   34.6429 H   0  0  0  0  0  0
   50.7426  100.4562   36.3745 H   0  0  0  0  0  0
   48.3656  101.4398   34.8110 H   0  0  0  0  0  0
   48.4432  100.7063   36.4108 H   0  0  0  0  0  0
   48.4425  102.8278   37.3862 H   0  0  0  0  0  0
   48.3574  103.5500   35.7789 H   0  0  0  0  0  0
   50.7665  103.1027   37.5151 H   0  0  0  0  0  0
   50.5497  104.2556   36.2400 H   0  0  0  0  0  0
   52.7237  105.2545   33.6102 H   0  0  0  0  0  0
   54.3262  104.8825   33.0954 H   0  0  0  0  0  0
   55.7977  103.6619   35.0671 H   0  0  0  0  0  0
   55.2304  105.6703   38.8237 H   0  0  0  0  0  0
   53.2172  106.7768   37.9183 H   0  0  0  0  0  0
   52.4659  106.2873   35.6230 H   0  0  0  0  0  0
   58.3656  102.7075   37.4774 H   0  0  0  0  0  0
   56.9343  102.1937   36.5935 H   0  0  0  0  0  0
   57.9596  103.5025   35.9640 H   0  0  0  0  0  0
   52.3167   99.2065   31.2131 H   0  0  0  0  0  0
   51.5933   98.2296   29.0939 H   0  0  0  0  0  0
   51.0857  102.1749   27.4580 H   0  0  0  0  0  0
   51.8440  103.1483   29.5005 H   0  0  0  0  0  0
   49.5741   99.5274   23.8784 H   0  0  0  0  0  0
   50.3268  101.3181   25.4514 H   0  0  0  0  0  0
   50.7181   97.3711   27.1063 H   0  0  0  0  0  0
  1  2  1  0  0  0
  1  5  1  0  0  0
  1 12  1  0  0  0
  2  3  2  0  0  0
  2  4  1  0  0  0
  4 21  1  0  0  0
  4 32  1  0  0  0
  5  6  1  0  0  0
  5 33  1  0  0  0
  5 34  1  0  0  0
  6  7  1  0  0  0
  6 35  1  0  0  0
  6 36  1  0  0  0
  7  8  1  0  0  0
  7 11  1  0  0  0
  8  9  1  0  0  0
  8 37  1  0  0  0
  8 38  1  0  0  0
  9 10  1  0  0  0
  9 39  1  0  0  0
  9 40  1  0  0  0
 10 11  1  0  0  0
 10 41  1  0  0  0
 10 42  1  0  0  0
 11 43  1  0  0  0
 11 44  1  0  0  0
 12 13  1  0  0  0
 12 45  1  0  0  0
 12 46  1  0  0  0
 13 14  1  0  0  0
 13 18  2  0  0  0
 14 15  2  0  0  0
 14 47  1  0  0  0
 15 16  1  0  0  0
 15 19  1  0  0  0
 16 17  2  0  0  0
 16 48  1  0  0  0
 17 18  1  0  0  0
 17 49  1  0  0  0
 18 50  1  0  0  0
 19 20  1  0  0  0
 20 51  1  0  0  0
 20 52  1  0  0  0
 20 53  1  0  0  0
 21 22  1  0  0  0
 21 26  2  0  0  0
 22 23  2  0  0  0
 22 54  1  0  0  0
 23 24  1  0  0  0
 23 55  1  0  0  0
 24 25  2  0  0  0
 24 30  1  0  0  0
 25 26  1  0  0  0
 25 56  1  0  0  0
 26 57  1  0  0  0
 27 31  2  0  0  0
 27 28  1  0  0  0
 28 58  1  0  0  0
 28 29  1  0  0  0
 29 59  1  0  0  0
 29 30  2  0  0  0
 30 31  1  0  0  0
 31 60  1  0  0  0
M  END
> <s_m_entry_id>
28281

> <s_m_entry_name>
dock_pv.442

> <s_m_Source_Path>
/home/csk/Desktop/cluster/DUD-E-result/rock1

> <s_m_Source_File>
dock_pv.maegz

> <i_m_Source_File_Index>
442

> <chembl_id>
CHEMBL2332069

> <chembl_pref_name>
None

> <i_lp_mmshare_version>
53161

> <r_lp_tautomer_probability>
0.5

> <s_lp_Force_Field>
OPLS_2005

> <r_lp_Energy>
54.592216

> <b_lp_Chiralities_Consistent>
1

> <s_lp_Variant>
CHEMBL3231_lig396-1

> <s_i_glide_gridfile>
glide-grid_2etr

> <i_i_glide_lignum>
555

> <i_i_glide_rotatable_bonds>
10

> <r_i_docking_score>
-7.46239647704187

> <r_i_glide_ligand_efficiency>
-0.240722467001351

> <r_i_glide_ligand_efficiency_sa>
-0.756200899568374

> <r_i_glide_ligand_efficiency_ln>
-1.68299910055973

> <r_i_glide_gscore>
-7.46239647704187

> <r_i_glide_lipo>
-2.88548982530602

> <r_i_glide_hbond>
-0.636412554679107

> <r_i_glide_metal>
0

> <r_i_glide_rewards>
-1.41321767376907

> <r_i_glide_evdw>
-42.8960723876953

> <r_i_glide_ecoul>
-6.30149507522583

> <r_i_glide_erotb>
0.629506715732622

> <r_i_glide_esite>
-0.0667552583516613

> <r_i_glide_emodel>
-65.1977285867238

> <r_i_glide_energy>
-49.1975674629211

> <r_i_glide_einternal>
13.1861238479614

> <i_i_glide_confnum>
9

> <i_i_glide_posenum>
35

> <r_i_glide_eff_state_penalty>
0

> <s_user_duplicate_titles>
CHEMBL3231_lig396

> <i_f3d_flags>
0

> <s_m_subgroup_title>
dock_pv

> <s_m_subgroupid>
dock_pv

> <b_m_subgroup_collapsed>
1

$$$$
CHEMBL3231_lig880
                    3D
 Schrodinger Suite 2021-1.
 42 45  0  0  1  0            999 V2000
   51.5471  103.1518   30.8586 N   0  0  0  0  0  0
   52.2095  103.0947   31.9718 C   0  0  0  0  0  0
   52.8719  101.9442   32.3471 N   0  0  0  0  0  0
   52.9215  100.7441   31.6916 C   0  0  0  0  0  0
   51.5579  102.0359   30.0659 C   0  0  0  0  0  0
   52.2076  100.8525   30.4261 C   0  0  0  0  0  0
   52.0430   99.6143   29.2353 S   0  0  0  0  0  0
   51.1130  100.6722   28.2062 C   0  0  0  0  0  0
   50.9407  101.9219   28.8118 C   0  0  0  0  0  0
   50.6337  100.2484   26.8887 C   0  0  0  0  0  0
   50.2540  101.1006   25.8677 C   0  0  0  0  0  0
   49.8998  100.3025   24.8158 N   0  0  0  0  0  0
   50.0232   99.0040   25.0948 N   0  0  0  0  0  0
   50.4430   98.9572   26.3420 C   0  0  0  0  0  0
   53.4943   99.7723   32.1756 O   0  0  0  0  0  0
   50.6571   97.6089   26.9832 C   0  0  0  0  0  0
   52.2854  104.3016   32.8954 C   0  0  0  0  0  0
   51.8281  104.0529   34.3556 C   0  0  0  0  0  0
   50.3820  103.8580   34.5300 N   0  0  0  0  0  0
   49.8996  102.5331   34.1555 C   0  0  0  0  0  0
   48.5496  102.3553   34.8555 C   0  0  0  0  0  0
   48.5928  103.3562   36.0127 C   0  0  0  0  0  0
   49.9974  103.9514   35.9326 C   0  0  0  0  0  0
   53.3906  101.9569   33.2124 H   0  0  0  0  0  0
   50.3944  102.7298   28.3539 H   0  0  0  0  0  0
   50.2059  102.1754   25.8109 H   0  0  0  0  0  0
   49.5663  100.6194   23.9120 H   0  0  0  0  0  0
   51.7011   97.5045   27.2726 H   0  0  0  0  0  0
   50.0591   97.5074   27.8891 H   0  0  0  0  0  0
   50.4108   96.7688   26.3316 H   0  0  0  0  0  0
   51.6757  105.1028   32.4912 H   0  0  0  0  0  0
   53.3002  104.7051   32.8927 H   0  0  0  0  0  0
   52.1211  104.9351   34.9302 H   0  0  0  0  0  0
   52.3881  103.2287   34.8044 H   0  0  0  0  0  0
   50.6026  101.7391   34.4160 H   0  0  0  0  0  0
   49.7891  102.4902   33.0736 H   0  0  0  0  0  0
   48.4318  101.3325   35.2178 H   0  0  0  0  0  0
   47.7212  102.5676   34.1797 H   0  0  0  0  0  0
   47.8337  104.1320   35.9016 H   0  0  0  0  0  0
   48.4333  102.8739   36.9778 H   0  0  0  0  0  0
   50.0207  104.9972   36.2370 H   0  0  0  0  0  0
   50.6999  103.4397   36.5955 H   0  0  0  0  0  0
  1  5  1  0  0  0
  1  2  2  0  0  0
  2  3  1  0  0  0
  2 17  1  0  0  0
  3  4  1  0  0  0
  3 24  1  0  0  0
  4  6  1  0  0  0
  4 15  2  0  0  0
  5  6  2  0  0  0
  5  9  1  0  0  0
  6  7  1  0  0  0
  7  8  1  0  0  0
  8  9  2  0  0  0
  8 10  1  0  0  0
  9 25  1  0  0  0
 10 11  2  0  0  0
 10 14  1  0  0  0
 11 12  1  0  0  0
 11 26  1  0  0  0
 12 13  1  0  0  0
 12 27  1  0  0  0
 13 14  2  0  0  0
 14 16  1  0  0  0
 16 28  1  0  0  0
 16 29  1  0  0  0
 16 30  1  0  0  0
 17 18  1  0  0  0
 17 31  1  0  0  0
 17 32  1  0  0  0
 18 19  1  0  0  0
 18 33  1  0  0  0
 18 34  1  0  0  0
 19 20  1  0  0  0
 19 23  1  0  0  0
 20 21  1  0  0  0
 20 35  1  0  0  0
 20 36  1  0  0  0
 21 22  1  0  0  0
 21 37  1  0  0  0
 21 38  1  0  0  0
 22 23  1  0  0  0
 22 39  1  0  0  0
 22 40  1  0  0  0
 23 41  1  0  0  0
 23 42  1  0  0  0
M  END
> <s_m_entry_id>
28282

> <s_m_entry_name>
dock_pv.443

> <s_m_Source_Path>
/home/csk/Desktop/cluster/DUD-E-result/rock1

> <s_m_Source_File>
dock_pv.maegz

> <i_m_Source_File_Index>
443

> <chembl_id>
CHEMBL4073971

> <chembl_pref_name>
None

> <i_lp_mmshare_version>
53161

> <r_lp_tautomer_probability>
0.5

> <s_lp_Force_Field>
OPLS_2005

> <r_lp_Energy>
38.263871

> <b_lp_Chiralities_Consistent>
1

> <s_lp_Variant>
CHEMBL3231_lig880-1

> <s_i_glide_gridfile>
glide-grid_2etr

> <i_i_glide_lignum>
1248

> <i_i_glide_rotatable_bonds>
4

> <r_i_docking_score>
-7.45845795223026

> <r_i_glide_ligand_efficiency>
-0.324280780531751

> <r_i_glide_ligand_efficiency_sa>
-0.922211402990875

> <r_i_glide_ligand_efficiency_ln>
-1.80352276240689

> <r_i_glide_gscore>
-7.45845795223026

> <r_i_glide_lipo>
-2.72183353605398

> <r_i_glide_hbond>
-0.2395624235625

> <r_i_glide_metal>
0

> <r_i_glide_rewards>
-2.43303890909091

> <r_i_glide_evdw>
-40.6067543029785

> <r_i_glide_ecoul>
-4.42072916030884

> <r_i_glide_erotb>
0.692774045616701

> <r_i_glide_esite>
-0.0633500399443291

> <r_i_glide_emodel>
-64.1408434206072

> <r_i_glide_energy>
-45.0274834632874

> <r_i_glide_einternal>
4.08264493942261

> <i_i_glide_confnum>
32

> <i_i_glide_posenum>
184

> <r_i_glide_eff_state_penalty>
0

> <s_user_duplicate_titles>
CHEMBL3231_lig880

> <i_f3d_flags>
0

> <s_m_subgroup_title>
dock_pv

> <s_m_subgroupid>
dock_pv

> <b_m_subgroup_collapsed>
1

$$$$
CHEMBL3231_lig199
                    3D
 Schrodinger Suite 2021-1.
 29 31  0  0  1  0            999 V2000
   53.6422  102.6346   31.3958 C   0  0  0  0  0  0
   53.9339  102.3535   32.7268 C   0  0  0  0  0  0
   53.5282  101.1619   33.3168 C   0  0  0  0  0  0
   52.8212  100.2070   32.5901 C   0  0  0  0  0  0
   52.9206  101.6789   30.6649 C   0  0  0  0  0  0
   52.5059  100.4420   31.2388 C   0  0  0  0  0  0
   51.7968   99.6091   30.3102 C   0  0  0  0  0  0
   51.7028  100.2001   29.0511 C   0  0  0  0  0  0
   52.4129  101.8062   29.0007 S   0  0  0  0  0  0
   53.9001  100.8607   34.9741 Cl  0  0  0  0  0  0
   51.2431   98.2567   30.7284 C   0  0  0  0  0  0
   51.1123   99.6524   27.7862 C   0  0  0  0  0  0
   50.4203  100.4692   26.8842 C   0  0  0  0  0  0
   49.9155   99.9057   25.7137 C   0  0  0  0  0  0
   50.0430   98.5973   25.3962 N   0  0  0  0  0  0
   50.7001   97.8096   26.2778 C   0  0  0  0  0  0
   51.2443   98.2964   27.4655 C   0  0  0  0  0  0
   49.2429  100.7035   24.8109 N   0  0  0  0  0  0
   53.9706  103.5624   30.9444 H   0  0  0  0  0  0
   54.4910  103.0727   33.3097 H   0  0  0  0  0  0
   52.5298   99.2839   33.0662 H   0  0  0  0  0  0
   52.0339   97.5411   30.9578 H   0  0  0  0  0  0
   50.6222   98.3476   31.6142 H   0  0  0  0  0  0
   50.5947   97.7956   29.9862 H   0  0  0  0  0  0
   50.2815  101.5213   27.0831 H   0  0  0  0  0  0
   50.8016   96.7670   26.0121 H   0  0  0  0  0  0
   51.7786   97.6225   28.1135 H   0  0  0  0  0  0
   49.1519  101.6918   24.9906 H   0  0  0  0  0  0
   48.9520  100.3050   23.9195 H   0  0  0  0  0  0
  1  5  2  0  0  0
  1  2  1  0  0  0
  1 19  1  0  0  0
  2  3  2  0  0  0
  2 20  1  0  0  0
  3  4  1  0  0  0
  3 10  1  0  0  0
  4  6  2  0  0  0
  4 21  1  0  0  0
  5  9  1  0  0  0
  5  6  1  0  0  0
  6  7  1  0  0  0
  7 11  1  0  0  0
  7  8  2  0  0  0
  8  9  1  0  0  0
  8 12  1  0  0  0
 11 22  1  0  0  0
 11 23  1  0  0  0
 11 24  1  0  0  0
 12 13  2  0  0  0
 12 17  1  0  0  0
 13 14  1  0  0  0
 13 25  1  0  0  0
 14 15  2  0  0  0
 14 18  1  0  0  0
 15 16  1  0  0  0
 16 17  2  0  0  0
 16 26  1  0  0  0
 17 27  1  0  0  0
 18 28  1  0  0  0
 18 29  1  0  0  0
M  END
> <s_m_entry_id>
28283

> <s_m_entry_name>
dock_pv.444

> <s_m_Source_Path>
/home/csk/Desktop/cluster/DUD-E-result/rock1

> <s_m_Source_File>
dock_pv.maegz

> <i_m_Source_File_Index>
444

> <chembl_id>
CHEMBL1083141

> <chembl_pref_name>
None

> <i_lp_mmshare_version>
53161

> <r_lp_tautomer_probability>
0.999999772200052

> <s_lp_Force_Field>
OPLS_2005

> <r_lp_Energy>
9.264693

> <b_lp_Chiralities_Consistent>
1

> <s_lp_Variant>
CHEMBL3231_lig199-1

> <s_i_glide_gridfile>
glide-grid_2etr

> <i_i_glide_lignum>
331

> <i_i_glide_rotatable_bonds>
1

> <r_i_docking_score>
-7.45757801437426

> <r_i_glide_ligand_efficiency>
-0.414309889687459

> <r_i_glide_ligand_efficiency_sa>
-1.08579907688792

> <r_i_glide_ligand_efficiency_ln>
-1.91693197423559

> <r_i_glide_gscore>
-7.45757801437426

> <r_i_glide_lipo>
-2.28177727628912

> <r_i_glide_hbond>
-0.32

> <r_i_glide_metal>
0

> <r_i_glide_rewards>
-2.76843997238396

> <r_i_glide_evdw>
-32.7384910583496

> <r_i_glide_ecoul>
-4.58905267715454

> <r_i_glide_erotb>
0.237921688789489

> <r_i_glide_esite>
0

> <r_i_glide_emodel>
-53.8495357038785

> <r_i_glide_energy>
-37.3275437355042

> <r_i_glide_einternal>
0.300043791532516

> <i_i_glide_confnum>
2

> <i_i_glide_posenum>
127

> <r_i_glide_eff_state_penalty>
0

> <s_user_duplicate_titles>
CHEMBL3231_lig199

> <i_f3d_flags>
0

> <s_m_subgroup_title>
dock_pv

> <s_m_subgroupid>
dock_pv

> <b_m_subgroup_collapsed>
1

$$$$
CHEMBL3231_lig931
                    3D
 Schrodinger Suite 2021-1.
 39 42  0  0  1  0            999 V2000
   53.2659  100.1609   31.0211 N   0  0  0  0  0  0
   53.5150  100.9111   32.0522 C   0  0  0  0  0  0
   52.9469  102.1737   32.1314 N   0  0  0  0  0  0
   52.0970  102.7864   31.2549 C   0  0  0  0  0  0
   52.4341  100.6486   30.0523 C   0  0  0  0  0  0
   51.8520  101.9140   30.1208 C   0  0  0  0  0  0
   50.8405  102.2574   28.7583 S   0  0  0  0  0  0
   51.1758  100.6861   28.0734 C   0  0  0  0  0  0
   52.0454   99.9652   28.8964 C   0  0  0  0  0  0
   50.5816  100.2805   26.8031 C   0  0  0  0  0  0
   50.1210  101.1033   25.7890 C   0  0  0  0  0  0
   49.6546  100.2738   24.8108 N   0  0  0  0  0  0
   49.8003   98.9874   25.1158 N   0  0  0  0  0  0
   50.3320   98.9781   26.3182 C   0  0  0  0  0  0
   51.6431  103.9022   31.4780 O   0  0  0  0  0  0
   50.5946   97.6554   26.9850 C   0  0  0  0  0  0
   54.4471  100.4256   33.2159 C   0  0  1  0  0  0
   53.6516   99.6019   34.1358 N   0  0  1  0  0  0
   53.6835   98.2429   33.6082 C   0  0  0  0  0  0
   55.1126   98.0571   33.1084 C   0  0  0  0  0  0
   55.5895   99.4729   32.7782 C   0  0  0  0  0  0
   55.0283  101.6232   34.0170 C   0  0  0  0  0  0
   53.1709  102.7317   32.9387 H   0  0  0  0  0  0
   52.4003   98.9705   28.6765 H   0  0  0  0  0  0
   50.0800  102.1778   25.6822 H   0  0  0  0  0  0
   49.2549  100.5642   23.9246 H   0  0  0  0  0  0
   50.1321   97.6062   27.9716 H   0  0  0  0  0  0
   50.2222   96.8052   26.4116 H   0  0  0  0  0  0
   51.6625   97.5058   27.1226 H   0  0  0  0  0  0
   54.1606   99.5739   35.0087 H   0  0  0  0  0  0
   52.9547   98.0988   32.8061 H   0  0  0  0  0  0
   53.4449   97.5358   34.4069 H   0  0  0  0  0  0
   55.1383   97.4125   32.2279 H   0  0  0  0  0  0
   55.7369   97.5875   33.8691 H   0  0  0  0  0  0
   55.8388   99.5754   31.7211 H   0  0  0  0  0  0
   56.5204   99.6650   33.3136 H   0  0  0  0  0  0
   55.6424  102.2666   33.3827 H   0  0  0  0  0  0
   54.2550  102.2412   34.4765 H   0  0  0  0  0  0
   55.6754  101.2852   34.8280 H   0  0  0  0  0  0
  1  5  1  0  0  0
  1  2  2  0  0  0
  2  3  1  0  0  0
  2 17  1  0  0  0
  3  4  1  0  0  0
  3 23  1  0  0  0
  4  6  1  0  0  0
  4 15  2  0  0  0
  5  6  2  0  0  0
  5  9  1  0  0  0
  6  7  1  0  0  0
  7  8  1  0  0  0
  8  9  2  0  0  0
  8 10  1  0  0  0
  9 24  1  0  0  0
 10 11  2  0  0  0
 10 14  1  0  0  0
 11 12  1  0  0  0
 11 25  1  0  0  0
 12 13  1  0  0  0
 12 26  1  0  0  0
 13 14  2  0  0  0
 14 16  1  0  0  0
 16 27  1  0  0  0
 16 28  1  0  0  0
 16 29  1  0  0  0
 17 18  1  0  0  0
 17 21  1  0  0  0
 17 22  1  0  0  0
 18 19  1  0  0  0
 18 30  1  0  0  0
 19 20  1  0  0  0
 19 31  1  0  0  0
 19 32  1  0  0  0
 20 21  1  0  0  0
 20 33  1  0  0  0
 20 34  1  0  0  0
 21 35  1  0  0  0
 21 36  1  0  0  0
 22 37  1  0  0  0
 22 38  1  0  0  0
 22 39  1  0  0  0
M  END
> <s_m_entry_id>
28284

> <s_m_entry_name>
dock_pv.445

> <s_m_Source_Path>
/home/csk/Desktop/cluster/DUD-E-result/rock1

> <s_m_Source_File>
dock_pv.maegz

> <i_m_Source_File_Index>
445

> <chembl_id>
CHEMBL4542797

> <chembl_pref_name>
None

> <i_lp_mmshare_version>
53161

> <r_lp_tautomer_probability>
0.5

> <s_lp_Force_Field>
OPLS_2005

> <r_lp_Energy>
37.943686

> <b_lp_Chiralities_Consistent>
1

> <s_lp_Variant>
CHEMBL3231_lig931-1

> <s_i_glide_gridfile>
glide-grid_2etr

> <i_i_glide_lignum>
1337

> <i_i_glide_rotatable_bonds>
2

> <r_i_docking_score>
-7.45647242751103

> <r_i_glide_ligand_efficiency>
-0.338930564886865

> <r_i_glide_ligand_efficiency_sa>
-0.949696772195726

> <r_i_glide_ligand_efficiency_ln>
-1.82263384272389

> <r_i_glide_gscore>
-7.45647242751103

> <r_i_glide_lipo>
-1.95325596035146

> <r_i_glide_hbond>
-0.45350009516915

> <r_i_glide_metal>
0

> <r_i_glide_rewards>
-2.49534134848485

> <r_i_glide_evdw>
-36.7978973388672

> <r_i_glide_ecoul>
-6.98683023452759

> <r_i_glide_erotb>
0.374008535043389

> <r_i_glide_esite>
-0.0404641564264662

> <r_i_glide_emodel>
-62.5640033860957

> <r_i_glide_energy>
-43.7847275733948

> <r_i_glide_einternal>
3.7747323513031

> <i_i_glide_confnum>
29

> <i_i_glide_posenum>
49

> <r_i_glide_eff_state_penalty>
0

> <s_user_duplicate_titles>
CHEMBL3231_lig931

> <i_f3d_flags>
0

> <s_m_subgroup_title>
dock_pv

> <s_m_subgroupid>
dock_pv

> <b_m_subgroup_collapsed>
1

$$$$
CHEMBL3231_lig1986
                    3D
 Schrodinger Suite 2021-1.
 50 53  0  0  1  0            999 V2000
   54.8649   97.7496   33.6037 F   0  0  0  0  0  0
   54.8431  106.3722   34.0110 O   0  0  0  0  0  0
   51.0166   99.8309   27.1644 N   0  0  0  0  0  0
   51.2430   97.9030   28.3477 N   0  0  0  0  0  0
   52.4150  101.6709   30.0309 N   0  0  0  0  0  0
   50.0430   98.5651   24.9048 N   0  0  0  0  0  0
   51.6302  103.9030   30.3378 N   0  0  0  0  0  0
   53.2086  102.9155   31.8278 N   0  0  0  0  0  0
   51.4701  100.1490   28.4289 C   0  0  0  0  0  0
   51.7713   98.9043   29.0214 C   0  0  0  0  0  0
   50.8524   98.4389   27.1738 C   0  0  0  0  0  0
   51.5800  101.5291   28.9709 C   0  0  0  0  0  0
   52.5673   98.6163   30.2616 C   0  0  0  0  0  0
   50.7261  100.5703   26.0393 C   0  0  0  0  0  0
   50.3469   97.8411   26.0115 C   0  0  0  0  0  0
   50.7599  102.5768   28.5388 C   0  0  0  0  0  0
   52.4020  102.8483   30.6874 C   0  0  0  0  0  0
   52.0608   97.7988   31.2737 C   0  0  0  0  0  0
   53.8712   99.1163   30.3821 C   0  0  0  0  0  0
   50.2331   99.9035   24.9226 C   0  0  0  0  0  0
   50.8430  103.7713   29.2402 C   0  0  0  0  0  0
   52.8428   97.5031   32.3912 C   0  0  0  0  0  0
   54.6439   98.8347   31.5037 C   0  0  0  0  0  0
   54.1246   98.0273   32.5079 C   0  0  0  0  0  0
   53.3827  104.1473   32.5994 C   0  0  0  0  0  0
   54.2034  103.9705   33.9104 C   0  0  0  0  0  0
   54.2339  105.3046   34.7097 C   0  0  0  0  0  0
   53.5444  102.8970   34.8139 C   0  0  0  0  0  0
   55.6430  103.5142   33.5720 C   0  0  0  0  0  0
   54.2122  106.7030   33.3513 H   0  0  0  0  0  0
   53.8835  102.1749   31.9567 H   0  0  0  0  0  0
   50.9274  101.6284   26.0488 H   0  0  0  0  0  0
   50.2046   96.7718   25.9645 H   0  0  0  0  0  0
   50.0432  102.4762   27.7414 H   0  0  0  0  0  0
   51.0702   97.3754   31.1900 H   0  0  0  0  0  0
   54.2956   99.7369   29.6110 H   0  0  0  0  0  0
   49.9918  100.4346   24.0113 H   0  0  0  0  0  0
   50.2435  104.6227   28.9537 H   0  0  0  0  0  0
   52.4562   96.8624   33.1692 H   0  0  0  0  0  0
   55.6468   99.2280   31.5894 H   0  0  0  0  0  0
   52.4030  104.5722   32.8218 H   0  0  0  0  0  0
   53.8652  104.8817   31.9515 H   0  0  0  0  0  0
   54.7771  105.1720   35.6467 H   0  0  0  0  0  0
   53.2232  105.6137   34.9813 H   0  0  0  0  0  0
   53.5372  101.9137   34.3418 H   0  0  0  0  0  0
   54.0749  102.7881   35.7611 H   0  0  0  0  0  0
   52.5094  103.1507   35.0467 H   0  0  0  0  0  0
   55.6431  102.5425   33.0769 H   0  0  0  0  0  0
   56.1364  104.2157   32.8982 H   0  0  0  0  0  0
   56.2627  103.4249   34.4651 H   0  0  0  0  0  0
  1 24  1  0  0  0
  2 27  1  0  0  0
  2 30  1  0  0  0
  3  9  1  0  0  0
  3 11  1  0  0  0
  3 14  1  0  0  0
  4 10  1  0  0  0
  4 11  2  0  0  0
  5 12  2  0  0  0
  5 17  1  0  0  0
  6 15  2  0  0  0
  6 20  1  0  0  0
  7 17  2  0  0  0
  7 21  1  0  0  0
  8 17  1  0  0  0
  8 25  1  0  0  0
  8 31  1  0  0  0
  9 10  2  0  0  0
  9 12  1  0  0  0
 10 13  1  0  0  0
 11 15  1  0  0  0
 12 16  1  0  0  0
 13 18  2  0  0  0
 13 19  1  0  0  0
 14 20  2  0  0  0
 14 32  1  0  0  0
 15 33  1  0  0  0
 16 21  2  0  0  0
 16 34  1  0  0  0
 18 22  1  0  0  0
 18 35  1  0  0  0
 19 23  2  0  0  0
 19 36  1  0  0  0
 20 37  1  0  0  0
 21 38  1  0  0  0
 22 24  2  0  0  0
 22 39  1  0  0  0
 23 24  1  0  0  0
 23 40  1  0  0  0
 25 26  1  0  0  0
 25 41  1  0  0  0
 25 42  1  0  0  0
 26 27  1  0  0  0
 26 28  1  0  0  0
 26 29  1  0  0  0
 27 43  1  0  0  0
 27 44  1  0  0  0
 28 45  1  0  0  0
 28 46  1  0  0  0
 28 47  1  0  0  0
 29 48  1  0  0  0
 29 49  1  0  0  0
 29 50  1  0  0  0
M  END
> <s_m_entry_id>
28286

> <s_m_entry_name>
dock_pv.447

> <s_m_Source_Path>
/home/csk/Desktop/cluster/DUD-E-result/rock1

> <s_m_Source_File>
dock_pv.maegz

> <i_m_Source_File_Index>
447

> <chembl_id>
CHEMBL1991395

> <chembl_pref_name>
None

> <i_lp_mmshare_version>
53161

> <r_lp_tautomer_probability>
0.999999987636

> <s_lp_Force_Field>
OPLS_2005

> <r_lp_Energy>
19.351846

> <b_lp_Chiralities_Consistent>
1

> <s_lp_Variant>
CHEMBL3231_lig1986-1

> <s_i_glide_gridfile>
glide-grid_2etr

> <i_i_glide_lignum>
2891

> <i_i_glide_rotatable_bonds>
7

> <r_i_docking_score>
-7.45149532912912

> <r_i_glide_ligand_efficiency>
-0.256948114797556

> <r_i_glide_ligand_efficiency_sa>
-0.789426015534713

> <r_i_glide_ligand_efficiency_ln>
-1.70620347675239

> <r_i_glide_gscore>
-7.45149532912912

> <r_i_glide_lipo>
-2.04844358033416

> <r_i_glide_hbond>
-0.513245666997925

> <r_i_glide_metal>
0

> <r_i_glide_rewards>
-2.47026853480356

> <r_i_glide_evdw>
-42.9351425170898

> <r_i_glide_ecoul>
-6.26014184951782

> <r_i_glide_erotb>
0.760697061671895

> <r_i_glide_esite>
-0.0944562053832055

> <r_i_glide_emodel>
-66.9931345147073

> <r_i_glide_energy>
-49.1952843666077

> <r_i_glide_einternal>
8.18974590301514

> <i_i_glide_confnum>
126

> <i_i_glide_posenum>
118

> <r_i_glide_eff_state_penalty>
0

> <s_user_duplicate_titles>
CHEMBL3231_lig1986

> <i_f3d_flags>
0

> <s_m_subgroup_title>
dock_pv

> <s_m_subgroupid>
dock_pv

> <b_m_subgroup_collapsed>
1

$$$$
CHEMBL3231_lig1476
                    3D
 Schrodinger Suite 2021-1.
 36 40  0  0  1  0            999 V2000
   54.5609  101.7882   33.7229 S   0  0  0  0  0  0
   51.3683  103.8987   30.4110 O   0  0  0  0  0  0
   52.0711  101.7278   30.0745 N   0  0  0  0  0  0
   52.4454   99.6226   29.5481 N   0  0  0  0  0  0
   52.9324  102.9627   31.8467 N   0  0  0  0  0  0
   51.3719  101.5117   28.9590 N   0  0  0  0  0  0
   50.0421   98.2980   25.2108 N   0  0  0  0  0  0
   53.5548  100.5937   31.6238 C   0  0  0  0  0  0
   52.7263  100.5666   30.4091 C   0  0  0  0  0  0
   53.6144  101.8286   32.2816 C   0  0  0  0  0  0
   54.3086   99.6069   32.2837 C   0  0  0  0  0  0
   54.8885  100.0991   33.4672 C   0  0  0  0  0  0
   52.0896  102.9738   30.7823 C   0  0  0  0  0  0
   51.6413  100.2475   28.6904 C   0  0  0  0  0  0
   54.4367   98.1458   31.8611 C   0  0  0  0  0  0
   51.0703   99.5725   27.4857 C   0  0  0  0  0  0
   55.6578   99.2627   34.4818 C   0  0  0  0  0  0
   54.8139   97.2722   33.0809 C   0  0  0  0  0  0
   55.9839   97.8759   33.8806 C   0  0  0  0  0  0
   50.9575   98.1782   27.4369 C   0  0  0  0  0  0
   50.6403  100.3190   26.3756 C   0  0  0  0  0  0
   50.4440   97.5814   26.2876 C   0  0  0  0  0  0
   50.1328   99.6487   25.2653 C   0  0  0  0  0  0
   53.0124  103.8390   32.3430 H   0  0  0  0  0  0
   55.2129   98.0580   31.0975 H   0  0  0  0  0  0
   53.5200   97.7697   31.4062 H   0  0  0  0  0  0
   55.0542   99.1222   35.3816 H   0  0  0  0  0  0
   56.5839   99.7595   34.7858 H   0  0  0  0  0  0
   53.9465   97.1489   33.7356 H   0  0  0  0  0  0
   55.0810   96.2682   32.7421 H   0  0  0  0  0  0
   56.2915   97.1912   34.6743 H   0  0  0  0  0  0
   56.8496   97.9696   33.2221 H   0  0  0  0  0  0
   51.2648   97.5645   28.2727 H   0  0  0  0  0  0
   50.7066  101.3972   26.3682 H   0  0  0  0  0  0
   50.3590   96.5060   26.2188 H   0  0  0  0  0  0
   49.7937  100.1906   24.3923 H   0  0  0  0  0  0
  1 10  1  0  0  0
  1 12  1  0  0  0
  2 13  2  0  0  0
  3  6  1  0  0  0
  3  9  1  0  0  0
  3 13  1  0  0  0
  4  9  2  0  0  0
  4 14  1  0  0  0
  5 10  1  0  0  0
  5 13  1  0  0  0
  5 24  1  0  0  0
  6 14  2  0  0  0
  7 22  2  0  0  0
  7 23  1  0  0  0
  8  9  1  0  0  0
  8 10  2  0  0  0
  8 11  1  0  0  0
 11 12  2  0  0  0
 11 15  1  0  0  0
 12 17  1  0  0  0
 14 16  1  0  0  0
 15 18  1  0  0  0
 15 25  1  0  0  0
 15 26  1  0  0  0
 16 20  2  0  0  0
 16 21  1  0  0  0
 17 19  1  0  0  0
 17 27  1  0  0  0
 17 28  1  0  0  0
 18 19  1  0  0  0
 18 29  1  0  0  0
 18 30  1  0  0  0
 19 31  1  0  0  0
 19 32  1  0  0  0
 20 22  1  0  0  0
 20 33  1  0  0  0
 21 23  2  0  0  0
 21 34  1  0  0  0
 22 35  1  0  0  0
 23 36  1  0  0  0
M  END
> <s_m_entry_id>
28287

> <s_m_entry_name>
dock_pv.448

> <s_m_Source_Path>
/home/csk/Desktop/cluster/DUD-E-result/rock1

> <s_m_Source_File>
dock_pv.maegz

> <i_m_Source_File_Index>
448

> <chembl_id>
CHEMBL1966808

> <chembl_pref_name>
None

> <i_lp_mmshare_version>
53161

> <r_lp_tautomer_probability>
1

> <s_lp_Force_Field>
OPLS_2005

> <r_lp_Energy>
26.549533

> <b_lp_Chiralities_Consistent>
1

> <s_lp_Variant>
CHEMBL3231_lig1476-1

> <s_i_glide_gridfile>
glide-grid_2etr

> <i_i_glide_lignum>
2076

> <i_i_glide_rotatable_bonds>
1

> <r_i_docking_score>
-7.45117018408071

> <r_i_glide_ligand_efficiency>
-0.323963921046987

> <r_i_glide_ligand_efficiency_sa>
-0.921310296765846

> <r_i_glide_ligand_efficiency_ln>
-1.8017605139865

> <r_i_glide_gscore>
-7.45117018408071

> <r_i_glide_lipo>
-1.58852854683933

> <r_i_glide_hbond>
-0.398304699963421

> <r_i_glide_metal>
0

> <r_i_glide_rewards>
-2.77231747529689

> <r_i_glide_evdw>
-37.4092445373535

> <r_i_glide_ecoul>
-6.1020393371582

> <r_i_glide_erotb>
0.178952764798918

> <r_i_glide_esite>
-0.085204099338581

> <r_i_glide_emodel>
-63.6715223800345

> <r_i_glide_energy>
-43.5112838745117

> <r_i_glide_einternal>
0.610688388347626

> <i_i_glide_confnum>
2

> <i_i_glide_posenum>
23

> <r_i_glide_eff_state_penalty>
0

> <s_user_duplicate_titles>
CHEMBL3231_lig1476

> <i_f3d_flags>
0

> <s_m_subgroup_title>
dock_pv

> <s_m_subgroupid>
dock_pv

> <b_m_subgroup_collapsed>
1

$$$$
CHEMBL3231_lig642
                    3D
 Schrodinger Suite 2021-1.
 43 45  0  0  1  0            999 V2000
   51.7806   97.7685   30.3584 C   0  0  0  0  0  0
   51.6015   98.4756   29.1313 O   0  0  0  0  0  0
   51.5248   99.8583   29.1496 C   0  0  0  0  0  0
   51.9149  100.6110   30.2700 C   0  0  0  0  0  0
   51.7369  101.9960   30.3110 C   0  0  0  0  0  0
   51.1821  102.6488   29.2128 C   0  0  0  0  0  0
   50.8418  101.9253   28.0785 C   0  0  0  0  0  0
   51.0162  100.5361   28.0215 C   0  0  0  0  0  0
   50.6223   99.8594   26.7444 C   0  0  0  0  0  0
   50.4023   98.4976   26.4545 C   0  0  0  0  0  0
   50.0431   98.2736   25.2114 N   0  0  0  0  0  0
   50.0402   99.4810   24.6499 N   0  0  0  0  0  0
   50.3806  100.4705   25.5237 C   0  0  0  0  0  0
   52.0817  102.7665   31.5457 C   0  0  0  0  0  0
   51.2433  103.4779   32.0956 O   0  0  0  0  0  0
   53.3304  102.5938   31.9941 N   0  0  0  0  0  0
   53.8525  103.1072   33.2605 C   0  0  2  0  0  0
   55.3757  103.0044   33.2153 C   0  0  0  0  0  0
   53.3272  102.3817   34.5057 C   0  0  0  0  0  0
   52.8906  101.0488   34.4520 C   0  0  0  0  0  0
   52.4540  100.3970   35.6023 C   0  0  0  0  0  0
   52.0433   99.1106   35.5376 F   0  0  0  0  0  0
   52.4437  101.0705   36.8193 C   0  0  0  0  0  0
   52.8573  102.3999   36.8864 C   0  0  0  0  0  0
   52.8437  103.0537   38.0695 F   0  0  0  0  0  0
   53.2934  103.0539   35.7334 C   0  0  0  0  0  0
   51.6288   96.7027   30.1959 H   0  0  0  0  0  0
   52.7917   97.9015   30.7471 H   0  0  0  0  0  0
   51.0604   98.0801   31.1173 H   0  0  0  0  0  0
   52.3279  100.1171   31.1370 H   0  0  0  0  0  0
   51.0244  103.7197   29.2224 H   0  0  0  0  0  0
   50.4267  102.4675   27.2432 H   0  0  0  0  0  0
   50.4959   97.6782   27.1534 H   0  0  0  0  0  0
   49.7677   99.6296   23.6839 H   0  0  0  0  0  0
   50.4113  101.5030   25.2106 H   0  0  0  0  0  0
   53.9862  102.1049   31.4030 H   0  0  0  0  0  0
   53.5900  104.1685   33.3337 H   0  0  0  0  0  0
   55.8421  103.4018   34.1161 H   0  0  0  0  0  0
   55.6429  101.9510   33.1233 H   0  0  0  0  0  0
   55.7971  103.5372   32.3617 H   0  0  0  0  0  0
   52.9059  100.5006   33.5214 H   0  0  0  0  0  0
   52.1126  100.5562   37.7087 H   0  0  0  0  0  0
   53.6205  104.0812   35.8028 H   0  0  0  0  0  0
  1  2  1  0  0  0
  1 27  1  0  0  0
  1 28  1  0  0  0
  1 29  1  0  0  0
  2  3  1  0  0  0
  3  4  2  0  0  0
  3  8  1  0  0  0
  4  5  1  0  0  0
  4 30  1  0  0  0
  5  6  2  0  0  0
  5 14  1  0  0  0
  6  7  1  0  0  0
  6 31  1  0  0  0
  7  8  2  0  0  0
  7 32  1  0  0  0
  8  9  1  0  0  0
  9 10  1  0  0  0
  9 13  2  0  0  0
 10 11  2  0  0  0
 10 33  1  0  0  0
 11 12  1  0  0  0
 12 13  1  0  0  0
 12 34  1  0  0  0
 13 35  1  0  0  0
 14 15  2  0  0  0
 14 16  1  0  0  0
 16 17  1  0  0  0
 16 36  1  0  0  0
 17 18  1  0  0  0
 17 19  1  0  0  0
 17 37  1  0  0  0
 18 38  1  0  0  0
 18 39  1  0  0  0
 18 40  1  0  0  0
 19 20  2  0  0  0
 19 26  1  0  0  0
 20 21  1  0  0  0
 20 41  1  0  0  0
 21 22  1  0  0  0
 21 23  2  0  0  0
 23 24  1  0  0  0
 23 42  1  0  0  0
 24 25  1  0  0  0
 24 26  2  0  0  0
 26 43  1  0  0  0
M  END
> <s_m_entry_id>
28288

> <s_m_entry_name>
dock_pv.449

> <s_m_Source_Path>
/home/csk/Desktop/cluster/DUD-E-result/rock1

> <s_m_Source_File>
dock_pv.maegz

> <i_m_Source_File_Index>
449

> <chembl_id>
CHEMBL3934001

> <chembl_pref_name>
None

> <i_lp_mmshare_version>
53161

> <r_lp_tautomer_probability>
0.5

> <s_lp_Force_Field>
OPLS_2005

> <r_lp_Energy>
20.03032

> <b_lp_Chiralities_Consistent>
1

> <s_lp_Variant>
CHEMBL3231_lig642-1

> <s_i_glide_gridfile>
glide-grid_2etr

> <i_i_glide_lignum>
930

> <i_i_glide_rotatable_bonds>
6

> <r_i_docking_score>
-7.44987269207594

> <r_i_glide_ligand_efficiency>
-0.286533565079844

> <r_i_glide_ligand_efficiency_sa>
-0.848854559093902

> <r_i_glide_ligand_efficiency_ln>
-1.74957815670791

> <r_i_glide_gscore>
-7.44987269207594

> <r_i_glide_lipo>
-2.07143643357836

> <r_i_glide_hbond>
-0.685426301737292

> <r_i_glide_metal>
0

> <r_i_glide_rewards>
-1.78919566607507

> <r_i_glide_evdw>
-37.8962249755859

> <r_i_glide_ecoul>
-9.02762031555176

> <r_i_glide_erotb>
0.419732904482184

> <r_i_glide_esite>
-0.0745928990553459

> <r_i_glide_emodel>
-64.7938872137377

> <r_i_glide_energy>
-46.9238452911377

> <r_i_glide_einternal>
5.78863048553467

> <i_i_glide_confnum>
4

> <i_i_glide_posenum>
102

> <r_i_glide_eff_state_penalty>
0

> <s_user_duplicate_titles>
CHEMBL3231_lig642

> <i_f3d_flags>
0

> <s_m_subgroup_title>
dock_pv

> <s_m_subgroupid>
dock_pv

> <b_m_subgroup_collapsed>
1

$$$$
CHEMBL3231_lig585
                    3D
 Schrodinger Suite 2021-1.
 56 59  0  0  1  0            999 V2000
   51.4959   97.7035   30.4417 C   0  0  0  0  0  0
   51.2970   98.4064   29.2185 O   0  0  0  0  0  0
   51.4238   99.7848   29.1807 C   0  0  0  0  0  0
   51.8925  100.5379   30.2744 C   0  0  0  0  0  0
   51.9426  101.9400   30.2262 C   0  0  0  0  0  0
   51.5315  102.5872   29.0619 C   0  0  0  0  0  0
   51.0881  101.8567   27.9718 C   0  0  0  0  0  0
   51.0332  100.4599   28.0063 C   0  0  0  0  0  0
   50.5321   99.7800   26.7661 C   0  0  0  0  0  0
   49.9115  100.3732   25.6728 C   0  0  0  0  0  0
   49.6431   99.3718   24.7908 N   0  0  0  0  0  0
   50.0430   98.1776   25.2197 N   0  0  0  0  0  0
   50.5744   98.4213   26.3951 C   0  0  0  0  0  0
   52.3746  102.7717   31.4047 C   0  0  0  0  0  0
   51.9156  103.9031   31.5492 O   0  0  0  0  0  0
   53.2560  102.2064   32.2463 N   0  0  0  0  0  0
   53.8619  102.7896   33.4597 C   0  0  1  0  0  0
   52.9018  103.6865   34.3222 C   0  0  0  0  0  0
   51.5962  103.0984   34.6684 N   0  0  0  0  0  0
   50.6800  104.1302   35.1730 C   0  0  0  0  0  0
   49.3122  103.5316   35.5659 C   0  0  0  0  0  0
   49.4973  102.4963   36.5229 O   0  0  0  0  0  0
   50.3055  101.4377   36.0173 C   0  0  0  0  0  0
   51.6933  101.9552   35.5859 C   0  0  0  0  0  0
   54.6331  101.7536   34.3040 C   0  0  0  0  0  0
   54.6658  100.3892   33.9661 C   0  0  0  0  0  0
   55.3714   99.4819   34.7505 C   0  0  0  0  0  0
   56.0514   99.9291   35.8778 C   0  0  0  0  0  0
   56.0429  101.2778   36.2199 C   0  0  0  0  0  0
   55.3454  102.1867   35.4304 C   0  0  0  0  0  0
   51.2485   96.6518   30.2957 H   0  0  0  0  0  0
   52.5339   97.7578   30.7731 H   0  0  0  0  0  0
   50.8451   98.0805   31.2321 H   0  0  0  0  0  0
   52.1889  100.0361   31.1827 H   0  0  0  0  0  0
   51.5591  103.6659   28.9874 H   0  0  0  0  0  0
   50.7920  102.4021   27.0898 H   0  0  0  0  0  0
   49.6416  101.3938   25.4440 H   0  0  0  0  0  0
   49.2023   99.5033   23.8848 H   0  0  0  0  0  0
   50.9979   97.6161   26.9766 H   0  0  0  0  0  0
   53.7153  101.3763   31.9057 H   0  0  0  0  0  0
   54.6400  103.4553   33.0783 H   0  0  0  0  0  0
   52.7125  104.5958   33.7498 H   0  0  0  0  0  0
   53.3947  104.0319   35.2306 H   0  0  0  0  0  0
   50.5440  104.8996   34.4120 H   0  0  0  0  0  0
   51.1273  104.6328   36.0326 H   0  0  0  0  0  0
   48.6766  104.3018   36.0032 H   0  0  0  0  0  0
   48.7838  103.1506   34.6897 H   0  0  0  0  0  0
   50.4426  100.7030   36.8082 H   0  0  0  0  0  0
   49.8011  100.9278   35.1943 H   0  0  0  0  0  0
   52.2680  102.2402   36.4687 H   0  0  0  0  0  0
   52.2451  101.1449   35.1130 H   0  0  0  0  0  0
   54.1466  100.0065   33.1005 H   0  0  0  0  0  0
   55.3974   98.4353   34.4817 H   0  0  0  0  0  0
   56.6086   99.2270   36.4810 H   0  0  0  0  0  0
   56.5947  101.6179   37.0839 H   0  0  0  0  0  0
   55.3701  103.2308   35.7015 H   0  0  0  0  0  0
  1  2  1  0  0  0
  1 31  1  0  0  0
  1 32  1  0  0  0
  1 33  1  0  0  0
  2  3  1  0  0  0
  3  4  2  0  0  0
  3  8  1  0  0  0
  4  5  1  0  0  0
  4 34  1  0  0  0
  5  6  2  0  0  0
  5 14  1  0  0  0
  6  7  1  0  0  0
  6 35  1  0  0  0
  7  8  2  0  0  0
  7 36  1  0  0  0
  8  9  1  0  0  0
  9 10  2  0  0  0
  9 13  1  0  0  0
 10 11  1  0  0  0
 10 37  1  0  0  0
 11 12  1  0  0  0
 11 38  1  0  0  0
 12 13  2  0  0  0
 13 39  1  0  0  0
 14 15  2  0  0  0
 14 16  1  0  0  0
 16 17  1  0  0  0
 16 40  1  0  0  0
 17 18  1  0  0  0
 17 25  1  0  0  0
 17 41  1  0  0  0
 18 19  1  0  0  0
 18 42  1  0  0  0
 18 43  1  0  0  0
 19 20  1  0  0  0
 19 24  1  0  0  0
 20 21  1  0  0  0
 20 44  1  0  0  0
 20 45  1  0  0  0
 21 22  1  0  0  0
 21 46  1  0  0  0
 21 47  1  0  0  0
 22 23  1  0  0  0
 23 24  1  0  0  0
 23 48  1  0  0  0
 23 49  1  0  0  0
 24 50  1  0  0  0
 24 51  1  0  0  0
 25 26  2  0  0  0
 25 30  1  0  0  0
 26 27  1  0  0  0
 26 52  1  0  0  0
 27 28  2  0  0  0
 27 53  1  0  0  0
 28 29  1  0  0  0
 28 54  1  0  0  0
 29 30  2  0  0  0
 29 55  1  0  0  0
 30 56  1  0  0  0
M  END
> <s_m_entry_id>
28289

> <s_m_entry_name>
dock_pv.450

> <s_m_Source_Path>
/home/csk/Desktop/cluster/DUD-E-result/rock1

> <s_m_Source_File>
dock_pv.maegz

> <i_m_Source_File_Index>
450

> <chembl_id>
CHEMBL3956456

> <chembl_pref_name>
None

> <i_lp_mmshare_version>
53161

> <r_lp_tautomer_probability>
0.5

> <s_lp_Force_Field>
OPLS_2005

> <r_lp_Energy>
44.759328

> <b_lp_Chiralities_Consistent>
1

> <s_lp_Variant>
CHEMBL3231_lig585-2

> <s_i_glide_gridfile>
glide-grid_2etr

> <i_i_glide_lignum>
866

> <i_i_glide_rotatable_bonds>
8

> <r_i_docking_score>
-7.44931892467935

> <r_i_glide_ligand_efficiency>
-0.248310630822645

> <r_i_glide_ligand_efficiency_sa>
-0.771558862791289

> <r_i_glide_ligand_efficiency_ln>
-1.69256642651779

> <r_i_glide_gscore>
-7.44931892467935

> <r_i_glide_lipo>
-2.52604972898657

> <r_i_glide_hbond>
-0.69180871456922

> <r_i_glide_metal>
0

> <r_i_glide_rewards>
-1.57888633901025

> <r_i_glide_evdw>
-42.5624847412109

> <r_i_glide_ecoul>
-6.98847627639771

> <r_i_glide_erotb>
0.583130046706052

> <r_i_glide_esite>
-0.0593085102991545

> <r_i_glide_emodel>
-68.9141756790905

> <r_i_glide_energy>
-49.5509610176086

> <r_i_glide_einternal>
7.70198917388916

> <i_i_glide_confnum>
6

> <i_i_glide_posenum>
20

> <r_i_glide_eff_state_penalty>
0

> <s_user_duplicate_titles>
CHEMBL3231_lig585

> <i_f3d_flags>
0

> <s_m_subgroup_title>
dock_pv

> <s_m_subgroupid>
dock_pv

> <b_m_subgroup_collapsed>
1

$$$$
CHEMBL3231_lig934 
                    3D
 Schrodinger Suite 2021-1.
 42 45  0  0  1  0            999 V2000
   54.3483   97.7800   35.8460 C   0  0  0  0  0  0
   54.2927   97.5166   34.3245 C   0  0  0  0  0  0
   54.0428   96.0168   34.0712 C   0  0  0  0  0  0
   52.8210   99.6327   31.1852 N   0  0  0  0  0  0
   53.0510  100.2928   32.2760 C   0  0  0  0  0  0
   52.6625  101.6159   32.3921 N   0  0  0  0  0  0
   51.9777  102.3797   31.4826 C   0  0  0  0  0  0
   52.1511  100.2745   30.1855 C   0  0  0  0  0  0
   51.7248  101.6005   30.2783 C   0  0  0  0  0  0
   50.8690  102.1204   28.8644 S   0  0  0  0  0  0
   51.0676  100.5445   28.1328 C   0  0  0  0  0  0
   51.7900   99.6956   28.9719 C   0  0  0  0  0  0
   50.5158  100.2424   26.8187 C   0  0  0  0  0  0
   50.0806  101.1449   25.8706 C   0  0  0  0  0  0
   49.6473  100.4014   24.8110 N   0  0  0  0  0  0
   49.7918   99.0954   25.0068 N   0  0  0  0  0  0
   50.2943   98.9878   26.2161 C   0  0  0  0  0  0
   51.6430  103.5343   31.7320 O   0  0  0  0  0  0
   50.5670   97.6220   26.7726 C   0  0  0  0  0  0
   53.7796   99.6503   33.4647 C   0  0  1  0  0  0
   53.2435   98.3042   33.6936 N   0  0  1  0  0  0
   55.5618   98.0051   33.6111 C   0  0  0  0  0  0
   55.3011   99.4751   33.2923 C   0  0  0  0  0  0
   55.1097   97.1669   36.3299 H   0  0  0  0  0  0
   54.5725   98.8224   36.0737 H   0  0  0  0  0  0
   53.3924   97.5534   36.3197 H   0  0  0  0  0  0
   54.8447   95.4025   34.4835 H   0  0  0  0  0  0
   53.1054   95.6863   34.5196 H   0  0  0  0  0  0
   53.9725   95.7916   33.0059 H   0  0  0  0  0  0
   52.8866  102.0981   33.2481 H   0  0  0  0  0  0
   52.0428   98.6763   28.7345 H   0  0  0  0  0  0
   50.0429  102.2232   25.8751 H   0  0  0  0  0  0
   49.2666  100.7651   23.9442 H   0  0  0  0  0  0
   50.1102   97.5031   27.7547 H   0  0  0  0  0  0
   50.2112   96.8071   26.1411 H   0  0  0  0  0  0
   51.6414   97.5030   26.8924 H   0  0  0  0  0  0
   53.5980  100.2222   34.3766 H   0  0  0  0  0  0
   53.1484   97.9177   32.7625 H   0  0  0  0  0  0
   55.7010   97.4639   32.6728 H   0  0  0  0  0  0
   56.4745   97.8217   34.1799 H   0  0  0  0  0  0
   55.6592   99.7169   32.2884 H   0  0  0  0  0  0
   55.8405  100.1228   33.9848 H   0  0  0  0  0  0
  1  2  1  0  0  0
  1 24  1  0  0  0
  1 25  1  0  0  0
  1 26  1  0  0  0
  2  3  1  0  0  0
  2 21  1  0  0  0
  2 22  1  0  0  0
  3 27  1  0  0  0
  3 28  1  0  0  0
  3 29  1  0  0  0
  4  8  1  0  0  0
  4  5  2  0  0  0
  5  6  1  0  0  0
  5 20  1  0  0  0
  6  7  1  0  0  0
  6 30  1  0  0  0
  7  9  1  0  0  0
  7 18  2  0  0  0
  8  9  2  0  0  0
  8 12  1  0  0  0
  9 10  1  0  0  0
 10 11  1  0  0  0
 11 12  2  0  0  0
 11 13  1  0  0  0
 12 31  1  0  0  0
 13 14  2  0  0  0
 13 17  1  0  0  0
 14 15  1  0  0  0
 14 32  1  0  0  0
 15 16  1  0  0  0
 15 33  1  0  0  0
 16 17  2  0  0  0
 17 19  1  0  0  0
 19 34  1  0  0  0
 19 35  1  0  0  0
 19 36  1  0  0  0
 20 21  1  0  0  0
 20 23  1  0  0  0
 20 37  1  0  0  0
 21 38  1  0  0  0
 22 23  1  0  0  0
 22 39  1  0  0  0
 22 40  1  0  0  0
 23 41  1  0  0  0
 23 42  1  0  0  0
M  END
> <s_m_entry_id>
28290

> <s_m_entry_name>
dock_pv.451

> <s_m_Source_Path>
/home/csk/Desktop/cluster/DUD-E-result/rock1

> <s_m_Source_File>
dock_pv.maegz

> <i_m_Source_File_Index>
451

> <chembl_id>
CHEMBL4561384

> <chembl_pref_name>
None

> <i_lp_mmshare_version>
53161

> <r_lp_tautomer_probability>
0.5

> <s_lp_Force_Field>
OPLS_2005

> <r_lp_Energy>
34.893168

> <b_lp_Chiralities_Consistent>
1

> <s_lp_Variant>
CHEMBL3231_lig934 -1

> <s_i_glide_gridfile>
glide-grid_2etr

> <i_i_glide_lignum>
1343

> <i_i_glide_rotatable_bonds>
2

> <r_i_docking_score>
-7.44884895583521

> <r_i_glide_ligand_efficiency>
-0.323862998079792

> <r_i_glide_ligand_efficiency_sa>
-0.92102328527223

> <r_i_glide_ligand_efficiency_ln>
-1.80119921994901

> <r_i_glide_gscore>
-7.44884895583521

> <r_i_glide_lipo>
-2.12217641114836

> <r_i_glide_hbond>
-0.338088910565503

> <r_i_glide_metal>
0

> <r_i_glide_rewards>
-2.44970557575757

> <r_i_glide_evdw>
-39.0133056640625

> <r_i_glide_ecoul>
-6.0467529296875

> <r_i_glide_erotb>
0.34638702280835

> <r_i_glide_esite>
-0.0275868585158748

> <r_i_glide_emodel>
-65.1770610154317

> <r_i_glide_energy>
-45.06005859375

> <r_i_glide_einternal>
0.381543099880219

> <i_i_glide_confnum>
9

> <i_i_glide_posenum>
323

> <r_i_glide_eff_state_penalty>
0

> <s_user_duplicate_titles>
CHEMBL3231_lig934 ,CHEMBL3231_lig934 

> <i_f3d_flags>
0

> <s_m_subgroup_title>
dock_pv

> <s_m_subgroupid>
dock_pv

> <b_m_subgroup_collapsed>
1

$$$$
CHEMBL3231_lig1274
                    3D
 Schrodinger Suite 2021-1.
 28 31  0  0  1  0            999 V2000
   51.7149  103.7316   31.0110 N   0  0  0  0  0  0
   50.0095  100.7243   25.3762 N   0  0  0  0  0  0
   53.4910  104.3024   32.5610 N   0  0  0  0  0  0
   49.7278   99.5420   24.8138 N   0  0  0  0  0  0
   51.5907  100.7005   28.7464 C   0  0  0  0  0  0
   52.0633  101.6210   29.8183 C   0  0  0  0  0  0
   50.5764  100.3718   26.5704 C   0  0  0  0  0  0
   53.6559  102.3153   31.5000 C   0  0  0  0  0  0
   50.6604   98.9626   26.7454 C   0  0  0  0  0  0
   52.8567  103.4797   31.6538 C   0  0  0  0  0  0
   51.0428  101.2324   27.5699 C   0  0  0  0  0  0
   53.2336  101.3662   30.5522 C   0  0  0  0  0  0
   51.6779   99.3122   28.8971 C   0  0  0  0  0  0
   51.3487  102.7918   30.1057 C   0  0  0  0  0  0
   51.2300   98.4307   27.9121 C   0  0  0  0  0  0
   54.7563  102.4448   32.4109 C   0  0  0  0  0  0
   50.0786   98.4441   25.5631 C   0  0  0  0  0  0
   54.6205  103.6742   33.0341 C   0  0  0  0  0  0
   49.2835   99.5008   23.8991 H   0  0  0  0  0  0
   53.2362  105.2507   32.8160 H   0  0  0  0  0  0
   50.9736  102.3004   27.4266 H   0  0  0  0  0  0
   53.8250  100.4791   30.3743 H   0  0  0  0  0  0
   52.0977   98.8982   29.7999 H   0  0  0  0  0  0
   50.4306  103.0103   29.5796 H   0  0  0  0  0  0
   51.2938   97.3634   28.0630 H   0  0  0  0  0  0
   55.5705  101.7474   32.5535 H   0  0  0  0  0  0
   49.9016   97.4460   25.2102 H   0  0  0  0  0  0
   55.2555  104.1800   33.7488 H   0  0  0  0  0  0
  1 10  2  0  0  0
  1 14  1  0  0  0
  2  4  1  0  0  0
  2  7  2  0  0  0
  3 10  1  0  0  0
  3 18  1  0  0  0
  3 20  1  0  0  0
  4 19  1  0  0  0
  4 17  1  0  0  0
  5 11  2  0  0  0
  5  6  1  0  0  0
  5 13  1  0  0  0
  6 12  1  0  0  0
  6 14  2  0  0  0
  7 11  1  0  0  0
  7  9  1  0  0  0
  8 10  1  0  0  0
  8 12  2  0  0  0
  8 16  1  0  0  0
  9 15  1  0  0  0
  9 17  2  0  0  0
 11 21  1  0  0  0
 12 22  1  0  0  0
 13 23  1  0  0  0
 13 15  2  0  0  0
 14 24  1  0  0  0
 15 25  1  0  0  0
 16 18  2  0  0  0
 16 26  1  0  0  0
 17 27  1  0  0  0
 18 28  1  0  0  0
M  END
> <s_m_entry_id>
28291

> <s_m_entry_name>
dock_pv.452

> <s_m_Source_Path>
/home/csk/Desktop/cluster/DUD-E-result/rock1

> <s_m_Source_File>
dock_pv.maegz

> <i_m_Source_File_Index>
452

> <chembl_id>
CHEMBL1976134

> <chembl_pref_name>
None

> <i_lp_mmshare_version>
53161

> <r_lp_tautomer_probability>
0.0196078130051597

> <s_lp_Force_Field>
OPLS_2005

> <r_lp_Energy>
26.236096

> <b_lp_Chiralities_Consistent>
1

> <s_lp_Variant>
CHEMBL3231_lig1274-2

> <s_i_glide_gridfile>
glide-grid_2etr

> <i_i_glide_lignum>
1775

> <i_i_glide_rotatable_bonds>
1

> <r_i_docking_score>
-7.44701142497231

> <r_i_glide_ligand_efficiency>
-0.413722856942906

> <r_i_glide_ligand_efficiency_sa>
-1.084260615876

> <r_i_glide_ligand_efficiency_ln>
-1.91421588691552

> <r_i_glide_gscore>
-7.44701142497231

> <r_i_glide_lipo>
-2.01186457467755

> <r_i_glide_hbond>
-0.556720410463457

> <r_i_glide_metal>
0

> <r_i_glide_rewards>
-3.02855757575758

> <r_i_glide_evdw>
-31.945291519165

> <r_i_glide_ecoul>
-3.01132106781006

> <r_i_glide_erotb>
0.312893217631924

> <r_i_glide_esite>
-0.113799345575884

> <r_i_glide_emodel>
-51.137553824627

> <r_i_glide_energy>
-34.9566125869751

> <r_i_glide_einternal>
0.0336842313408852

> <i_i_glide_confnum>
2

> <i_i_glide_posenum>
348

> <r_i_glide_eff_state_penalty>
0

> <s_user_duplicate_titles>
CHEMBL3231_lig1274,CHEMBL3231_lig1274

> <i_f3d_flags>
0

> <s_m_subgroup_title>
dock_pv

> <s_m_subgroupid>
dock_pv

> <b_m_subgroup_collapsed>
1

$$$$
CHEMBL3231_lig874
                    3D
 Schrodinger Suite 2021-1.
 42 45  0  0  1  0            999 V2000
   53.3020  100.1783   30.9499 N   0  0  0  0  0  0
   53.5075  100.9042   32.0009 C   0  0  0  0  0  0
   52.9516  102.1676   32.0944 N   0  0  0  0  0  0
   52.1055  102.7889   31.2118 C   0  0  0  0  0  0
   52.4667  100.6657   29.9897 C   0  0  0  0  0  0
   51.8675  101.9214   30.0661 C   0  0  0  0  0  0
   50.8429  102.2439   28.7067 S   0  0  0  0  0  0
   51.1861  100.6671   28.0343 C   0  0  0  0  0  0
   52.0772   99.9697   28.8487 C   0  0  0  0  0  0
   50.5868  100.2070   26.7876 C   0  0  0  0  0  0
   50.0752  100.9795   25.7572 C   0  0  0  0  0  0
   49.6452  100.0957   24.8111 N   0  0  0  0  0  0
   49.8537   98.8270   25.1550 N   0  0  0  0  0  0
   50.3981   98.8767   26.3496 C   0  0  0  0  0  0
   51.6433  103.9030   31.4387 O   0  0  0  0  0  0
   50.7369   97.5809   27.0433 C   0  0  0  0  0  0
   54.3604  100.4211   33.1833 C   0  0  0  0  0  0
   54.8423   99.0365   33.1342 N   0  0  1  0  0  0
   53.8123   98.0013   33.2362 C   0  0  0  0  0  0
   54.3877   96.6071   33.0241 C   0  0  0  0  0  0
   55.2526   96.3533   31.9545 C   0  0  0  0  0  0
   55.8314   95.0987   31.8031 C   0  0  0  0  0  0
   55.5116   94.0838   32.6994 C   0  0  0  0  0  0
   54.5970   94.3040   33.7271 C   0  0  0  0  0  0
   54.0439   95.5708   33.8972 C   0  0  0  0  0  0
   53.1722  102.7194   32.9085 H   0  0  0  0  0  0
   52.4424   98.9783   28.6404 H   0  0  0  0  0  0
   49.9827  102.0471   25.6154 H   0  0  0  0  0  0
   49.2336  100.3385   23.9150 H   0  0  0  0  0  0
   51.8100   97.5031   27.1973 H   0  0  0  0  0  0
   50.2639   97.5100   28.0239 H   0  0  0  0  0  0
   50.4332   96.7006   26.4747 H   0  0  0  0  0  0
   55.2457  101.0580   33.2365 H   0  0  0  0  0  0
   53.8189  100.5721   34.1193 H   0  0  0  0  0  0
   55.5021   98.8809   32.3796 H   0  0  0  0  0  0
   53.3247   98.0515   34.2102 H   0  0  0  0  0  0
   53.0245   98.1365   32.4951 H   0  0  0  0  0  0
   55.5211   97.1376   31.2611 H   0  0  0  0  0  0
   56.5399   94.9228   31.0053 H   0  0  0  0  0  0
   55.9926   93.1216   32.5983 H   0  0  0  0  0  0
   54.3391   93.5033   34.4060 H   0  0  0  0  0  0
   53.3579   95.7458   34.7122 H   0  0  0  0  0  0
  1  5  1  0  0  0
  1  2  2  0  0  0
  2  3  1  0  0  0
  2 17  1  0  0  0
  3  4  1  0  0  0
  3 26  1  0  0  0
  4  6  1  0  0  0
  4 15  2  0  0  0
  5  6  2  0  0  0
  5  9  1  0  0  0
  6  7  1  0  0  0
  7  8  1  0  0  0
  8  9  2  0  0  0
  8 10  1  0  0  0
  9 27  1  0  0  0
 10 11  2  0  0  0
 10 14  1  0  0  0
 11 12  1  0  0  0
 11 28  1  0  0  0
 12 13  1  0  0  0
 12 29  1  0  0  0
 13 14  2  0  0  0
 14 16  1  0  0  0
 16 30  1  0  0  0
 16 31  1  0  0  0
 16 32  1  0  0  0
 17 18  1  0  0  0
 17 33  1  0  0  0
 17 34  1  0  0  0
 18 19  1  0  0  0
 18 35  1  0  0  0
 19 20  1  0  0  0
 19 36  1  0  0  0
 19 37  1  0  0  0
 20 21  2  0  0  0
 20 25  1  0  0  0
 21 22  1  0  0  0
 21 38  1  0  0  0
 22 23  2  0  0  0
 22 39  1  0  0  0
 23 24  1  0  0  0
 23 40  1  0  0  0
 24 25  2  0  0  0
 24 41  1  0  0  0
 25 42  1  0  0  0
M  END
> <s_m_entry_id>
28292

> <s_m_entry_name>
dock_pv.453

> <s_m_Source_Path>
/home/csk/Desktop/cluster/DUD-E-result/rock1

> <s_m_Source_File>
dock_pv.maegz

> <i_m_Source_File_Index>
453

> <chembl_id>
CHEMBL4091694

> <chembl_pref_name>
None

> <i_lp_mmshare_version>
53161

> <r_lp_tautomer_probability>
0.5

> <s_lp_Force_Field>
OPLS_2005

> <r_lp_Energy>
22.316487

> <b_lp_Chiralities_Consistent>
1

> <s_lp_Variant>
CHEMBL3231_lig874-1

> <s_i_glide_gridfile>
glide-grid_2etr

> <i_i_glide_lignum>
1236

> <i_i_glide_rotatable_bonds>
5

> <r_i_docking_score>
-7.44558099175614

> <r_i_glide_ligand_efficiency>
-0.297823239670246

> <r_i_glide_ligand_efficiency_sa>
-0.870840434713444

> <r_i_glide_ligand_efficiency_ln>
-1.76482582110336

> <r_i_glide_gscore>
-7.44558099175614

> <r_i_glide_lipo>
-2.19223894860875

> <r_i_glide_hbond>
-0.48

> <r_i_glide_metal>
0

> <r_i_glide_rewards>
-2.24966793939394

> <r_i_glide_evdw>
-42.5666999816895

> <r_i_glide_ecoul>
-6.47877788543701

> <r_i_glide_erotb>
0.617738348436007

> <r_i_glide_esite>
-0.0412607702894371

> <r_i_glide_emodel>
-69.8531309612382

> <r_i_glide_energy>
-49.0454778671265

> <r_i_glide_einternal>
3.32905912399292

> <i_i_glide_confnum>
15

> <i_i_glide_posenum>
362

> <r_i_glide_eff_state_penalty>
0

> <s_user_duplicate_titles>
CHEMBL3231_lig874

> <i_f3d_flags>
0

> <s_m_subgroup_title>
dock_pv

> <s_m_subgroupid>
dock_pv

> <b_m_subgroup_collapsed>
1

$$$$
CHEMBL3231_lig2122
                    3D
 Schrodinger Suite 2021-1.
 49 52  0  0  1  0            999 V2000
   54.5533   93.9203   32.9613 O   0  0  0  0  0  0
   55.2847   95.1132   33.4044 S   0  0  0  0  0  0
   55.6270   95.2950   34.8190 O   0  0  0  0  0  0
   54.3126   96.5148   32.9155 N   0  0  0  0  0  0
   50.8430   97.5030   27.4700 C   0  0  0  0  0  0
   50.4430   97.1030   26.1973 C   0  0  0  0  0  0
   50.0430   97.9343   25.2110 N   0  0  0  0  0  0
   50.9019   98.8346   27.7906 C   0  0  0  0  0  0
   50.4624   99.7321   26.8182 C   0  0  0  0  0  0
   50.0430   99.2135   25.5608 C   0  0  0  0  0  0
   49.5833  100.2610   24.8110 N   0  0  0  0  0  0
   49.6584  101.3840   25.5896 C   0  0  0  0  0  0
   50.3033  101.1351   26.7723 C   0  0  0  0  0  0
   50.6405  102.0521   27.7921 C   0  0  0  0  0  0
   51.1943  101.6278   28.9063 N   0  0  0  0  0  0
   51.3785  102.5755   29.7787 C   0  0  0  0  0  0
   50.8430  104.1168   29.2110 S   0  0  0  0  0  0
   50.4430  103.4139   27.7146 C   0  0  0  0  0  0
   51.9467  102.4218   31.0439 N   0  0  0  0  0  0
   52.0781  101.2331   31.6883 C   0  0  0  0  0  0
   52.7469  101.2482   33.0757 C   0  0  0  0  0  0
   51.6430  100.1675   31.2472 O   0  0  0  0  0  0
   53.8204  100.1712   33.3077 C   0  0  0  0  0  0
   53.5929   98.8079   33.0470 C   0  0  0  0  0  0
   54.5785   97.8453   33.2874 C   0  0  0  0  0  0
   55.7921   98.2532   33.8560 C   0  0  0  0  0  0
   56.0271   99.5972   34.1371 C   0  0  0  0  0  0
   55.0480  100.5495   33.8617 C   0  0  0  0  0  0
   56.8430   95.2741   32.3429 C   0  0  0  0  0  0
   57.9341   94.3035   32.8158 C   0  0  0  0  0  0
   53.4621   96.3142   32.4110 H   0  0  0  0  0  0
   51.1586   96.7721   28.1995 H   0  0  0  0  0  0
   50.4496   96.0544   25.9488 H   0  0  0  0  0  0
   51.2350   99.1434   28.7695 H   0  0  0  0  0  0
   49.1781  100.2415   23.8792 H   0  0  0  0  0  0
   49.2430  102.3030   25.2110 H   0  0  0  0  0  0
   50.0430  104.0034   26.9041 H   0  0  0  0  0  0
   52.2875  103.2542   31.5007 H   0  0  0  0  0  0
   51.9658  101.1040   33.8222 H   0  0  0  0  0  0
   53.1640  102.2371   33.2733 H   0  0  0  0  0  0
   52.6463   98.4816   32.6446 H   0  0  0  0  0  0
   56.5774   97.5487   34.0780 H   0  0  0  0  0  0
   56.9749   99.9022   34.5596 H   0  0  0  0  0  0
   55.2529  101.5861   34.0862 H   0  0  0  0  0  0
   57.1912   96.3021   32.4110 H   0  0  0  0  0  0
   56.5664   95.1041   31.3031 H   0  0  0  0  0  0
   58.9089   94.5701   32.4110 H   0  0  0  0  0  0
   57.7047   93.2770   32.5280 H   0  0  0  0  0  0
   58.0429   94.3306   33.9000 H   0  0  0  0  0  0
  1  2  2  0  0  0
  2  3  2  0  0  0
  2  4  1  0  0  0
  2 29  1  0  0  0
  4 25  1  0  0  0
  4 31  1  0  0  0
  5  6  2  0  0  0
  5  8  1  0  0  0
  5 32  1  0  0  0
  6  7  1  0  0  0
  6 33  1  0  0  0
  7 10  2  0  0  0
  8  9  2  0  0  0
  8 34  1  0  0  0
  9 10  1  0  0  0
  9 13  1  0  0  0
 10 11  1  0  0  0
 11 12  1  0  0  0
 11 35  1  0  0  0
 12 13  2  0  0  0
 12 36  1  0  0  0
 13 14  1  0  0  0
 14 15  1  0  0  0
 14 18  2  0  0  0
 15 16  2  0  0  0
 16 17  1  0  0  0
 16 19  1  0  0  0
 17 18  1  0  0  0
 18 37  1  0  0  0
 19 20  1  0  0  0
 19 38  1  0  0  0
 20 21  1  0  0  0
 20 22  2  0  0  0
 21 23  1  0  0  0
 21 39  1  0  0  0
 21 40  1  0  0  0
 23 24  2  0  0  0
 23 28  1  0  0  0
 24 25  1  0  0  0
 24 41  1  0  0  0
 25 26  2  0  0  0
 26 27  1  0  0  0
 26 42  1  0  0  0
 27 28  2  0  0  0
 27 43  1  0  0  0
 28 44  1  0  0  0
 29 30  1  0  0  0
 29 45  1  0  0  0
 29 46  1  0  0  0
 30 47  1  0  0  0
 30 48  1  0  0  0
 30 49  1  0  0  0
M  END
> <s_m_entry_id>
28293

> <s_m_entry_name>
dock_pv.454

> <s_m_Source_Path>
/home/csk/Desktop/cluster/DUD-E-result/rock1

> <s_m_Source_File>
dock_pv.maegz

> <i_m_Source_File_Index>
454

> <chembl_id>
CHEMBL4250547

> <chembl_pref_name>
None

> <i_lp_mmshare_version>
53161

> <r_lp_tautomer_probability>
0.998998924059464

> <s_lp_Force_Field>
OPLS_2005

> <r_lp_Energy>
6.79264

> <b_lp_Chiralities_Consistent>
1

> <s_lp_Variant>
CHEMBL3231_lig2122-1

> <s_i_glide_gridfile>
glide-grid_2etr

> <i_i_glide_lignum>
3050

> <i_i_glide_rotatable_bonds>
8

> <r_i_docking_score>
-7.44545755772685

> <r_i_glide_ligand_efficiency>
-0.248181918590895

> <r_i_glide_ligand_efficiency_sa>
-0.771158923961336

> <r_i_glide_ligand_efficiency_ln>
-1.69168908187322

> <r_i_glide_gscore>
-7.44545755772685

> <r_i_glide_lipo>
-2.00991631488159

> <r_i_glide_hbond>
-0.608

> <r_i_glide_metal>
0

> <r_i_glide_rewards>
-2.32579232602113

> <r_i_glide_evdw>
-30.6891040802002

> <r_i_glide_ecoul>
-9.23128032684326

> <r_i_glide_erotb>
0.502090492146111

> <r_i_glide_esite>
-0.0846921559337414

> <r_i_glide_emodel>
-61.0721652454388

> <r_i_glide_energy>
-39.9203844070435

> <r_i_glide_einternal>
7.64455986022949

> <i_i_glide_confnum>
22

> <i_i_glide_posenum>
44

> <r_i_glide_eff_state_penalty>
0

> <s_user_duplicate_titles>
CHEMBL3231_lig2122

> <i_f3d_flags>
0

> <s_m_subgroup_title>
dock_pv

> <s_m_subgroupid>
dock_pv

> <b_m_subgroup_collapsed>
1

$$$$
CHEMBL3231_lig416
                    3D
 Schrodinger Suite 2021-1.
 43 46  0  0  1  0            999 V2000
   51.2391  100.2846   28.0759 C   0  0  0  0  0  0
   51.4833  101.6563   28.1912 C   0  0  0  0  0  0
   52.0378  102.1960   29.3517 C   0  0  0  0  0  0
   51.5286   99.4454   29.1587 C   0  0  0  0  0  0
   52.0451   99.9860   30.3442 C   0  0  0  0  0  0
   52.3132  101.3572   30.4237 C   0  0  0  0  0  0
   52.8231  101.8576   31.6213 N   0  0  0  0  0  0
   53.0207  101.0174   32.7049 C   0  0  0  0  0  0
   52.7743   99.7603   32.6969 N   0  0  0  0  0  0
   52.2965   99.1022   31.5572 C   0  0  0  0  0  0
   52.0473   97.9025   31.4872 O   0  0  0  0  0  0
   50.6753   99.7439   26.8067 C   0  0  0  0  0  0
   53.4900  101.6582   34.0240 C   0  0  1  0  0  0
   54.7298  102.4228   33.8895 N   0  0  0  0  0  0
   50.1256  100.4423   25.7372 C   0  0  0  0  0  0
   49.7699   99.5035   24.8110 N   0  0  0  0  0  0
   50.0429   98.2598   25.2110 N   0  0  0  0  0  0
   50.5782   98.4036   26.3983 C   0  0  0  0  0  0
   52.3585  102.4735   34.6671 C   0  0  0  0  0  0
   51.3854  101.7993   35.4117 C   0  0  0  0  0  0
   50.2930  102.4875   35.9305 C   0  0  0  0  0  0
   50.1609  103.8677   35.7140 C   0  0  0  0  0  0
   51.1436  104.5422   34.9905 C   0  0  0  0  0  0
   52.2320  103.8541   34.4626 C   0  0  0  0  0  0
   49.0995  104.6268   36.1649 O   0  0  0  0  0  0
   48.0158  103.9713   36.8105 C   0  0  0  0  0  0
   51.2432  102.3030   27.3646 H   0  0  0  0  0  0
   52.2413  103.2539   29.4168 H   0  0  0  0  0  0
   51.3277   98.3849   29.0864 H   0  0  0  0  0  0
   53.0771  102.8284   31.7063 H   0  0  0  0  0  0
   53.7364  100.8604   34.7281 H   0  0  0  0  0  0
   55.0640  102.6738   34.8090 H   0  0  0  0  0  0
   55.4478  101.8292   33.4928 H   0  0  0  0  0  0
   49.9602  101.4941   25.5552 H   0  0  0  0  0  0
   49.3409   99.7030   23.9117 H   0  0  0  0  0  0
   50.9072   97.5432   26.9626 H   0  0  0  0  0  0
   51.4629  100.7324   35.5678 H   0  0  0  0  0  0
   49.5562  101.9298   36.4882 H   0  0  0  0  0  0
   51.0568  105.6062   34.8247 H   0  0  0  0  0  0
   52.9656  104.3968   33.8826 H   0  0  0  0  0  0
   47.2431  104.7033   37.0387 H   0  0  0  0  0  0
   48.3259  103.5100   37.7496 H   0  0  0  0  0  0
   47.5667  103.2118   36.1684 H   0  0  0  0  0  0
  1  4  2  0  0  0
  1 12  1  0  0  0
  1  2  1  0  0  0
  2 27  1  0  0  0
  2  3  2  0  0  0
  3 28  1  0  0  0
  3  6  1  0  0  0
  4  5  1  0  0  0
  4 29  1  0  0  0
  5 10  1  0  0  0
  5  6  2  0  0  0
  6  7  1  0  0  0
  7 30  1  0  0  0
  7  8  1  0  0  0
  8 13  1  0  0  0
  8  9  2  0  0  0
  9 10  1  0  0  0
 10 11  2  0  0  0
 12 15  2  0  0  0
 12 18  1  0  0  0
 13 14  1  0  0  0
 13 19  1  0  0  0
 13 31  1  0  0  0
 14 32  1  0  0  0
 14 33  1  0  0  0
 15 16  1  0  0  0
 15 34  1  0  0  0
 16 17  1  0  0  0
 16 35  1  0  0  0
 17 18  2  0  0  0
 18 36  1  0  0  0
 19 20  2  0  0  0
 19 24  1  0  0  0
 20 21  1  0  0  0
 20 37  1  0  0  0
 21 22  2  0  0  0
 21 38  1  0  0  0
 22 23  1  0  0  0
 22 25  1  0  0  0
 23 24  2  0  0  0
 23 39  1  0  0  0
 24 40  1  0  0  0
 25 26  1  0  0  0
 26 41  1  0  0  0
 26 42  1  0  0  0
 26 43  1  0  0  0
M  END
> <s_m_entry_id>
28294

> <s_m_entry_name>
dock_pv.455

> <s_m_Source_Path>
/home/csk/Desktop/cluster/DUD-E-result/rock1

> <s_m_Source_File>
dock_pv.maegz

> <i_m_Source_File_Index>
455

> <chembl_id>
CHEMBL2334288

> <chembl_pref_name>
None

> <i_lp_mmshare_version>
53161

> <r_lp_tautomer_probability>
0.0616002225126304

> <s_lp_Force_Field>
OPLS_2005

> <r_lp_Energy>
22.113561

> <b_lp_Chiralities_Consistent>
1

> <s_lp_Variant>
CHEMBL3231_lig416-4

> <s_i_glide_gridfile>
glide-grid_2etr

> <i_i_glide_lignum>
600

> <i_i_glide_rotatable_bonds>
4

> <r_i_docking_score>
-7.44541778959138

> <r_i_glide_ligand_efficiency>
-0.286362222676591

> <r_i_glide_ligand_efficiency_sa>
-0.848346957898466

> <r_i_glide_ligand_efficiency_ln>
-1.74853193747713

> <r_i_glide_gscore>
-7.44541778959138

> <r_i_glide_lipo>
-2.49865820954176

> <r_i_glide_hbond>
-0.55212520002228

> <r_i_glide_metal>
0

> <r_i_glide_rewards>
-2.02303409171847

> <r_i_glide_evdw>
-43.5786018371582

> <r_i_glide_ecoul>
-3.27629566192627

> <r_i_glide_erotb>
0.331073884699048

> <r_i_glide_esite>
-0.0322997318610673

> <r_i_glide_emodel>
-66.6197505750286

> <r_i_glide_energy>
-46.8548974990845

> <r_i_glide_einternal>
3.86397457122803

> <i_i_glide_confnum>
4

> <i_i_glide_posenum>
9

> <r_i_glide_eff_state_penalty>
0

> <s_user_duplicate_titles>
CHEMBL3231_lig416

> <i_f3d_flags>
0

> <s_m_subgroup_title>
dock_pv

> <s_m_subgroupid>
dock_pv

> <b_m_subgroup_collapsed>
1

$$$$
CHEMBL3231_lig518
                    3D
 Schrodinger Suite 2021-1.
 64 68  0  0  1  0            999 V2000
   51.8612  100.9226   33.0385 C   0  0  2  0  0  0
   52.3232  102.1151   32.1616 C   0  0  0  0  0  0
   53.2402  102.9569   32.6969 C   0  0  0  0  0  0
   53.5623  102.8796   34.0199 N   0  0  0  0  0  0
   52.8293  102.2288   34.9585 C   0  0  0  0  0  0
   51.8864  101.3852   34.4543 N   0  0  0  0  0  0
   52.9505  102.4321   36.1619 O   0  0  0  0  0  0
   53.9563  104.1010   31.9949 C   0  0  0  0  0  0
   51.7572  102.2872   30.8335 C   0  0  0  0  0  0
   51.8203  101.1759   30.0707 N   0  0  0  0  0  0
   51.2421  103.3538   30.4906 O   0  0  0  0  0  0
   51.3190  100.9219   28.7805 C   0  0  0  0  0  0
   51.2674   99.5785   28.3945 C   0  0  0  0  0  0
   50.4429  101.6293   26.6039 C   0  0  0  0  0  0
   50.8994  101.9197   27.8907 C   0  0  0  0  0  0
   50.3719  100.2825   26.2460 C   0  0  0  0  0  0
   50.7741   99.2505   27.1248 C   0  0  0  0  0  0
   50.5368   98.0508   26.3932 C   0  0  0  0  0  0
   50.0420   98.3037   25.2110 N   0  0  0  0  0  0
   49.9481   99.6408   25.0985 N   0  0  0  0  0  0
   52.6009   99.6003   32.7730 C   0  0  0  0  0  0
   53.7338   99.2219   33.5100 C   0  0  0  0  0  0
   54.3715   97.9974   33.2743 C   0  0  0  0  0  0
   53.8755   97.1440   32.2811 C   0  0  0  0  0  0
   52.7391   97.5030   31.5622 C   0  0  0  0  0  0
   52.0877   98.7021   31.8308 C   0  0  0  0  0  0
   54.4536   95.9436   32.0379 F   0  0  0  0  0  0
   55.4586   97.5316   34.1940 C   0  0  0  0  0  0
   56.6474   97.2975   33.6111 N   0  0  0  0  0  0
   55.2152   97.3757   35.3904 O   0  0  0  0  0  0
   57.7949   96.5681   34.1638 C   0  0  0  0  0  0
   58.0417   96.6478   35.6715 C   0  0  0  0  0  0
   57.8807   95.5022   36.4567 C   0  0  0  0  0  0
   58.1358   95.5433   37.8245 C   0  0  0  0  0  0
   58.5648   96.7293   38.4155 C   0  0  0  0  0  0
   58.7426   97.8847   37.6529 C   0  0  0  0  0  0
   58.4730   97.8376   36.2723 C   0  0  0  0  0  0
   59.1867   98.9996   38.3353 O   0  0  0  0  0  0
   59.4064  100.2061   37.6156 C   0  0  0  0  0  0
   50.8262  100.6768   32.8184 H   0  0  0  0  0  0
   54.2773  103.4816   34.3969 H   0  0  0  0  0  0
   51.4846  100.7666   35.1425 H   0  0  0  0  0  0
   55.0287  103.9030   32.0112 H   0  0  0  0  0  0
   53.6732  104.2197   30.9492 H   0  0  0  0  0  0
   53.7702  105.0540   32.4934 H   0  0  0  0  0  0
   52.3035  100.3987   30.4952 H   0  0  0  0  0  0
   51.5971   98.7918   29.0546 H   0  0  0  0  0  0
   50.1308  102.4183   25.9370 H   0  0  0  0  0  0
   50.9479  102.9605   28.1677 H   0  0  0  0  0  0
   50.7143   97.0362   26.7171 H   0  0  0  0  0  0
   49.5832  100.0562   24.2502 H   0  0  0  0  0  0
   54.1172   99.8680   34.2866 H   0  0  0  0  0  0
   52.3329   96.8176   30.8328 H   0  0  0  0  0  0
   51.1707   98.9232   31.3046 H   0  0  0  0  0  0
   56.7613   97.5598   32.6352 H   0  0  0  0  0  0
   58.6810   96.9513   33.6567 H   0  0  0  0  0  0
   57.7204   95.5250   33.8501 H   0  0  0  0  0  0
   57.5545   94.5734   36.0109 H   0  0  0  0  0  0
   58.0058   94.6538   38.4236 H   0  0  0  0  0  0
   58.7672   96.7544   39.4757 H   0  0  0  0  0  0
   58.6017   98.7136   35.6532 H   0  0  0  0  0  0
   59.8071  100.9616   38.2909 H   0  0  0  0  0  0
   60.1315  100.0673   36.8118 H   0  0  0  0  0  0
   58.4713  100.5932   37.2111 H   0  0  0  0  0  0
  1  2  1  0  0  0
  1  6  1  0  0  0
  1 21  1  0  0  0
  1 40  1  0  0  0
  2  3  2  0  0  0
  2  9  1  0  0  0
  3  4  1  0  0  0
  3  8  1  0  0  0
  4  5  1  0  0  0
  4 41  1  0  0  0
  5  6  1  0  0  0
  5  7  2  0  0  0
  6 42  1  0  0  0
  8 43  1  0  0  0
  8 44  1  0  0  0
  8 45  1  0  0  0
  9 10  1  0  0  0
  9 11  2  0  0  0
 10 12  1  0  0  0
 10 46  1  0  0  0
 12 13  2  0  0  0
 12 15  1  0  0  0
 13 17  1  0  0  0
 13 47  1  0  0  0
 14 16  1  0  0  0
 14 15  2  0  0  0
 14 48  1  0  0  0
 15 49  1  0  0  0
 16 17  2  0  0  0
 16 20  1  0  0  0
 17 18  1  0  0  0
 18 19  2  0  0  0
 18 50  1  0  0  0
 19 20  1  0  0  0
 20 51  1  0  0  0
 21 22  2  0  0  0
 21 26  1  0  0  0
 22 23  1  0  0  0
 22 52  1  0  0  0
 23 24  2  0  0  0
 23 28  1  0  0  0
 24 25  1  0  0  0
 24 27  1  0  0  0
 25 26  2  0  0  0
 25 53  1  0  0  0
 26 54  1  0  0  0
 28 29  1  0  0  0
 28 30  2  0  0  0
 29 31  1  0  0  0
 29 55  1  0  0  0
 31 32  1  0  0  0
 31 56  1  0  0  0
 31 57  1  0  0  0
 32 33  2  0  0  0
 32 37  1  0  0  0
 33 34  1  0  0  0
 33 58  1  0  0  0
 34 35  2  0  0  0
 34 59  1  0  0  0
 35 36  1  0  0  0
 35 60  1  0  0  0
 36 37  2  0  0  0
 36 38  1  0  0  0
 37 61  1  0  0  0
 38 39  1  0  0  0
 39 62  1  0  0  0
 39 63  1  0  0  0
 39 64  1  0  0  0
M  END
> <s_m_entry_id>
28295

> <s_m_entry_name>
dock_pv.456

> <s_m_Source_Path>
/home/csk/Desktop/cluster/DUD-E-result/rock1

> <s_m_Source_File>
dock_pv.maegz

> <i_m_Source_File_Index>
456

> <chembl_id>
CHEMBL3810312

> <chembl_pref_name>
None

> <i_lp_mmshare_version>
53161

> <r_lp_tautomer_probability>
0.980392156860701

> <s_lp_Force_Field>
OPLS_2005

> <r_lp_Energy>
55.73925

> <b_lp_Chiralities_Consistent>
1

> <s_lp_Variant>
CHEMBL3231_lig518-1

> <s_i_glide_gridfile>
glide-grid_2etr

> <i_i_glide_lignum>
749

> <i_i_glide_rotatable_bonds>
9

> <r_i_docking_score>
-7.4450327981344

> <r_i_glide_ligand_efficiency>
-0.190898276875241

> <r_i_glide_ligand_efficiency_sa>
-0.647376420200437

> <r_i_glide_ligand_efficiency_ln>
-1.59642637174382

> <r_i_glide_gscore>
-7.4450327981344

> <r_i_glide_lipo>
-2.08963568996525

> <r_i_glide_hbond>
-0.572849195991081

> <r_i_glide_metal>
0

> <r_i_glide_rewards>
-1.05332125677881

> <r_i_glide_evdw>
-47.7766990661621

> <r_i_glide_ecoul>
-10.7230558395386

> <r_i_glide_erotb>
0.413001802771537

> <r_i_glide_esite>
-0.144935128931907

> <r_i_glide_emodel>
-80.4400346324859

> <r_i_glide_energy>
-58.4997549057007

> <r_i_glide_einternal>
8.74400043487549

> <i_i_glide_confnum>
30

> <i_i_glide_posenum>
67

> <r_i_glide_eff_state_penalty>
0

> <s_user_duplicate_titles>
CHEMBL3231_lig518,CHEMBL3231_lig518

> <i_f3d_flags>
0

> <s_m_subgroup_title>
dock_pv

> <s_m_subgroupid>
dock_pv

> <b_m_subgroup_collapsed>
1

$$$$
CHEMBL3231_lig870
                    3D
 Schrodinger Suite 2021-1.
 34 37  0  0  1  0            999 V2000
   53.3356  100.2106   30.9798 N   0  0  0  0  0  0
   53.6535  100.9687   31.9878 C   0  0  0  0  0  0
   53.0567  102.2234   32.0571 N   0  0  0  0  0  0
   52.1326  102.8030   31.2295 C   0  0  0  0  0  0
   52.4585  100.6647   30.0375 C   0  0  0  0  0  0
   51.8629  101.9184   30.1133 C   0  0  0  0  0  0
   50.8084  102.2358   28.7807 S   0  0  0  0  0  0
   51.1616  100.6741   28.0837 C   0  0  0  0  0  0
   52.0511   99.9646   28.8966 C   0  0  0  0  0  0
   50.5739  100.2663   26.8111 C   0  0  0  0  0  0
   50.1192  101.0997   25.8009 C   0  0  0  0  0  0
   49.6685  100.2763   24.8109 N   0  0  0  0  0  0
   49.8099   98.9884   25.1089 N   0  0  0  0  0  0
   50.3328   98.9666   26.3149 C   0  0  0  0  0  0
   51.6439  103.9002   31.4723 O   0  0  0  0  0  0
   50.5905   97.6293   26.9619 C   0  0  0  0  0  0
   54.5959  100.5641   33.0569 C   0  0  0  0  0  0
   55.5401   99.5537   32.8146 C   0  0  0  0  0  0
   56.4231   99.1556   33.8157 C   0  0  0  0  0  0
   56.3717   99.7628   35.0657 C   0  0  0  0  0  0
   55.4424  100.7651   35.3273 C   0  0  0  0  0  0
   54.5571  101.1644   34.3264 C   0  0  0  0  0  0
   53.3328  102.8228   32.8182 H   0  0  0  0  0  0
   52.4251   98.9798   28.6715 H   0  0  0  0  0  0
   50.0757  102.1752   25.7022 H   0  0  0  0  0  0
   49.2787  100.5737   23.9225 H   0  0  0  0  0  0
   51.6441   97.5042   27.1972 H   0  0  0  0  0  0
   50.0405   97.5141   27.8962 H   0  0  0  0  0  0
   50.3118   96.7878   26.3265 H   0  0  0  0  0  0
   55.6123   99.0733   31.8482 H   0  0  0  0  0  0
   57.1593   98.3886   33.6129 H   0  0  0  0  0  0
   57.0692   99.4620   35.8352 H   0  0  0  0  0  0
   55.4136  101.2341   36.3008 H   0  0  0  0  0  0
   53.8417  101.9380   34.5628 H   0  0  0  0  0  0
  1  5  1  0  0  0
  1  2  2  0  0  0
  2  3  1  0  0  0
  2 17  1  0  0  0
  3  4  1  0  0  0
  3 23  1  0  0  0
  4  6  1  0  0  0
  4 15  2  0  0  0
  5  6  2  0  0  0
  5  9  1  0  0  0
  6  7  1  0  0  0
  7  8  1  0  0  0
  8  9  2  0  0  0
  8 10  1  0  0  0
  9 24  1  0  0  0
 10 11  2  0  0  0
 10 14  1  0  0  0
 11 12  1  0  0  0
 11 25  1  0  0  0
 12 13  1  0  0  0
 12 26  1  0  0  0
 13 14  2  0  0  0
 14 16  1  0  0  0
 16 27  1  0  0  0
 16 28  1  0  0  0
 16 29  1  0  0  0
 17 18  2  0  0  0
 17 22  1  0  0  0
 18 19  1  0  0  0
 18 30  1  0  0  0
 19 20  2  0  0  0
 19 31  1  0  0  0
 20 21  1  0  0  0
 20 32  1  0  0  0
 21 22  2  0  0  0
 21 33  1  0  0  0
 22 34  1  0  0  0
M  END
> <s_m_entry_id>
28296

> <s_m_entry_name>
dock_pv.457

> <s_m_Source_Path>
/home/csk/Desktop/cluster/DUD-E-result/rock1

> <s_m_Source_File>
dock_pv.maegz

> <i_m_Source_File_Index>
457

> <chembl_id>
CHEMBL4061122

> <chembl_pref_name>
None

> <i_lp_mmshare_version>
53161

> <r_lp_tautomer_probability>
0.5

> <s_lp_Force_Field>
OPLS_2005

> <r_lp_Energy>
24.637376

> <b_lp_Chiralities_Consistent>
1

> <s_lp_Variant>
CHEMBL3231_lig870-1

> <s_i_glide_gridfile>
glide-grid_2etr

> <i_i_glide_lignum>
1228

> <i_i_glide_rotatable_bonds>
2

> <r_i_docking_score>
-7.44356919282377

> <r_i_glide_ligand_efficiency>
-0.338344054219262

> <r_i_glide_ligand_efficiency_sa>
-0.948053346238948

> <r_i_glide_ligand_efficiency_ln>
-1.8194798215094

> <r_i_glide_gscore>
-7.44356919282377

> <r_i_glide_lipo>
-1.94180262195442

> <r_i_glide_hbond>
-0.449333486470343

> <r_i_glide_metal>
0

> <r_i_glide_rewards>
-2.54331203030303

> <r_i_glide_evdw>
-35.9788131713867

> <r_i_glide_ecoul>
-7.03290939331055

> <r_i_glide_erotb>
0.389133043525866

> <r_i_glide_esite>
-0.0443770300559308

> <r_i_glide_emodel>
-62.9045799265102

> <r_i_glide_energy>
-43.0117225646973

> <r_i_glide_einternal>
0.261115729808807

> <i_i_glide_confnum>
2

> <i_i_glide_posenum>
291

> <r_i_glide_eff_state_penalty>
0

> <s_user_duplicate_titles>
CHEMBL3231_lig870

> <i_f3d_flags>
0

> <s_m_subgroup_title>
dock_pv

> <s_m_subgroupid>
dock_pv

> <b_m_subgroup_collapsed>
1

$$$$
CHEMBL3231_lig737
                    3D
 Schrodinger Suite 2021-1.
 44 46  0  0  1  0            999 V2000
   51.4554   97.6436   30.4091 C   0  0  0  0  0  0
   51.2554   98.3927   29.2121 O   0  0  0  0  0  0
   51.3925   99.7709   29.2239 C   0  0  0  0  0  0
   51.8421  100.4758   30.3561 C   0  0  0  0  0  0
   51.8997  101.8770   30.3697 C   0  0  0  0  0  0
   51.5346  102.5764   29.2184 C   0  0  0  0  0  0
   51.1152  101.8925   28.0854 C   0  0  0  0  0  0
   51.0361  100.4954   28.0676 C   0  0  0  0  0  0
   50.5375   99.8600   26.8011 C   0  0  0  0  0  0
   50.5796   98.5128   26.3901 C   0  0  0  0  0  0
   50.0430   98.3018   25.2115 N   0  0  0  0  0  0
   49.6441   99.5074   24.8111 N   0  0  0  0  0  0
   49.9206  100.4847   25.7207 C   0  0  0  0  0  0
   52.2872  102.6378   31.6110 C   0  0  0  0  0  0
   51.7347  103.7063   31.8806 O   0  0  0  0  0  0
   53.2373  102.0738   32.3794 N   0  0  0  0  0  0
   53.7593  102.6145   33.6447 C   0  0  2  0  0  0
   54.9037  101.7299   34.1954 C   0  0  0  0  0  0
   55.6450  102.3961   35.2046 O   0  0  0  0  0  0
   52.6812  102.9116   34.7049 C   0  0  0  0  0  0
   52.6175  104.1740   35.3107 C   0  0  0  0  0  0
   53.5210  105.1330   35.0050 F   0  0  0  0  0  0
   51.6200  104.4636   36.2422 C   0  0  0  0  0  0
   50.6782  103.4962   36.5854 C   0  0  0  0  0  0
   50.7445  102.2306   36.0056 C   0  0  0  0  0  0
   51.7389  101.9363   35.0719 C   0  0  0  0  0  0
   51.7725  100.6990   34.5205 F   0  0  0  0  0  0
   51.2376   96.5933   30.2157 H   0  0  0  0  0  0
   52.4869   97.7054   30.7582 H   0  0  0  0  0  0
   50.7845   97.9733   31.2043 H   0  0  0  0  0  0
   52.1073   99.9398   31.2547 H   0  0  0  0  0  0
   51.5732  103.6569   29.1924 H   0  0  0  0  0  0
   50.8429  102.4718   27.2161 H   0  0  0  0  0  0
   51.0003   97.6871   26.9460 H   0  0  0  0  0  0
   49.2024   99.6608   23.9078 H   0  0  0  0  0  0
   49.6470  101.5108   25.5241 H   0  0  0  0  0  0
   53.7812  101.3354   31.9565 H   0  0  0  0  0  0
   54.2302  103.5589   33.3578 H   0  0  0  0  0  0
   54.5128  100.7979   34.6054 H   0  0  0  0  0  0
   55.5866  101.4416   33.3942 H   0  0  0  0  0  0
   56.4393  101.8852   35.3942 H   0  0  0  0  0  0
   51.5814  105.4427   36.6952 H   0  0  0  0  0  0
   49.9041  103.7213   37.3052 H   0  0  0  0  0  0
   50.0246  101.4722   36.2767 H   0  0  0  0  0  0
  1  2  1  0  0  0
  1 28  1  0  0  0
  1 29  1  0  0  0
  1 30  1  0  0  0
  2  3  1  0  0  0
  3  4  2  0  0  0
  3  8  1  0  0  0
  4  5  1  0  0  0
  4 31  1  0  0  0
  5  6  2  0  0  0
  5 14  1  0  0  0
  6  7  1  0  0  0
  6 32  1  0  0  0
  7  8  2  0  0  0
  7 33  1  0  0  0
  8  9  1  0  0  0
  9 10  1  0  0  0
  9 13  2  0  0  0
 10 11  2  0  0  0
 10 34  1  0  0  0
 11 12  1  0  0  0
 12 13  1  0  0  0
 12 35  1  0  0  0
 13 36  1  0  0  0
 14 15  2  0  0  0
 14 16  1  0  0  0
 16 17  1  0  0  0
 16 37  1  0  0  0
 17 18  1  0  0  0
 17 20  1  0  0  0
 17 38  1  0  0  0
 18 19  1  0  0  0
 18 39  1  0  0  0
 18 40  1  0  0  0
 19 41  1  0  0  0
 20 21  2  0  0  0
 20 26  1  0  0  0
 21 22  1  0  0  0
 21 23  1  0  0  0
 23 24  2  0  0  0
 23 42  1  0  0  0
 24 25  1  0  0  0
 24 43  1  0  0  0
 25 26  2  0  0  0
 25 44  1  0  0  0
 26 27  1  0  0  0
M  END
> <s_m_entry_id>
28297

> <s_m_entry_name>
dock_pv.458

> <s_m_Source_Path>
/home/csk/Desktop/cluster/DUD-E-result/rock1

> <s_m_Source_File>
dock_pv.maegz

> <i_m_Source_File_Index>
458

> <chembl_id>
CHEMBL3930451

> <chembl_pref_name>
None

> <i_lp_mmshare_version>
53161

> <r_lp_tautomer_probability>
0.5

> <s_lp_Force_Field>
OPLS_2005

> <r_lp_Energy>
21.033312

> <b_lp_Chiralities_Consistent>
1

> <s_lp_Variant>
CHEMBL3231_lig737-1

> <s_i_glide_gridfile>
glide-grid_2etr

> <i_i_glide_lignum>
1049

> <i_i_glide_rotatable_bonds>
8

> <r_i_docking_score>
-7.4424778405794

> <r_i_glide_ligand_efficiency>
-0.275647327428867

> <r_i_glide_ligand_efficiency_sa>
-0.826941981378111

> <r_i_glide_ligand_efficiency_ln>
-1.73248614245025

> <r_i_glide_gscore>
-7.4424778405794

> <r_i_glide_lipo>
-2.20927339925325

> <r_i_glide_hbond>
-0.651868199701474

> <r_i_glide_metal>
0

> <r_i_glide_rewards>
-1.91938301159016

> <r_i_glide_evdw>
-39.4074058532715

> <r_i_glide_ecoul>
-7.28134965896606

> <r_i_glide_erotb>
0.485208663053224

> <r_i_glide_esite>
-0.0845891515792528

> <r_i_glide_emodel>
-67.1844418870859

> <r_i_glide_energy>
-46.6887555122375

> <r_i_glide_einternal>
2.57251405715942

> <i_i_glide_confnum>
8

> <i_i_glide_posenum>
294

> <r_i_glide_eff_state_penalty>
0

> <s_user_duplicate_titles>
CHEMBL3231_lig737

> <i_f3d_flags>
0

> <s_m_subgroup_title>
dock_pv

> <s_m_subgroupid>
dock_pv

> <b_m_subgroup_collapsed>
1

$$$$
CHEMBL3231_lig640
                    3D
 Schrodinger Suite 2021-1.
 47 49  0  0  1  0            999 V2000
   47.5189  103.6706   35.4515 C   0  0  0  0  0  0
   48.9399  103.4427   35.2077 N   0  0  0  0  0  0
   49.8978  103.5392   36.1415 C   0  0  0  0  0  0
   49.6797  103.8514   37.3130 O   0  0  0  0  0  0
   51.2926  103.2116   35.6767 C   0  0  0  0  0  0
   52.0652  102.2972   36.4006 C   0  0  0  0  0  0
   53.3781  102.0153   36.0332 C   0  0  0  0  0  0
   53.9265  102.6229   34.9091 C   0  0  0  0  0  0
   53.1529  103.4879   34.1306 C   0  0  0  0  0  0
   53.7346  104.0591   32.8409 C   0  0  0  0  0  0
   53.2619  103.3649   31.6419 N   0  0  0  0  0  0
   53.4091  102.0453   31.4121 C   0  0  0  0  0  0
   54.0792  101.3106   32.1382 O   0  0  0  0  0  0
   52.6262  101.4659   30.2591 C   0  0  0  0  0  0
   52.2120  102.2500   29.1781 C   0  0  0  0  0  0
   51.5336  101.6696   28.1115 C   0  0  0  0  0  0
   51.2641  100.2981   28.0813 C   0  0  0  0  0  0
   51.6088   99.5062   29.1950 C   0  0  0  0  0  0
   51.2428   98.1709   29.2011 O   0  0  0  0  0  0
   51.3577   97.4062   30.3999 C   0  0  0  0  0  0
   52.2982  100.1040   30.2624 C   0  0  0  0  0  0
   50.6507   99.7507   26.8262 C   0  0  0  0  0  0
   50.0435  100.4418   25.7791 C   0  0  0  0  0  0
   49.7125   99.5083   24.8372 N   0  0  0  0  0  0
   50.0428   98.2712   25.2107 N   0  0  0  0  0  0
   50.6012   98.4167   26.3853 C   0  0  0  0  0  0
   51.8481  103.8055   34.5323 C   0  0  0  0  0  0
   46.9208  102.9893   34.8465 H   0  0  0  0  0  0
   47.2481  104.6925   35.1873 H   0  0  0  0  0  0
   47.2464  103.5058   36.4942 H   0  0  0  0  0  0
   49.2027  103.0945   34.2993 H   0  0  0  0  0  0
   51.6426  101.7709   37.2347 H   0  0  0  0  0  0
   53.9627  101.3082   36.6034 H   0  0  0  0  0  0
   54.9349  102.3728   34.6090 H   0  0  0  0  0  0
   53.4448  105.1029   32.7590 H   0  0  0  0  0  0
   54.8270  104.0658   32.8641 H   0  0  0  0  0  0
   52.8957  103.9434   30.9039 H   0  0  0  0  0  0
   52.4382  103.3054   29.1297 H   0  0  0  0  0  0
   51.2427  102.2994   27.2851 H   0  0  0  0  0  0
   50.9641   96.4052   30.2234 H   0  0  0  0  0  0
   52.3953   97.2959   30.7182 H   0  0  0  0  0  0
   50.7792   97.8477   31.2127 H   0  0  0  0  0  0
   52.5983   99.5061   31.1102 H   0  0  0  0  0  0
   49.8374  101.4890   25.6128 H   0  0  0  0  0  0
   49.2680   99.7071   23.9451 H   0  0  0  0  0  0
   50.9929   97.5575   26.9088 H   0  0  0  0  0  0
   51.2721  104.5053   33.9450 H   0  0  0  0  0  0
  1  2  1  0  0  0
  1 28  1  0  0  0
  1 29  1  0  0  0
  1 30  1  0  0  0
  2  3  1  0  0  0
  2 31  1  0  0  0
  3  4  2  0  0  0
  3  5  1  0  0  0
  5  6  2  0  0  0
  5 27  1  0  0  0
  6  7  1  0  0  0
  6 32  1  0  0  0
  7  8  2  0  0  0
  7 33  1  0  0  0
  8  9  1  0  0  0
  8 34  1  0  0  0
  9 10  1  0  0  0
  9 27  2  0  0  0
 10 11  1  0  0  0
 10 35  1  0  0  0
 10 36  1  0  0  0
 11 12  1  0  0  0
 11 37  1  0  0  0
 12 13  2  0  0  0
 12 14  1  0  0  0
 14 15  2  0  0  0
 14 21  1  0  0  0
 15 16  1  0  0  0
 15 38  1  0  0  0
 16 17  2  0  0  0
 16 39  1  0  0  0
 17 18  1  0  0  0
 17 22  1  0  0  0
 18 19  1  0  0  0
 18 21  2  0  0  0
 19 20  1  0  0  0
 20 40  1  0  0  0
 20 41  1  0  0  0
 20 42  1  0  0  0
 21 43  1  0  0  0
 22 23  2  0  0  0
 22 26  1  0  0  0
 23 24  1  0  0  0
 23 44  1  0  0  0
 24 25  1  0  0  0
 24 45  1  0  0  0
 25 26  2  0  0  0
 26 46  1  0  0  0
 27 47  1  0  0  0
M  END
> <s_m_entry_id>
28298

> <s_m_entry_name>
dock_pv.459

> <s_m_Source_Path>
/home/csk/Desktop/cluster/DUD-E-result/rock1

> <s_m_Source_File>
dock_pv.maegz

> <i_m_Source_File_Index>
459

> <chembl_id>
CHEMBL3958305

> <chembl_pref_name>
None

> <i_lp_mmshare_version>
53161

> <r_lp_tautomer_probability>
0.5

> <s_lp_Force_Field>
OPLS_2005

> <r_lp_Energy>
23.726304

> <b_lp_Chiralities_Consistent>
1

> <s_lp_Variant>
CHEMBL3231_lig640-1

> <s_i_glide_gridfile>
glide-grid_2etr

> <i_i_glide_lignum>
928

> <i_i_glide_rotatable_bonds>
8

> <r_i_docking_score>
-7.44206369871117

> <r_i_glide_ligand_efficiency>
-0.275631988841154

> <r_i_glide_ligand_efficiency_sa>
-0.826895965615025

> <r_i_glide_ligand_efficiency_ln>
-1.73238973705099

> <r_i_glide_gscore>
-7.44206369871117

> <r_i_glide_lipo>
-2.18633593910584

> <r_i_glide_hbond>
-0.547950558639409

> <r_i_glide_metal>
0

> <r_i_glide_rewards>
-2.11742695390365

> <r_i_glide_evdw>
-47.0247039794922

> <r_i_glide_ecoul>
-5.14785242080688

> <r_i_glide_erotb>
0.608064255786406

> <r_i_glide_esite>
-0.075001440753036

> <r_i_glide_emodel>
-71.1977316509029

> <r_i_glide_energy>
-52.1725564002991

> <r_i_glide_einternal>
12.9997892379761

> <i_i_glide_confnum>
50

> <i_i_glide_posenum>
359

> <r_i_glide_eff_state_penalty>
0

> <s_user_duplicate_titles>
CHEMBL3231_lig640

> <i_f3d_flags>
0

> <s_m_subgroup_title>
dock_pv

> <s_m_subgroupid>
dock_pv

> <b_m_subgroup_collapsed>
1

$$$$
CHEMBL3231_lig875
                    3D
 Schrodinger Suite 2021-1.
 35 37  0  0  1  0            999 V2000
   52.5275   99.8858   31.4971 N   0  0  0  0  0  0
   52.7628  100.6570   32.5074 C   0  0  0  0  0  0
   52.4678  102.0071   32.4539 N   0  0  0  0  0  0
   51.8959  102.7028   31.4238 C   0  0  0  0  0  0
   51.9816  100.4550   30.3792 C   0  0  0  0  0  0
   51.6512  101.8090   30.3005 C   0  0  0  0  0  0
   50.9223  102.2270   28.7880 S   0  0  0  0  0  0
   51.0817  100.5811   28.2161 C   0  0  0  0  0  0
   51.6740   99.7787   29.1974 C   0  0  0  0  0  0
   50.6156  100.1961   26.8805 C   0  0  0  0  0  0
   50.1670  101.0361   25.8756 C   0  0  0  0  0  0
   49.8366  100.2303   24.8211 N   0  0  0  0  0  0
   50.0437   98.9404   25.0832 N   0  0  0  0  0  0
   50.5042   98.9055   26.3164 C   0  0  0  0  0  0
   51.6432  103.9011   31.5181 O   0  0  0  0  0  0
   50.8274   97.5698   26.9392 C   0  0  0  0  0  0
   53.3378  100.1047   33.8054 C   0  0  0  0  0  0
   52.3329   99.5001   34.6958 N   0  0  0  0  0  0
   51.6129  100.5077   35.4756 C   0  0  0  0  0  0
   52.9815   98.5665   35.6173 C   0  0  0  0  0  0
   52.6831  102.5715   33.2597 H   0  0  0  0  0  0
   51.8733   98.7256   29.0866 H   0  0  0  0  0  0
   50.0478  102.1070   25.8348 H   0  0  0  0  0  0
   49.4634  100.5424   23.9313 H   0  0  0  0  0  0
   51.8845   97.5038   27.1888 H   0  0  0  0  0  0
   50.2720   97.4437   27.8675 H   0  0  0  0  0  0
   50.5840   96.7218   26.2974 H   0  0  0  0  0  0
   54.0825   99.3497   33.5393 H   0  0  0  0  0  0
   53.9036  100.8728   34.3360 H   0  0  0  0  0  0
   51.0687  101.1897   34.8204 H   0  0  0  0  0  0
   50.8749  100.0384   36.1269 H   0  0  0  0  0  0
   52.2862  101.0992   36.1000 H   0  0  0  0  0  0
   53.4665   97.7581   35.0668 H   0  0  0  0  0  0
   53.7401   99.0604   36.2284 H   0  0  0  0  0  0
   52.2564   98.1066   36.2899 H   0  0  0  0  0  0
  1  5  1  0  0  0
  1  2  2  0  0  0
  2  3  1  0  0  0
  2 17  1  0  0  0
  3  4  1  0  0  0
  3 21  1  0  0  0
  4  6  1  0  0  0
  4 15  2  0  0  0
  5  6  2  0  0  0
  5  9  1  0  0  0
  6  7  1  0  0  0
  7  8  1  0  0  0
  8  9  2  0  0  0
  8 10  1  0  0  0
  9 22  1  0  0  0
 10 11  2  0  0  0
 10 14  1  0  0  0
 11 12  1  0  0  0
 11 23  1  0  0  0
 12 13  1  0  0  0
 12 24  1  0  0  0
 13 14  2  0  0  0
 14 16  1  0  0  0
 16 25  1  0  0  0
 16 26  1  0  0  0
 16 27  1  0  0  0
 17 18  1  0  0  0
 17 28  1  0  0  0
 17 29  1  0  0  0
 18 19  1  0  0  0
 18 20  1  0  0  0
 19 30  1  0  0  0
 19 31  1  0  0  0
 19 32  1  0  0  0
 20 33  1  0  0  0
 20 34  1  0  0  0
 20 35  1  0  0  0
M  END
> <s_m_entry_id>
28299

> <s_m_entry_name>
dock_pv.460

> <s_m_Source_Path>
/home/csk/Desktop/cluster/DUD-E-result/rock1

> <s_m_Source_File>
dock_pv.maegz

> <i_m_Source_File_Index>
460

> <chembl_id>
CHEMBL4062209

> <chembl_pref_name>
None

> <i_lp_mmshare_version>
53161

> <r_lp_tautomer_probability>
0.5

> <s_lp_Force_Field>
OPLS_2005

> <r_lp_Energy>
22.004123

> <b_lp_Chiralities_Consistent>
1

> <s_lp_Variant>
CHEMBL3231_lig875-1

> <s_i_glide_gridfile>
glide-grid_2etr

> <i_i_glide_lignum>
1238

> <i_i_glide_rotatable_bonds>
3

> <r_i_docking_score>
-7.43540543223777

> <r_i_glide_ligand_efficiency>
-0.371770271611889

> <r_i_glide_ligand_efficiency_sa>
-1.00913977358188

> <r_i_glide_ligand_efficiency_ln>
-1.86083674360504

> <r_i_glide_gscore>
-7.43540543223777

> <r_i_glide_lipo>
-2.1310872440825

> <r_i_glide_hbond>
-0.409383130590957

> <r_i_glide_metal>
0

> <r_i_glide_rewards>
-2.68649536645138

> <r_i_glide_evdw>
-34.1891670227051

> <r_i_glide_ecoul>
-6.05117559432983

> <r_i_glide_erotb>
0.434924465386592

> <r_i_glide_esite>
-0.026229466214802

> <r_i_glide_emodel>
-57.9410732899979

> <r_i_glide_energy>
-40.2403426170349

> <r_i_glide_einternal>
1.90494000911713

> <i_i_glide_confnum>
13

> <i_i_glide_posenum>
91

> <r_i_glide_eff_state_penalty>
0

> <s_user_duplicate_titles>
CHEMBL3231_lig875

> <i_f3d_flags>
0

> <s_m_subgroup_title>
dock_pv

> <s_m_subgroupid>
dock_pv

> <b_m_subgroup_collapsed>
1

$$$$
CHEMBL3231_lig1023 
                    3D
 Schrodinger Suite 2021-1.
 51 54  0  0  1  0            999 V2000
   50.6132  100.2084   26.9312 C   0  0  0  0  0  0
   51.0698   99.2634   27.8654 C   0  0  0  0  0  0
   50.9430   97.9031   27.5576 C   0  0  0  0  0  0
   50.4444   97.4931   26.3234 C   0  0  0  0  0  0
   50.0422   98.4380   25.3896 C   0  0  0  0  0  0
   50.0880   99.7864   25.7108 C   0  0  0  0  0  0
   49.5764  100.7034   24.8109 N   0  0  0  0  0  0
   51.6335   99.6749   29.2021 C   0  0  0  0  0  0
   51.4512   98.9540   30.1833 O   0  0  0  0  0  0
   52.3010  100.8496   29.2101 N   0  0  0  0  0  0
   52.8619  101.5357   30.2997 C   0  0  0  0  0  0
   53.1330  102.8920   30.1087 C   0  0  0  0  0  0
   53.6539  103.6537   31.1517 C   0  0  0  0  0  0
   53.9210  103.0671   32.3872 C   0  0  0  0  0  0
   53.6656  101.7101   32.5981 C   0  0  0  0  0  0
   53.9012  101.2237   33.8967 N   0  0  0  0  0  0
   53.5655  100.0360   34.4497 C   0  0  0  0  0  0
   53.1058   99.0674   33.8452 O   0  0  0  0  0  0
   53.7119   99.9295   35.9811 C   0  0  0  0  0  0
   53.5989  101.2010   36.6453 O   0  0  0  0  0  0
   52.4217  101.9287   36.6181 C   0  0  0  0  0  0
   51.2328  101.5026   36.0093 C   0  0  0  0  0  0
   50.1185  102.3328   35.9854 C   0  0  0  0  0  0
   49.0120  101.8703   35.3018 O   0  0  0  0  0  0
   47.9379  102.6919   35.2103 C   0  0  0  0  0  0
   47.8364  103.8959   35.7997 C   0  0  0  0  0  0
   48.9163  104.4401   36.6032 C   0  0  0  0  0  0
   48.8432  105.5031   37.2117 O   0  0  0  0  0  0
   50.1394  103.5856   36.6160 C   0  0  0  0  0  0
   51.3187  104.0007   37.2465 C   0  0  0  0  0  0
   52.4457  103.1798   37.2329 C   0  0  0  0  0  0
   53.1568  100.9435   31.5386 C   0  0  0  0  0  0
   50.6369  101.2651   27.1541 H   0  0  0  0  0  0
   51.2428   97.1491   28.2716 H   0  0  0  0  0  0
   50.3893   96.4401   26.0927 H   0  0  0  0  0  0
   49.6495   98.1317   24.4336 H   0  0  0  0  0  0
   49.2394  100.3888   23.9047 H   0  0  0  0  0  0
   49.5264  101.6778   25.0673 H   0  0  0  0  0  0
   52.3698  101.3241   28.3241 H   0  0  0  0  0  0
   52.9362  103.3699   29.1610 H   0  0  0  0  0  0
   53.8656  104.7026   31.0004 H   0  0  0  0  0  0
   54.3219  103.6857   33.1785 H   0  0  0  0  0  0
   54.2978  101.8970   34.5352 H   0  0  0  0  0  0
   54.6908   99.5062   36.2037 H   0  0  0  0  0  0
   52.9771   99.2336   36.3903 H   0  0  0  0  0  0
   51.1517  100.5433   35.5261 H   0  0  0  0  0  0
   47.1451  102.2492   34.6221 H   0  0  0  0  0  0
   46.9221  104.4558   35.6927 H   0  0  0  0  0  0
   51.3757  104.9627   37.7386 H   0  0  0  0  0  0
   53.3556  103.5149   37.7084 H   0  0  0  0  0  0
   52.9954   99.8895   31.6717 H   0  0  0  0  0  0
  1  2  1  0  0  0
  1  6  2  0  0  0
  1 33  1  0  0  0
  2  3  2  0  0  0
  2  8  1  0  0  0
  3  4  1  0  0  0
  3 34  1  0  0  0
  4  5  2  0  0  0
  4 35  1  0  0  0
  5  6  1  0  0  0
  5 36  1  0  0  0
  6  7  1  0  0  0
  7 37  1  0  0  0
  7 38  1  0  0  0
  8  9  2  0  0  0
  8 10  1  0  0  0
 10 11  1  0  0  0
 10 39  1  0  0  0
 11 12  1  0  0  0
 11 32  2  0  0  0
 12 13  2  0  0  0
 12 40  1  0  0  0
 13 14  1  0  0  0
 13 41  1  0  0  0
 14 15  2  0  0  0
 14 42  1  0  0  0
 15 16  1  0  0  0
 15 32  1  0  0  0
 16 17  1  0  0  0
 16 43  1  0  0  0
 17 18  2  0  0  0
 17 19  1  0  0  0
 19 20  1  0  0  0
 19 44  1  0  0  0
 19 45  1  0  0  0
 20 21  1  0  0  0
 21 22  1  0  0  0
 21 31  2  0  0  0
 22 23  2  0  0  0
 22 46  1  0  0  0
 23 24  1  0  0  0
 23 29  1  0  0  0
 24 25  1  0  0  0
 25 26  2  0  0  0
 25 47  1  0  0  0
 26 27  1  0  0  0
 26 48  1  0  0  0
 27 28  2  0  0  0
 27 29  1  0  0  0
 29 30  2  0  0  0
 30 31  1  0  0  0
 30 49  1  0  0  0
 31 50  1  0  0  0
 32 51  1  0  0  0
M  END
> <s_m_entry_id>
28300

> <s_m_entry_name>
dock_pv.461

> <s_m_Source_Path>
/home/csk/Desktop/cluster/DUD-E-result/rock1

> <s_m_Source_File>
dock_pv.maegz

> <i_m_Source_File_Index>
461

> <chembl_id>
CHEMBL4440876

> <chembl_pref_name>
None

> <i_lp_mmshare_version>
53161

> <r_lp_tautomer_probability>
1

> <s_lp_Force_Field>
OPLS_2005

> <r_lp_Energy>
36.29499

> <b_lp_Chiralities_Consistent>
1

> <s_lp_Variant>
CHEMBL3231_lig1023 -1

> <s_i_glide_gridfile>
glide-grid_2etr

> <i_i_glide_lignum>
1438

> <i_i_glide_rotatable_bonds>
8

> <r_i_docking_score>
-7.43527307281066

> <r_i_glide_ligand_efficiency>
-0.232352283525333

> <r_i_glide_ligand_efficiency_sa>
-0.737672517738461

> <r_i_glide_ligand_efficiency_ln>
-1.6649603188915

> <r_i_glide_gscore>
-7.43527307281066

> <r_i_glide_lipo>
-3.51892086509291

> <r_i_glide_hbond>
-0.545554727957228

> <r_i_glide_metal>
0

> <r_i_glide_rewards>
-0.693016010985589

> <r_i_glide_evdw>
-53.0870399475098

> <r_i_glide_ecoul>
-5.09821605682373

> <r_i_glide_erotb>
0.754349825760704

> <r_i_glide_esite>
-0.0130468886365846

> <r_i_glide_emodel>
-80.6146501052644

> <r_i_glide_energy>
-58.1852560043335

> <r_i_glide_einternal>
7.79736661911011

> <i_i_glide_confnum>
16

> <i_i_glide_posenum>
170

> <r_i_glide_eff_state_penalty>
0

> <s_user_duplicate_titles>
CHEMBL3231_lig1023 

> <i_f3d_flags>
0

> <s_m_subgroup_title>
dock_pv

> <s_m_subgroupid>
dock_pv

> <b_m_subgroup_collapsed>
1

$$$$
CHEMBL3231_lig1678
                    3D
 Schrodinger Suite 2021-1.
 38 41  0  0  1  0            999 V2000
   53.6838   98.3535   33.4255 O   0  0  0  0  0  0
   51.2440  105.5030   34.0110 O   0  0  0  0  0  0
   52.4449   97.8164   31.5616 N   0  0  0  0  0  0
   51.8916  101.1285   33.1423 N   0  0  0  0  0  0
   50.8429  101.4982   26.1253 N   0  0  0  0  0  0
   53.3756   99.9440   31.5456 C   0  0  1  0  0  0
   52.5297   99.7099   30.3264 C   0  0  0  0  0  0
   53.0089  101.1884   32.3679 C   0  0  0  0  0  0
   52.0295   98.4233   30.3893 C   0  0  0  0  0  0
   53.2138   98.6176   32.3210 C   0  0  0  0  0  0
   51.6007  102.1551   33.9811 C   0  0  0  0  0  0
   52.3722  103.3405   34.0064 C   0  0  0  0  0  0
   52.2338  100.5210   29.2272 C   0  0  0  0  0  0
   53.8135  102.3296   32.3296 C   0  0  0  0  0  0
   51.2413   97.9028   29.3677 C   0  0  0  0  0  0
   51.4401  100.0121   28.1880 C   0  0  0  0  0  0
   53.4712  103.4126   33.1382 C   0  0  0  0  0  0
   51.9254  104.5626   34.8129 C   0  0  2  0  0  0
   50.9616   98.6957   28.2525 C   0  0  0  0  0  0
   50.4315  101.9368   34.9409 C   0  0  0  0  0  0
   51.0210  104.1539   35.9943 C   0  0  0  0  0  0
   49.8703  103.2442   35.5269 C   0  0  0  0  0  0
   51.1087  100.8408   27.0403 C   0  0  0  0  0  0
   51.8969  106.0655   33.5575 H   0  0  0  0  0  0
   52.1815   96.8833   31.8510 H   0  0  0  0  0  0
   54.4299  100.0133   31.2690 H   0  0  0  0  0  0
   52.6257  101.5281   29.1762 H   0  0  0  0  0  0
   54.6860  102.3796   31.6909 H   0  0  0  0  0  0
   50.8557   96.8946   29.4200 H   0  0  0  0  0  0
   54.0652  104.3149   33.0896 H   0  0  0  0  0  0
   52.8022  105.0801   35.2063 H   0  0  0  0  0  0
   50.3529   98.2869   27.4582 H   0  0  0  0  0  0
   49.6405  101.3638   34.4554 H   0  0  0  0  0  0
   50.7924  101.3151   35.7624 H   0  0  0  0  0  0
   50.6314  105.0443   36.4882 H   0  0  0  0  0  0
   51.6196  103.6524   36.7566 H   0  0  0  0  0  0
   49.2661  103.7590   34.7791 H   0  0  0  0  0  0
   49.2008  103.0221   36.3584 H   0  0  0  0  0  0
  1 10  2  0  0  0
  2 18  1  0  0  0
  2 24  1  0  0  0
  3  9  1  0  0  0
  3 10  1  0  0  0
  3 25  1  0  0  0
  4  8  1  0  0  0
  4 11  2  0  0  0
  5 23  3  0  0  0
  6  7  1  0  0  0
  6  8  1  0  0  0
  6 10  1  0  0  0
  6 26  1  0  0  0
  7  9  1  0  0  0
  7 13  2  0  0  0
  8 14  2  0  0  0
  9 15  2  0  0  0
 11 12  1  0  0  0
 11 20  1  0  0  0
 12 17  2  0  0  0
 12 18  1  0  0  0
 13 16  1  0  0  0
 13 27  1  0  0  0
 14 17  1  0  0  0
 14 28  1  0  0  0
 15 19  1  0  0  0
 15 29  1  0  0  0
 16 19  2  0  0  0
 16 23  1  0  0  0
 17 30  1  0  0  0
 18 21  1  0  0  0
 18 31  1  0  0  0
 19 32  1  0  0  0
 20 22  1  0  0  0
 20 33  1  0  0  0
 20 34  1  0  0  0
 21 22  1  0  0  0
 21 35  1  0  0  0
 21 36  1  0  0  0
 22 37  1  0  0  0
 22 38  1  0  0  0
M  END
> <s_m_entry_id>
28301

> <s_m_entry_name>
dock_pv.462

> <s_m_Source_Path>
/home/csk/Desktop/cluster/DUD-E-result/rock1

> <s_m_Source_File>
dock_pv.maegz

> <i_m_Source_File_Index>
462

> <chembl_id>
CHEMBL1985681

> <chembl_pref_name>
None

> <i_lp_mmshare_version>
53161

> <r_lp_tautomer_probability>
1

> <s_lp_Force_Field>
OPLS_2005

> <r_lp_Energy>
34.63805

> <b_lp_Chiralities_Consistent>
1

> <s_lp_Variant>
CHEMBL3231_lig1678-2

> <s_i_glide_gridfile>
glide-grid_2etr

> <i_i_glide_lignum>
2392

> <i_i_glide_rotatable_bonds>
2

> <r_i_docking_score>
-7.4320027226779

> <r_i_glide_ligand_efficiency>
-0.323130553159909

> <r_i_glide_ligand_efficiency_sa>
-0.918940309352192

> <r_i_glide_ligand_efficiency_ln>
-1.79712564801837

> <r_i_glide_gscore>
-7.4320027226779

> <r_i_glide_lipo>
-1.47288546679039

> <r_i_glide_hbond>
-0.428169194103837

> <r_i_glide_metal>
0

> <r_i_glide_rewards>
-2.90556805866956

> <r_i_glide_evdw>
-31.2448253631592

> <r_i_glide_ecoul>
-7.97425508499146

> <r_i_glide_erotb>
0.138574845053179

> <r_i_glide_esite>
-0.00557531726061942

> <r_i_glide_emodel>
-58.0560967884038

> <r_i_glide_energy>
-39.2190804481506

> <r_i_glide_einternal>
0.815965354442596

> <i_i_glide_confnum>
3

> <i_i_glide_posenum>
225

> <r_i_glide_eff_state_penalty>
0

> <s_user_duplicate_titles>
CHEMBL3231_lig1678

> <i_f3d_flags>
0

> <s_m_subgroup_title>
dock_pv

> <s_m_subgroupid>
dock_pv

> <b_m_subgroup_collapsed>
1

$$$$
CHEMBL3231_lig1817
                    3D
 Schrodinger Suite 2021-1.
 45 47  0  0  1  0            999 V2000
   51.6430  103.9032   32.2158 O   0  0  0  0  0  0
   55.6429  104.7042   35.9955 O   0  0  0  0  0  0
   53.6853  102.9533   32.4302 N   0  0  0  0  0  0
   50.0430   98.2028   25.2107 N   0  0  0  0  0  0
   52.2254  102.3080   30.5748 C   0  0  0  0  0  0
   51.4677  100.7136   28.3900 C   0  0  0  0  0  0
   52.5048  103.1289   31.8058 C   0  0  0  0  0  0
   51.0055   99.8443   27.2757 C   0  0  0  0  0  0
   54.0997  103.6499   33.6594 C   0  0  1  0  0  0
   52.8233  101.0593   30.3740 C   0  0  0  0  0  0
   51.2837  102.7716   29.6484 C   0  0  0  0  0  0
   52.4436  100.2710   29.2922 C   0  0  0  0  0  0
   50.9056  101.9808   28.5732 C   0  0  0  0  0  0
   53.0488  103.5871   34.7862 C   0  0  0  0  0  0
   50.6181  100.3899   26.0401 C   0  0  0  0  0  0
   50.9141   98.4535   27.4408 C   0  0  0  0  0  0
   55.5130  103.1739   34.1000 C   0  0  0  0  0  0
   52.4829  104.7742   35.2668 C   0  0  0  0  0  0
   52.6490  102.3589   35.3237 C   0  0  0  0  0  0
   50.1356   99.5435   25.0439 C   0  0  0  0  0  0
   50.4430   97.6730   26.3880 C   0  0  0  0  0  0
   51.5255  104.7348   36.2778 C   0  0  0  0  0  0
   51.6896  102.3194   36.3346 C   0  0  0  0  0  0
   51.1322  103.5080   36.8066 C   0  0  0  0  0  0
   55.9201  103.3841   35.5752 C   0  0  0  0  0  0
   54.6878  104.7891   36.0898 H   0  0  0  0  0  0
   54.4197  102.4925   31.9126 H   0  0  0  0  0  0
   54.2096  104.7017   33.3763 H   0  0  0  0  0  0
   53.5544  100.6660   31.0680 H   0  0  0  0  0  0
   50.8136  103.7372   29.7680 H   0  0  0  0  0  0
   52.9047   99.3025   29.1737 H   0  0  0  0  0  0
   50.1500  102.3512   27.8963 H   0  0  0  0  0  0
   50.6812  101.4514   25.8512 H   0  0  0  0  0  0
   51.1946   97.9796   28.3704 H   0  0  0  0  0  0
   55.6374  102.1117   33.8824 H   0  0  0  0  0  0
   56.2454  103.6741   33.4653 H   0  0  0  0  0  0
   52.7729  105.7288   34.8491 H   0  0  0  0  0  0
   53.0777  101.4376   34.9558 H   0  0  0  0  0  0
   49.8173   99.9344   24.0865 H   0  0  0  0  0  0
   50.3767   96.5992   26.4771 H   0  0  0  0  0  0
   51.0878  105.6525   36.6445 H   0  0  0  0  0  0
   51.3782  101.3713   36.7493 H   0  0  0  0  0  0
   50.3836  103.4801   37.5848 H   0  0  0  0  0  0
   55.3562  102.7189   36.2297 H   0  0  0  0  0  0
   56.9842  103.1845   35.7148 H   0  0  0  0  0  0
  1  7  2  0  0  0
  2 25  1  0  0  0
  2 26  1  0  0  0
  3  7  1  0  0  0
  3  9  1  0  0  0
  3 27  1  0  0  0
  4 20  2  0  0  0
  4 21  1  0  0  0
  5  7  1  0  0  0
  5 10  2  0  0  0
  5 11  1  0  0  0
  6  8  1  0  0  0
  6 12  2  0  0  0
  6 13  1  0  0  0
  8 15  2  0  0  0
  8 16  1  0  0  0
  9 14  1  0  0  0
  9 17  1  0  0  0
  9 28  1  0  0  0
 10 12  1  0  0  0
 10 29  1  0  0  0
 11 13  2  0  0  0
 11 30  1  0  0  0
 12 31  1  0  0  0
 13 32  1  0  0  0
 14 18  2  0  0  0
 14 19  1  0  0  0
 15 20  1  0  0  0
 15 33  1  0  0  0
 16 21  2  0  0  0
 16 34  1  0  0  0
 17 25  1  0  0  0
 17 35  1  0  0  0
 17 36  1  0  0  0
 18 22  1  0  0  0
 18 37  1  0  0  0
 19 23  2  0  0  0
 19 38  1  0  0  0
 20 39  1  0  0  0
 21 40  1  0  0  0
 22 24  2  0  0  0
 22 41  1  0  0  0
 23 24  1  0  0  0
 23 42  1  0  0  0
 24 43  1  0  0  0
 25 44  1  0  0  0
 25 45  1  0  0  0
M  END
> <s_m_entry_id>
28302

> <s_m_entry_name>
dock_pv.463

> <s_m_Source_Path>
/home/csk/Desktop/cluster/DUD-E-result/rock1

> <s_m_Source_File>
dock_pv.maegz

> <i_m_Source_File_Index>
463

> <chembl_id>
CHEMBL1986143

> <chembl_pref_name>
None

> <i_lp_mmshare_version>
53161

> <r_lp_tautomer_probability>
1

> <s_lp_Force_Field>
OPLS_2005

> <r_lp_Energy>
15.322218

> <b_lp_Chiralities_Consistent>
1

> <s_lp_Variant>
CHEMBL3231_lig1817-2

> <s_i_glide_gridfile>
glide-grid_2etr

> <i_i_glide_lignum>
2613

> <i_i_glide_rotatable_bonds>
8

> <r_i_docking_score>
-7.43112966455874

> <r_i_glide_ligand_efficiency>
-0.297245186582349

> <r_i_glide_ligand_efficiency_sa>
-0.86915019723262

> <r_i_glide_ligand_efficiency_ln>
-1.76140042348625

> <r_i_glide_gscore>
-7.43112966455874

> <r_i_glide_lipo>
-2.34184844264772

> <r_i_glide_hbond>
-0.462206527942776

> <r_i_glide_metal>
0

> <r_i_glide_rewards>
-2.55108992398937

> <r_i_glide_evdw>
-37.1821327209473

> <r_i_glide_ecoul>
-7.80350971221924

> <r_i_glide_erotb>
1.02277610095143

> <r_i_glide_esite>
-0.0691277780500512

> <r_i_glide_emodel>
-64.4234693494703

> <r_i_glide_energy>
-44.9856424331665

> <r_i_glide_einternal>
5.91661071777344

> <i_i_glide_confnum>
10

> <i_i_glide_posenum>
317

> <r_i_glide_eff_state_penalty>
0

> <s_user_duplicate_titles>
CHEMBL3231_lig1817

> <i_f3d_flags>
0

> <s_m_subgroup_title>
dock_pv

> <s_m_subgroupid>
dock_pv

> <b_m_subgroup_collapsed>
1

$$$$
CHEMBL3231_lig1387
                    3D
 Schrodinger Suite 2021-1.
 21 23  0  0  1  0            999 V2000
   50.7592  101.9019   27.6758 S   0  0  0  0  0  0
   50.8750   97.9996   27.7657 N   0  0  0  0  0  0
   51.7519  102.0719   30.2246 N   0  0  0  0  0  0
   52.1695  100.0289   31.4830 N   0  0  0  0  0  0
   50.0432   98.4805   25.5262 N   0  0  0  0  0  0
   51.7551   97.9008   30.6276 N   0  0  0  0  0  0
   49.6124  100.6728   24.8110 N   0  0  0  0  0  0
   51.3601   99.8800   29.2200 C   0  0  0  0  0  0
   50.9295   99.3194   28.0005 C   0  0  0  0  0  0
   50.5422  100.2798   27.0303 C   0  0  0  0  0  0
   51.3632  101.2993   29.2063 C   0  0  0  0  0  0
   51.7682   99.2748   30.4298 C   0  0  0  0  0  0
   50.0729   99.8082   25.7935 C   0  0  0  0  0  0
   50.4444   97.6540   26.5220 C   0  0  0  0  0  0
   52.1547  101.3760   31.3201 C   0  0  0  0  0  0
   51.4685   97.3015   29.8670 H   0  0  0  0  0  0
   52.0665   97.5244   31.5110 H   0  0  0  0  0  0
   49.6088  101.6633   25.0004 H   0  0  0  0  0  0
   49.2707  100.3031   23.9287 H   0  0  0  0  0  0
   50.4430   96.6005   26.2956 H   0  0  0  0  0  0
   52.4993  101.9622   32.1598 H   0  0  0  0  0  0
  1 10  1  0  0  0
  1 11  1  0  0  0
  2  9  1  0  0  0
  2 14  2  0  0  0
  3 11  2  0  0  0
  3 15  1  0  0  0
  4 12  1  0  0  0
  4 15  2  0  0  0
  5 13  2  0  0  0
  5 14  1  0  0  0
  6 12  1  0  0  0
  6 16  1  0  0  0
  6 17  1  0  0  0
  7 13  1  0  0  0
  7 18  1  0  0  0
  7 19  1  0  0  0
  8  9  1  0  0  0
  8 11  1  0  0  0
  8 12  2  0  0  0
  9 10  2  0  0  0
 10 13  1  0  0  0
 14 20  1  0  0  0
 15 21  1  0  0  0
M  END
> <s_m_entry_id>
28303

> <s_m_entry_name>
dock_pv.464

> <s_m_Source_Path>
/home/csk/Desktop/cluster/DUD-E-result/rock1

> <s_m_Source_File>
dock_pv.maegz

> <i_m_Source_File_Index>
464

> <chembl_id>
CHEMBL1976090

> <chembl_pref_name>
None

> <i_lp_mmshare_version>
53161

> <r_lp_tautomer_probability>
1

> <s_lp_Force_Field>
OPLS_2005

> <r_lp_Energy>
3.093502

> <b_lp_Chiralities_Consistent>
1

> <s_lp_Variant>
CHEMBL3231_lig1387-1

> <s_i_glide_gridfile>
glide-grid_2etr

> <i_i_glide_lignum>
1942

> <i_i_glide_rotatable_bonds>
0

> <r_i_docking_score>
-7.42736124719478

> <r_i_glide_ligand_efficiency>
-0.495157416479652

> <r_i_glide_ligand_efficiency_sa>
-1.22116319811408

> <r_i_glide_ligand_efficiency_ln>
-2.00303686422234

> <r_i_glide_gscore>
-7.42736124719478

> <r_i_glide_lipo>
-1.53159483478367

> <r_i_glide_hbond>
-0.32

> <r_i_glide_metal>
0

> <r_i_glide_rewards>
-3.47109472727273

> <r_i_glide_evdw>
-29.5277271270752

> <r_i_glide_ecoul>
-4.07098150253296

> <r_i_glide_erotb>
0

> <r_i_glide_esite>
-0.0176381034046716

> <r_i_glide_emodel>
-48.5674572576956

> <r_i_glide_energy>
-33.5987086296082

> <r_i_glide_einternal>
0

> <i_i_glide_confnum>
1

> <i_i_glide_posenum>
329

> <r_i_glide_eff_state_penalty>
0

> <s_user_duplicate_titles>
CHEMBL3231_lig1387

> <i_f3d_flags>
0

> <s_m_subgroup_title>
dock_pv

> <s_m_subgroupid>
dock_pv

> <b_m_subgroup_collapsed>
1

$$$$
CHEMBL3231_lig1732
                    3D
 Schrodinger Suite 2021-1.
 28 30  0  0  1  0            999 V2000
   51.8097  103.5942   31.2056 O   0  0  0  0  0  0
   51.7255  100.7420   29.5882 N   0  0  0  0  0  0
   51.7114   98.5613   30.0632 N   0  0  0  0  0  0
   54.0421  103.5031   31.5106 N   0  0  0  0  0  0
   50.0428   98.6976   25.1532 N   0  0  0  0  0  0
   52.2586  100.5429   30.8384 C   0  0  0  0  0  0
   52.2635   99.1628   31.1660 C   0  0  0  0  0  0
   51.4454   99.5454   29.1347 C   0  0  0  0  0  0
   52.7848  101.4845   31.7426 C   0  0  0  0  0  0
   50.9207   99.2700   27.7624 C   0  0  0  0  0  0
   52.7677   98.6738   32.3717 C   0  0  0  0  0  0
   53.3035  100.9841   32.9485 C   0  0  0  0  0  0
   52.8289  102.9572   31.4689 C   0  0  0  0  0  0
   53.2907   99.6220   33.2520 C   0  0  0  0  0  0
   50.5111  100.3003   26.9013 C   0  0  0  0  0  0
   50.8626   97.9527   27.2960 C   0  0  0  0  0  0
   50.0745   99.9723   25.6152 C   0  0  0  0  0  0
   50.4422   97.7112   25.9932 C   0  0  0  0  0  0
   51.5542   97.5788   29.8999 H   0  0  0  0  0  0
   54.8547  102.9155   31.6156 H   0  0  0  0  0  0
   54.1704  104.4914   31.3345 H   0  0  0  0  0  0
   52.7773   97.6184   32.6058 H   0  0  0  0  0  0
   53.7291  101.6626   33.6760 H   0  0  0  0  0  0
   53.7092   99.2920   34.1925 H   0  0  0  0  0  0
   50.5381  101.3322   27.2195 H   0  0  0  0  0  0
   51.1699   97.1271   27.9161 H   0  0  0  0  0  0
   49.7491  100.7358   24.9239 H   0  0  0  0  0  0
   50.4430   96.7030   25.6110 H   0  0  0  0  0  0
  1 13  2  0  0  0
  2  6  1  0  0  0
  2  8  2  0  0  0
  3  7  1  0  0  0
  3  8  1  0  0  0
  3 19  1  0  0  0
  4 13  1  0  0  0
  4 20  1  0  0  0
  4 21  1  0  0  0
  5 17  2  0  0  0
  5 18  1  0  0  0
  6  7  2  0  0  0
  6  9  1  0  0  0
  7 11  1  0  0  0
  8 10  1  0  0  0
  9 12  2  0  0  0
  9 13  1  0  0  0
 10 15  2  0  0  0
 10 16  1  0  0  0
 11 14  2  0  0  0
 11 22  1  0  0  0
 12 14  1  0  0  0
 12 23  1  0  0  0
 14 24  1  0  0  0
 15 17  1  0  0  0
 15 25  1  0  0  0
 16 18  2  0  0  0
 16 26  1  0  0  0
 17 27  1  0  0  0
 18 28  1  0  0  0
M  END
> <s_m_entry_id>
28304

> <s_m_entry_name>
dock_pv.465

> <s_m_Source_Path>
/home/csk/Desktop/cluster/DUD-E-result/rock1

> <s_m_Source_File>
dock_pv.maegz

> <i_m_Source_File_Index>
465

> <chembl_id>
CHEMBL1990482

> <chembl_pref_name>
None

> <i_lp_mmshare_version>
53161

> <r_lp_tautomer_probability>
1

> <s_lp_Force_Field>
OPLS_2005

> <r_lp_Energy>
9.294117

> <b_lp_Chiralities_Consistent>
1

> <s_lp_Variant>
CHEMBL3231_lig1732-1

> <s_i_glide_gridfile>
glide-grid_2etr

> <i_i_glide_lignum>
2468

> <i_i_glide_rotatable_bonds>
2

> <r_i_docking_score>
-7.42591304605442

> <r_i_glide_ligand_efficiency>
-0.412550724780801

> <r_i_glide_ligand_efficiency_sa>
-1.08118876060225

> <r_i_glide_ligand_efficiency_ln>
-1.90879265740665

> <r_i_glide_gscore>
-7.42591304605442

> <r_i_glide_lipo>
-1.67106435516014

> <r_i_glide_hbond>
-0.300588862322113

> <r_i_glide_metal>
0

> <r_i_glide_rewards>
-2.99203195050744

> <r_i_glide_evdw>
-32.4172973632812

> <r_i_glide_ecoul>
-7.05537891387939

> <r_i_glide_erotb>
0.304026777291942

> <r_i_glide_esite>
-0.0870829501106947

> <r_i_glide_emodel>
-55.6417603057823

> <r_i_glide_energy>
-39.4726762771606

> <r_i_glide_einternal>
5.5044994354248

> <i_i_glide_confnum>
2

> <i_i_glide_posenum>
183

> <r_i_glide_eff_state_penalty>
0

> <s_user_duplicate_titles>
CHEMBL3231_lig1732

> <i_f3d_flags>
0

> <s_m_subgroup_title>
dock_pv

> <s_m_subgroupid>
dock_pv

> <b_m_subgroup_collapsed>
1

$$$$
CHEMBL3231_lig1182
                    3D
 Schrodinger Suite 2021-1.
 44 47  0  0  1  0            999 V2000
   58.6897   98.2663   36.4007 Cl  0  0  0  0  0  0
   54.2814  100.7155   30.6431 F   0  0  0  0  0  0
   52.4431   97.5033   36.4586 O   0  0  0  0  0  0
   53.4448   98.4041   33.7590 N   0  0  0  0  0  0
   55.2548   98.7225   32.4995 N   0  0  0  0  0  0
   53.6430   98.3510   38.1342 N   0  0  0  0  0  0
   50.3862   98.1780   25.4028 N   0  0  2  0  0  0
   54.5701   98.3487   34.5551 C   0  0  0  0  0  0
   55.7356   98.5436   33.7705 C   0  0  0  0  0  0
   53.8869   98.6392   32.5474 C   0  0  0  0  0  0
   54.6880   98.1483   35.9504 C   0  0  0  0  0  0
   53.0406   98.7917   31.3330 C   0  0  0  0  0  0
   57.0228   98.5336   34.3043 C   0  0  0  0  0  0
   53.3029   99.8136   30.4125 C   0  0  0  0  0  0
   55.9962   98.1275   36.4719 C   0  0  0  0  0  0
   57.1251   98.3129   35.6743 C   0  0  0  0  0  0
   53.5079   97.9559   36.8672 C   0  0  0  0  0  0
   51.9931   97.9029   31.0794 C   0  0  0  0  0  0
   51.5158   99.0215   28.9745 C   0  0  0  0  0  0
   52.5525   99.9206   29.2449 C   0  0  0  0  0  0
   51.2409   98.0149   29.9106 C   0  0  0  0  0  0
   50.6954   99.1041   27.6801 C   0  0  2  0  0  0
   51.2111   98.1215   26.6094 C   0  0  0  0  0  0
   50.4822  100.5410   27.1305 C   0  0  0  0  0  0
   49.7732  100.5082   25.7649 C   0  0  0  0  0  0
   50.4423   99.5114   24.8116 C   0  0  0  0  0  0
   55.7916   98.8693   31.6512 H   0  0  0  0  0  0
   54.5013   98.7580   38.4702 H   0  0  0  0  0  0
   52.8211   98.3021   38.7275 H   0  0  0  0  0  0
   49.4319   98.0350   25.7016 H   0  0  0  0  0  0
   57.8970   98.6797   33.6859 H   0  0  0  0  0  0
   56.1640   97.9534   37.5250 H   0  0  0  0  0  0
   51.7832   97.1031   31.7741 H   0  0  0  0  0  0
   52.8137  100.7096   28.5574 H   0  0  0  0  0  0
   50.4488   97.3022   29.7300 H   0  0  0  0  0  0
   49.7280   98.7165   28.0025 H   0  0  0  0  0  0
   52.2368   98.3658   26.3369 H   0  0  0  0  0  0
   51.2004   97.1031   26.9929 H   0  0  0  0  0  0
   49.8719  101.1240   27.8216 H   0  0  0  0  0  0
   51.4299  101.0559   26.9813 H   0  0  0  0  0  0
   48.7280  100.2379   25.8775 H   0  0  0  0  0  0
   49.7749  101.5029   25.3222 H   0  0  0  0  0  0
   49.9601   99.5052   23.8377 H   0  0  0  0  0  0
   51.4821   99.8002   24.6520 H   0  0  0  0  0  0
  1 16  1  0  0  0
  2 14  1  0  0  0
  3 17  2  0  0  0
  4  8  1  0  0  0
  4 10  2  0  0  0
  5  9  1  0  0  0
  5 10  1  0  0  0
  5 27  1  0  0  0
  6 17  1  0  0  0
  6 28  1  0  0  0
  6 29  1  0  0  0
  7 23  1  0  0  0
  7 26  1  0  0  0
  7 30  1  0  0  0
  8  9  2  0  0  0
  8 11  1  0  0  0
  9 13  1  0  0  0
 10 12  1  0  0  0
 11 15  2  0  0  0
 11 17  1  0  0  0
 12 14  1  0  0  0
 12 18  2  0  0  0
 13 16  2  0  0  0
 13 31  1  0  0  0
 14 20  2  0  0  0
 15 16  1  0  0  0
 15 32  1  0  0  0
 18 21  1  0  0  0
 18 33  1  0  0  0
 19 20  1  0  0  0
 19 21  2  0  0  0
 19 22  1  0  0  0
 20 34  1  0  0  0
 21 35  1  0  0  0
 22 23  1  0  0  0
 22 24  1  0  0  0
 22 36  1  0  0  0
 23 37  1  0  0  0
 23 38  1  0  0  0
 24 25  1  0  0  0
 24 39  1  0  0  0
 24 40  1  0  0  0
 25 26  1  0  0  0
 25 41  1  0  0  0
 25 42  1  0  0  0
 26 43  1  0  0  0
 26 44  1  0  0  0
M  END
> <s_m_entry_id>
28305

> <s_m_entry_name>
dock_pv.466

> <s_m_Source_Path>
/home/csk/Desktop/cluster/DUD-E-result/rock1

> <s_m_Source_File>
dock_pv.maegz

> <i_m_Source_File_Index>
466

> <chembl_id>
CHEMBL1984788

> <chembl_pref_name>
None

> <i_lp_mmshare_version>
53161

> <r_lp_tautomer_probability>
1

> <s_lp_Force_Field>
OPLS_2005

> <r_lp_Energy>
30.271992

> <b_lp_Chiralities_Consistent>
1

> <s_lp_Variant>
CHEMBL3231_lig1182-1

> <s_i_glide_gridfile>
glide-grid_2etr

> <i_i_glide_lignum>
1636

> <i_i_glide_rotatable_bonds>
3

> <r_i_docking_score>
-7.42538844282472

> <r_i_glide_ligand_efficiency>
-0.285591863185566

> <r_i_glide_ligand_efficiency_sa>
-0.846064770937522

> <r_i_glide_ligand_efficiency_ln>
-1.74382811111063

> <r_i_glide_gscore>
-7.42538844282472

> <r_i_glide_lipo>
-2.14415448652306

> <r_i_glide_hbond>
-0.753163774531631

> <r_i_glide_metal>
0

> <r_i_glide_rewards>
-1.65223697256192

> <r_i_glide_evdw>
-31.980260848999

> <r_i_glide_ecoul>
-9.31165218353271

> <r_i_glide_erotb>
0.277967294110672

> <r_i_glide_esite>
-0.158039633338928

> <r_i_glide_emodel>
-58.8005774775243

> <r_i_glide_energy>
-41.2919130325317

> <r_i_glide_einternal>
3.14755201339722

> <i_i_glide_confnum>
30

> <i_i_glide_posenum>
107

> <r_i_glide_eff_state_penalty>
0

> <s_user_duplicate_titles>
CHEMBL3231_lig1182

> <i_f3d_flags>
0

> <s_m_subgroup_title>
dock_pv

> <s_m_subgroupid>
dock_pv

> <b_m_subgroup_collapsed>
1

$$$$
CHEMBL3231_lig1584
                    3D
 Schrodinger Suite 2021-1.
 30 32  0  0  1  0            999 V2000
   50.0411   98.4000   25.0067 O   0  0  0  0  0  0
   53.4106  103.3574   30.1214 N   0  0  0  0  0  0
   53.6680  104.3029   32.3309 N   0  0  0  0  0  0
   52.1908  101.2224   30.0820 C   0  0  0  0  0  0
   52.5692  102.3455   32.1949 C   0  0  0  0  0  0
   53.2389  103.3478   31.4441 C   0  0  0  0  0  0
   51.6438  100.0881   29.2734 C   0  0  0  0  0  0
   52.0420  101.2606   31.4806 C   0  0  0  0  0  0
   52.8805  102.2858   29.4774 C   0  0  0  0  0  0
   51.2574  100.2631   27.9319 C   0  0  0  0  0  0
   52.6162  102.7494   33.5705 C   0  0  0  0  0  0
   50.7743   99.1938   27.1578 C   0  0  0  0  0  0
   51.5036   98.8111   29.8356 C   0  0  0  0  0  0
   53.2989  103.9521   33.6060 C   0  0  0  0  0  0
   50.6256   97.9432   27.7655 C   0  0  0  0  0  0
   50.9693   97.7595   29.0999 C   0  0  0  0  0  0
   50.4359   99.3336   25.7074 C   0  0  0  0  0  0
   50.6005  100.7026   25.0639 C   0  0  0  0  0  0
   54.1826  105.1495   32.1151 H   0  0  0  0  0  0
   51.5194  100.4775   32.0098 H   0  0  0  0  0  0
   53.0569  102.2995   28.4116 H   0  0  0  0  0  0
   51.3475  101.2444   27.4893 H   0  0  0  0  0  0
   52.2144  102.2337   34.4289 H   0  0  0  0  0  0
   51.8061   98.6123   30.8530 H   0  0  0  0  0  0
   53.5579  104.5988   34.4326 H   0  0  0  0  0  0
   50.2457   97.1032   27.2039 H   0  0  0  0  0  0
   50.8579   96.7863   29.5570 H   0  0  0  0  0  0
   51.6400  101.0275   25.1223 H   0  0  0  0  0  0
   49.9877  101.4383   25.5843 H   0  0  0  0  0  0
   50.2954  100.6794   24.0149 H   0  0  0  0  0  0
  1 17  2  0  0  0
  2  6  2  0  0  0
  2  9  1  0  0  0
  3  6  1  0  0  0
  3 14  1  0  0  0
  3 19  1  0  0  0
  4  7  1  0  0  0
  4  8  1  0  0  0
  4  9  2  0  0  0
  5  6  1  0  0  0
  5  8  2  0  0  0
  5 11  1  0  0  0
  7 10  2  0  0  0
  7 13  1  0  0  0
  8 20  1  0  0  0
  9 21  1  0  0  0
 10 12  1  0  0  0
 10 22  1  0  0  0
 11 14  2  0  0  0
 11 23  1  0  0  0
 12 15  2  0  0  0
 12 17  1  0  0  0
 13 16  2  0  0  0
 13 24  1  0  0  0
 14 25  1  0  0  0
 15 16  1  0  0  0
 15 26  1  0  0  0
 16 27  1  0  0  0
 17 18  1  0  0  0
 18 28  1  0  0  0
 18 29  1  0  0  0
 18 30  1  0  0  0
M  END
> <s_m_entry_id>
28306

> <s_m_entry_name>
dock_pv.467

> <s_m_Source_Path>
/home/csk/Desktop/cluster/DUD-E-result/rock1

> <s_m_Source_File>
dock_pv.maegz

> <i_m_Source_File_Index>
467

> <chembl_id>
CHEMBL2000568

> <chembl_pref_name>
None

> <i_lp_mmshare_version>
53161

> <r_lp_tautomer_probability>
0.999948432606831

> <s_lp_Force_Field>
OPLS_2005

> <r_lp_Energy>
16.517045

> <b_lp_Chiralities_Consistent>
1

> <s_lp_Variant>
CHEMBL3231_lig1584-1

> <s_i_glide_gridfile>
glide-grid_2etr

> <i_i_glide_lignum>
2244

> <i_i_glide_rotatable_bonds>
2

> <r_i_docking_score>
-7.42518219203585

> <r_i_glide_ligand_efficiency>
-0.41251012177977

> <r_i_glide_ligand_efficiency_sa>
-1.08108235063682

> <r_i_glide_ligand_efficiency_ln>
-1.90860479514977

> <r_i_glide_gscore>
-7.42518219203585

> <r_i_glide_lipo>
-1.76885516862503

> <r_i_glide_hbond>
-0.469406077348712

> <r_i_glide_metal>
0

> <r_i_glide_rewards>
-3.13150210606061

> <r_i_glide_evdw>
-30.8535079956055

> <r_i_glide_ecoul>
-4.69830179214478

> <r_i_glide_erotb>
0.308371208856827

> <r_i_glide_esite>
-0.116369380256339

> <r_i_glide_emodel>
-52.0247698714709

> <r_i_glide_energy>
-35.5518097877502

> <r_i_glide_einternal>
0.232887163758278

> <i_i_glide_confnum>
4

> <i_i_glide_posenum>
358

> <r_i_glide_eff_state_penalty>
0

> <s_user_duplicate_titles>
CHEMBL3231_lig1584

> <i_f3d_flags>
0

> <s_m_subgroup_title>
dock_pv

> <s_m_subgroupid>
dock_pv

> <b_m_subgroup_collapsed>
1

$$$$
CHEMBL3231_lig402
                    3D
 Schrodinger Suite 2021-1.
 49 51  0  0  1  0            999 V2000
   53.8082  103.6089   32.9911 N   0  0  0  0  0  0
   52.9174  103.2854   32.0052 C   0  0  0  0  0  0
   51.8601  103.9029   31.8341 O   0  0  0  0  0  0
   53.2563  102.2204   31.2424 N   0  0  0  0  0  0
   55.0176  102.8072   33.3104 C   0  0  0  0  0  0
   54.7761  101.6536   34.2803 C   0  0  0  0  0  0
   54.9221  100.3303   33.8466 C   0  0  0  0  0  0
   54.6779   99.2566   34.7222 C   0  0  0  0  0  0
   54.2888   99.5308   36.0339 C   0  0  0  0  0  0
   54.1795  100.8445   36.4832 C   0  0  0  0  0  0
   54.4334  101.9025   35.6127 C   0  0  0  0  0  0
   54.7945   97.9247   34.3811 O   0  0  0  0  0  0
   55.4370   97.5830   33.1574 C   0  0  0  0  0  0
   53.4748  104.6836   33.9530 C   0  0  0  0  0  0
   54.6087  105.6873   34.2265 C   0  0  0  0  0  0
   54.0742  106.8508   34.8110 O   0  0  0  0  0  0
   52.5495  101.6763   30.1577 C   0  0  0  0  0  0
   52.6825  100.3049   29.9385 C   0  0  0  0  0  0
   52.0427   99.7057   28.8554 C   0  0  0  0  0  0
   51.2865  100.4765   27.9666 C   0  0  0  0  0  0
   51.1406  101.8472   28.2016 C   0  0  0  0  0  0
   51.7767  102.4496   29.2820 C   0  0  0  0  0  0
   49.6903   99.5242   24.8109 N   0  0  0  0  0  0
   50.0431   98.3032   25.2119 N   0  0  0  0  0  0
   50.6153   98.5025   26.3761 C   0  0  0  0  0  0
   50.6742   99.8583   26.7523 C   0  0  0  0  0  0
   50.0435  100.5006   25.6959 C   0  0  0  0  0  0
   54.0948  101.7244   31.5018 H   0  0  0  0  0  0
   55.8040  103.4379   33.7211 H   0  0  0  0  0  0
   55.4587  102.4098   32.3939 H   0  0  0  0  0  0
   55.2211  100.1420   32.8267 H   0  0  0  0  0  0
   54.0980   98.7155   36.7151 H   0  0  0  0  0  0
   53.9031  101.0439   37.5085 H   0  0  0  0  0  0
   54.3643  102.9131   35.9868 H   0  0  0  0  0  0
   55.5350   96.5011   33.0871 H   0  0  0  0  0  0
   54.8679   97.9213   32.2897 H   0  0  0  0  0  0
   56.4423   98.0069   33.1160 H   0  0  0  0  0  0
   52.6094  105.2514   33.6095 H   0  0  0  0  0  0
   53.1560  104.2221   34.8849 H   0  0  0  0  0  0
   55.4169  105.2587   34.8172 H   0  0  0  0  0  0
   55.0568  105.9908   33.2783 H   0  0  0  0  0  0
   53.5153  107.2692   34.1374 H   0  0  0  0  0  0
   53.2834   99.6977   30.6011 H   0  0  0  0  0  0
   52.1663   98.6451   28.7006 H   0  0  0  0  0  0
   50.5624  102.4641   27.5294 H   0  0  0  0  0  0
   51.6872  103.5178   29.4102 H   0  0  0  0  0  0
   49.2361   99.6897   23.9166 H   0  0  0  0  0  0
   51.0083   97.6711   26.9419 H   0  0  0  0  0  0
   49.8299  101.5397   25.4923 H   0  0  0  0  0  0
  1  2  1  0  0  0
  1  5  1  0  0  0
  1 14  1  0  0  0
  2  3  2  0  0  0
  2  4  1  0  0  0
  4 17  1  0  0  0
  4 28  1  0  0  0
  5  6  1  0  0  0
  5 29  1  0  0  0
  5 30  1  0  0  0
  6  7  1  0  0  0
  6 11  2  0  0  0
  7  8  2  0  0  0
  7 31  1  0  0  0
  8  9  1  0  0  0
  8 12  1  0  0  0
  9 10  2  0  0  0
  9 32  1  0  0  0
 10 11  1  0  0  0
 10 33  1  0  0  0
 11 34  1  0  0  0
 12 13  1  0  0  0
 13 35  1  0  0  0
 13 36  1  0  0  0
 13 37  1  0  0  0
 14 15  1  0  0  0
 14 38  1  0  0  0
 14 39  1  0  0  0
 15 16  1  0  0  0
 15 40  1  0  0  0
 15 41  1  0  0  0
 16 42  1  0  0  0
 17 18  1  0  0  0
 17 22  2  0  0  0
 18 19  2  0  0  0
 18 43  1  0  0  0
 19 20  1  0  0  0
 19 44  1  0  0  0
 20 21  2  0  0  0
 20 26  1  0  0  0
 21 22  1  0  0  0
 21 45  1  0  0  0
 22 46  1  0  0  0
 23 24  1  0  0  0
 23 27  1  0  0  0
 23 47  1  0  0  0
 24 25  2  0  0  0
 25 26  1  0  0  0
 25 48  1  0  0  0
 26 27  2  0  0  0
 27 49  1  0  0  0
M  END
> <s_m_entry_id>
28307

> <s_m_entry_name>
dock_pv.468

> <s_m_Source_Path>
/home/csk/Desktop/cluster/DUD-E-result/rock1

> <s_m_Source_File>
dock_pv.maegz

> <i_m_Source_File_Index>
468

> <chembl_id>
CHEMBL2332065

> <chembl_pref_name>
None

> <i_lp_mmshare_version>
53161

> <r_lp_tautomer_probability>
0.5

> <s_lp_Force_Field>
OPLS_2005

> <r_lp_Energy>
34.713494

> <b_lp_Chiralities_Consistent>
1

> <s_lp_Variant>
CHEMBL3231_lig402-1

> <s_i_glide_gridfile>
glide-grid_2etr

> <i_i_glide_lignum>
564

> <i_i_glide_rotatable_bonds>
10

> <r_i_docking_score>
-7.42510441353808

> <r_i_glide_ligand_efficiency>
-0.275003867168077

> <r_i_glide_ligand_efficiency_sa>
-0.825011600597863

> <r_i_glide_ligand_efficiency_ln>
-1.72844189505836

> <r_i_glide_gscore>
-7.42510441353808

> <r_i_glide_lipo>
-1.87434771124544

> <r_i_glide_hbond>
-0.755602934194785

> <r_i_glide_metal>
0

> <r_i_glide_rewards>
-1.81561279408646

> <r_i_glide_evdw>
-38.4550933837891

> <r_i_glide_ecoul>
-11.7342386245728

> <r_i_glide_erotb>
0.802807002320185

> <r_i_glide_esite>
-0.0994575134562193

> <r_i_glide_emodel>
-68.8712850148779

> <r_i_glide_energy>
-50.1893320083618

> <r_i_glide_einternal>
11.3459186553955

> <i_i_glide_confnum>
87

> <i_i_glide_posenum>
173

> <r_i_glide_eff_state_penalty>
0

> <s_user_duplicate_titles>
CHEMBL3231_lig402

> <i_f3d_flags>
0

> <s_m_subgroup_title>
dock_pv

> <s_m_subgroupid>
dock_pv

> <b_m_subgroup_collapsed>
1

$$$$
CHEMBL3231_lig466
                    3D
 Schrodinger Suite 2021-1.
 40 43  0  0  1  0            999 V2000
   54.0837  101.5462   32.0596 N   0  0  0  0  0  0
   54.2212  101.9245   33.4750 C   0  0  0  0  0  0
   53.7295  103.3055   33.9572 C   0  0  0  0  0  0
   54.0427  102.6542   31.0905 C   0  0  0  0  0  0
   52.3405  103.7265   33.4516 C   0  0  0  0  0  0
   52.7457  103.4813   30.9836 C   0  0  0  0  0  0
   52.3403  104.3028   32.1170 N   0  0  2  0  0  0
   50.4090   97.8123   27.0136 C   0  0  0  0  0  0
   50.9217   97.9025   28.3051 C   0  0  0  0  0  0
   51.5328   99.0655   28.7997 C   0  0  0  0  0  0
   51.5547  100.2063   27.9752 C   0  0  0  0  0  0
   49.9949   99.0400   24.9122 N   0  0  0  0  0  0
   50.4500   98.9380   26.1949 C   0  0  0  0  0  0
   51.0101  100.1509   26.6856 C   0  0  0  0  0  0
   50.8467  101.0538   25.6110 C   0  0  0  0  0  0
   50.2374  100.3227   24.6187 N   0  0  0  0  0  0
   52.1701   99.0883   30.1626 C   0  0  0  0  0  0
   52.7949  100.2427   30.5296 N   0  0  0  0  0  0
   53.4217  100.3366   31.7388 C   0  0  0  0  0  0
   53.4510   99.2053   32.5688 C   0  0  0  0  0  0
   52.8395   98.0416   32.2343 N   0  0  0  0  0  0
   52.1924   97.9957   31.0434 C   0  0  0  0  0  0
   53.9483  101.1439   34.1815 H   0  0  0  0  0  0
   55.3062  101.9859   33.5812 H   0  0  0  0  0  0
   53.7108  103.2886   35.0469 H   0  0  0  0  0  0
   54.4762  104.0555   33.6908 H   0  0  0  0  0  0
   54.8861  103.3092   31.3124 H   0  0  0  0  0  0
   54.3313  102.3025   30.0991 H   0  0  0  0  0  0
   51.6744  102.8618   33.4393 H   0  0  0  0  0  0
   51.9091  104.4468   34.1472 H   0  0  0  0  0  0
   52.7661  104.0613   30.0616 H   0  0  0  0  0  0
   51.9315  102.7739   30.8238 H   0  0  0  0  0  0
   52.8231  105.2048   32.1206 H   0  0  0  0  0  0
   49.9816   96.8882   26.6561 H   0  0  0  0  0  0
   50.8514   97.0153   28.9133 H   0  0  0  0  0  0
   52.0016  101.1281   28.3161 H   0  0  0  0  0  0
   49.9714  100.7025   23.7189 H   0  0  0  0  0  0
   51.0998  102.0920   25.4667 H   0  0  0  0  0  0
   53.9940   99.1850   33.5001 H   0  0  0  0  0  0
   51.7298   97.0478   30.8179 H   0  0  0  0  0  0
  1  2  1  0  0  0
  1  4  1  0  0  0
  1 19  1  0  0  0
  2  3  1  0  0  0
  2 23  1  0  0  0
  2 24  1  0  0  0
  3  5  1  0  0  0
  3 25  1  0  0  0
  3 26  1  0  0  0
  4  6  1  0  0  0
  4 27  1  0  0  0
  4 28  1  0  0  0
  5  7  1  0  0  0
  5 29  1  0  0  0
  5 30  1  0  0  0
  6  7  1  0  0  0
  6 31  1  0  0  0
  6 32  1  0  0  0
  7 33  1  0  0  0
  8 13  1  0  0  0
  8 34  1  0  0  0
  8  9  2  0  0  0
  9 35  1  0  0  0
  9 10  1  0  0  0
 10 17  1  0  0  0
 10 11  2  0  0  0
 11 36  1  0  0  0
 11 14  1  0  0  0
 12 16  1  0  0  0
 12 13  2  0  0  0
 13 14  1  0  0  0
 14 15  2  0  0  0
 15 16  1  0  0  0
 15 38  1  0  0  0
 16 37  1  0  0  0
 17 18  2  0  0  0
 17 22  1  0  0  0
 18 19  1  0  0  0
 19 20  2  0  0  0
 20 21  1  0  0  0
 20 39  1  0  0  0
 21 22  2  0  0  0
 22 40  1  0  0  0
M  END
> <s_m_entry_id>
28308

> <s_m_entry_name>
dock_pv.469

> <s_m_Source_Path>
/home/csk/Desktop/cluster/DUD-E-result/rock1

> <s_m_Source_File>
dock_pv.maegz

> <i_m_Source_File_Index>
469

> <chembl_id>
CHEMBL3238167

> <chembl_pref_name>
None

> <i_lp_mmshare_version>
53161

> <r_lp_tautomer_probability>
0.0196078431372549

> <s_lp_Force_Field>
OPLS_2005

> <r_lp_Energy>
56.482872

> <b_lp_Chiralities_Consistent>
1

> <s_lp_Variant>
CHEMBL3231_lig466-2

> <s_i_glide_gridfile>
glide-grid_2etr

> <i_i_glide_lignum>
657

> <i_i_glide_rotatable_bonds>
2

> <r_i_docking_score>
-7.42374353453285

> <r_i_glide_ligand_efficiency>
-0.337442887933311

> <r_i_glide_ligand_efficiency_sa>
-0.945528242864853

> <r_i_glide_ligand_efficiency_ln>
-1.81463370746464

> <r_i_glide_gscore>
-7.42374353453285

> <r_i_glide_lipo>
-2.19110623693163

> <r_i_glide_hbond>
-0.197670467460481

> <r_i_glide_metal>
0

> <r_i_glide_rewards>
-2.6437963030303

> <r_i_glide_evdw>
-36.6847381591797

> <r_i_glide_ecoul>
-6.31609678268433

> <r_i_glide_erotb>
0.422123046020535

> <r_i_glide_esite>
-0.031642147769336

> <r_i_glide_emodel>
-61.8065275444263

> <r_i_glide_energy>
-43.000834941864

> <r_i_glide_einternal>
0.52907931804657

> <i_i_glide_confnum>
26

> <i_i_glide_posenum>
318

> <r_i_glide_eff_state_penalty>
0

> <s_user_duplicate_titles>
CHEMBL3231_lig466,CHEMBL3231_lig466

> <i_f3d_flags>
0

> <s_m_subgroup_title>
dock_pv

> <s_m_subgroupid>
dock_pv

> <b_m_subgroup_collapsed>
1

$$$$
CHEMBL3231_lig47
                    3D
 Schrodinger Suite 2021-1.
 47 50  0  0  1  0            999 V2000
   52.7827   99.2611   33.6090 C   0  0  1  0  0  0
   53.1355   99.1042   32.1236 C   0  0  0  0  0  0
   54.4344   99.2753   31.7595 C   0  0  0  0  0  0
   55.4378   99.5292   32.6496 N   0  0  0  0  0  0
   55.3369   99.5031   33.9966 C   0  0  0  0  0  0
   54.0073   98.8886   34.4997 C   0  0  0  0  0  0
   56.2385   99.8695   34.7420 O   0  0  0  0  0  0
   54.9597   99.1022   30.3435 C   0  0  0  0  0  0
   52.0648   98.7985   31.1856 C   0  0  0  0  0  0
   51.2446   97.9033   31.3814 O   0  0  0  0  0  0
   52.0682   99.5769   30.0859 N   0  0  0  0  0  0
   51.3843   99.3796   28.8761 C   0  0  0  0  0  0
   51.0512   98.1002   28.4120 C   0  0  0  0  0  0
   50.4829   97.9013   27.1593 C   0  0  0  0  0  0
   51.1189  100.5081   28.0928 C   0  0  0  0  0  0
   50.5362  100.3264   26.8304 C   0  0  0  0  0  0
   50.2290   99.0136   26.3604 C   0  0  0  0  0  0
   49.6923   99.0080   25.1085 N   0  0  0  0  0  0
   49.6426  100.3101   24.8087 N   0  0  0  0  0  0
   50.1260  101.1617   25.7682 C   0  0  0  0  0  0
   52.1426  100.6024   33.9979 C   0  0  0  0  0  0
   51.0171  100.6198   34.8262 C   0  0  0  0  0  0
   50.4500  101.8290   35.2209 C   0  0  0  0  0  0
   51.0063  103.0392   34.7934 C   0  0  0  0  0  0
   52.1281  103.0242   33.9550 C   0  0  0  0  0  0
   52.6930  101.8123   33.5609 C   0  0  0  0  0  0
   50.3910  104.3592   35.2585 C   0  0  0  0  0  0
   50.7612  104.5977   36.5175 F   0  0  0  0  0  0
   49.0577  104.2973   35.2116 F   0  0  0  0  0  0
   50.7813  105.3866   34.4992 F   0  0  0  0  0  0
   51.4327  101.7533   28.5265 F   0  0  0  0  0  0
   52.0430   98.5070   33.8504 H   0  0  0  0  0  0
   56.3669   99.7418   32.3091 H   0  0  0  0  0  0
   53.8519   99.1148   35.5561 H   0  0  0  0  0  0
   54.2073   97.8194   34.4037 H   0  0  0  0  0  0
   54.6149   99.9030   29.6970 H   0  0  0  0  0  0
   56.0430   99.1079   30.2932 H   0  0  0  0  0  0
   54.6252   98.1551   29.9221 H   0  0  0  0  0  0
   52.6794  100.3794   30.1098 H   0  0  0  0  0  0
   51.2443   97.2244   29.0124 H   0  0  0  0  0  0
   50.2560   96.9055   26.8096 H   0  0  0  0  0  0
   49.2729  100.6122   23.9137 H   0  0  0  0  0  0
   50.1263  102.2305   25.6121 H   0  0  0  0  0  0
   50.5858   99.6979   35.1829 H   0  0  0  0  0  0
   49.5883  101.8204   35.8725 H   0  0  0  0  0  0
   52.5826  103.9467   33.6196 H   0  0  0  0  0  0
   53.5700  101.8192   32.9301 H   0  0  0  0  0  0
  1  6  1  0  0  0
  1 21  1  0  0  0
  1  2  1  0  0  0
  1 32  1  0  0  0
  2  9  1  0  0  0
  2  3  2  0  0  0
  3  8  1  0  0  0
  3  4  1  0  0  0
  4  5  1  0  0  0
  4 33  1  0  0  0
  5  6  1  0  0  0
  5  7  2  0  0  0
  6 34  1  0  0  0
  6 35  1  0  0  0
  8 36  1  0  0  0
  8 37  1  0  0  0
  8 38  1  0  0  0
  9 10  2  0  0  0
  9 11  1  0  0  0
 11 39  1  0  0  0
 11 12  1  0  0  0
 12 13  1  0  0  0
 12 15  2  0  0  0
 13 14  2  0  0  0
 13 40  1  0  0  0
 14 17  1  0  0  0
 14 41  1  0  0  0
 15 31  1  0  0  0
 15 16  1  0  0  0
 16 17  1  0  0  0
 16 20  2  0  0  0
 17 18  2  0  0  0
 18 19  1  0  0  0
 19 42  1  0  0  0
 19 20  1  0  0  0
 20 43  1  0  0  0
 21 22  2  0  0  0
 21 26  1  0  0  0
 22 23  1  0  0  0
 22 44  1  0  0  0
 23 24  2  0  0  0
 23 45  1  0  0  0
 24 25  1  0  0  0
 24 27  1  0  0  0
 25 26  2  0  0  0
 25 46  1  0  0  0
 26 47  1  0  0  0
 27 28  1  0  0  0
 27 29  1  0  0  0
 27 30  1  0  0  0
M  END
> <s_m_entry_id>
28309

> <s_m_entry_name>
dock_pv.470

> <s_m_Source_Path>
/home/csk/Desktop/cluster/DUD-E-result/rock1

> <s_m_Source_File>
dock_pv.maegz

> <i_m_Source_File_Index>
470

> <chembl_id>
CHEMBL217910

> <chembl_pref_name>
None

> <i_lp_mmshare_version>
53161

> <r_lp_tautomer_probability>
0.019607843137214

> <s_lp_Force_Field>
OPLS_2005

> <r_lp_Energy>
46.20921

> <b_lp_Chiralities_Consistent>
1

> <s_lp_Variant>
CHEMBL3231_lig47-4

> <s_i_glide_gridfile>
glide-grid_2etr

> <i_i_glide_lignum>
62

> <i_i_glide_rotatable_bonds>
5

> <r_i_docking_score>
-7.42300252689025

> <r_i_glide_ligand_efficiency>
-0.239451694415815

> <r_i_glide_ligand_efficiency_sa>
-0.752208919159151

> <r_i_glide_ligand_efficiency_ln>
-1.67411455752096

> <r_i_glide_gscore>
-7.42300252689025

> <r_i_glide_lipo>
-2.37370275412152

> <r_i_glide_hbond>
-0.279894929511369

> <r_i_glide_metal>
0

> <r_i_glide_rewards>
-2.14893241099582

> <r_i_glide_evdw>
-43.6003112792969

> <r_i_glide_ecoul>
-4.71254301071167

> <r_i_glide_erotb>
0.425750548183419

> <r_i_glide_esite>
-0.159325964873369

> <r_i_glide_emodel>
-66.4550025533613

> <r_i_glide_energy>
-48.3128542900085

> <r_i_glide_einternal>
5.41895341873169

> <i_i_glide_confnum>
55

> <i_i_glide_posenum>
368

> <r_i_glide_eff_state_penalty>
0

> <s_user_duplicate_titles>
CHEMBL3231_lig47

> <i_f3d_flags>
0

> <s_m_subgroup_title>
dock_pv

> <s_m_subgroupid>
dock_pv

> <b_m_subgroup_collapsed>
1

$$$$
CHEMBL3231_lig449
                    3D
 Schrodinger Suite 2021-1.
 40 42  0  0  1  0            999 V2000
   57.6097   98.7030   34.0142 N   0  0  0  0  0  0
   56.4655   98.7910   34.6958 C   0  0  0  0  0  0
   56.4422   99.1000   35.8856 O   0  0  0  0  0  0
   55.1328   98.5303   33.9621 C   0  0  1  0  0  0
   55.0748   99.2464   32.6726 N   0  0  0  0  0  0
   53.9470   99.5306   32.0037 C   0  0  0  0  0  0
   52.8576   99.0040   32.2428 O   0  0  0  0  0  0
   54.1478  100.4851   31.0785 N   0  0  0  0  0  0
   53.1735  100.8751   30.1795 C   0  0  0  0  0  0
   52.5824  100.0749   29.3260 N   0  0  0  0  0  0
   51.7554  100.7104   28.5094 C   0  0  0  0  0  0
   51.6345  102.0779   28.7863 C   0  0  0  0  0  0
   52.7118  102.5379   30.0728 S   0  0  0  0  0  0
   51.1006   99.9560   27.3934 C   0  0  0  0  0  0
   50.6021  100.6290   26.2674 C   0  0  0  0  0  0
   50.0859   99.8828   25.2053 C   0  0  0  0  0  0
   50.0413   98.5270   25.2112 N   0  0  0  0  0  0
   50.4925   97.8830   26.3149 C   0  0  0  0  0  0
   51.0230   98.5532   27.4156 C   0  0  0  0  0  0
   54.8646   97.0412   33.8303 C   0  0  0  0  0  0
   54.0948   96.4025   34.8122 C   0  0  0  0  0  0
   53.8341   95.0384   34.7299 C   0  0  0  0  0  0
   54.3494   94.3032   33.6669 C   0  0  0  0  0  0
   55.1261   94.9187   32.6886 C   0  0  0  0  0  0
   55.3813   96.2851   32.7670 C   0  0  0  0  0  0
   57.6427   98.4210   33.0324 H   0  0  0  0  0  0
   58.4675   98.9425   34.4896 H   0  0  0  0  0  0
   54.3570   98.9643   34.6005 H   0  0  0  0  0  0
   55.9602   99.5832   32.3188 H   0  0  0  0  0  0
   55.0623  100.9072   30.9831 H   0  0  0  0  0  0
   51.0301  102.8173   28.2807 H   0  0  0  0  0  0
   50.6406  101.7049   26.1989 H   0  0  0  0  0  0
   49.7146  100.3702   24.3161 H   0  0  0  0  0  0
   50.4407   96.8056   26.3012 H   0  0  0  0  0  0
   51.3853   97.9851   28.2607 H   0  0  0  0  0  0
   53.6985   96.9653   35.6447 H   0  0  0  0  0  0
   53.2414   94.5511   35.4868 H   0  0  0  0  0  0
   54.1412   93.2464   33.6102 H   0  0  0  0  0  0
   55.5327   94.3405   31.8723 H   0  0  0  0  0  0
   55.9934   96.7518   32.0077 H   0  0  0  0  0  0
  1  2  1  0  0  0
  1 26  1  0  0  0
  1 27  1  0  0  0
  2  3  2  0  0  0
  2  4  1  0  0  0
  4  5  1  0  0  0
  4 20  1  0  0  0
  4 28  1  0  0  0
  5  6  1  0  0  0
  5 29  1  0  0  0
  6  7  2  0  0  0
  6  8  1  0  0  0
  8  9  1  0  0  0
  8 30  1  0  0  0
  9 10  2  0  0  0
  9 13  1  0  0  0
 10 11  1  0  0  0
 11 12  2  0  0  0
 11 14  1  0  0  0
 12 13  1  0  0  0
 12 31  1  0  0  0
 14 15  2  0  0  0
 14 19  1  0  0  0
 15 16  1  0  0  0
 15 32  1  0  0  0
 16 17  2  0  0  0
 16 33  1  0  0  0
 17 18  1  0  0  0
 18 19  2  0  0  0
 18 34  1  0  0  0
 19 35  1  0  0  0
 20 21  2  0  0  0
 20 25  1  0  0  0
 21 22  1  0  0  0
 21 36  1  0  0  0
 22 23  2  0  0  0
 22 37  1  0  0  0
 23 24  1  0  0  0
 23 38  1  0  0  0
 24 25  2  0  0  0
 24 39  1  0  0  0
 25 40  1  0  0  0
M  END
> <s_m_entry_id>
28310

> <s_m_entry_name>
dock_pv.471

> <s_m_Source_Path>
/home/csk/Desktop/cluster/DUD-E-result/rock1

> <s_m_Source_File>
dock_pv.maegz

> <i_m_Source_File_Index>
471

> <chembl_id>
CHEMBL3218280

> <chembl_pref_name>
None

> <i_lp_mmshare_version>
53161

> <r_lp_tautomer_probability>
0.999000488399163

> <s_lp_Force_Field>
OPLS_2005

> <r_lp_Energy>
2.437241

> <b_lp_Chiralities_Consistent>
1

> <s_lp_Variant>
CHEMBL3231_lig449-1

> <s_i_glide_gridfile>
glide-grid_2etr

> <i_i_glide_lignum>
633

> <i_i_glide_rotatable_bonds>
7

> <r_i_docking_score>
-7.42162067462912

> <r_i_glide_ligand_efficiency>
-0.296864826985165

> <r_i_glide_ligand_efficiency_sa>
-0.868038019024746

> <r_i_glide_ligand_efficiency_ln>
-1.75914650791149

> <r_i_glide_gscore>
-7.42162067462912

> <r_i_glide_lipo>
-2.36492819889099

> <r_i_glide_hbond>
-0.482647800090459

> <r_i_glide_metal>
0

> <r_i_glide_rewards>
-1.76233691215985

> <r_i_glide_evdw>
-44.1659660339355

> <r_i_glide_ecoul>
-7.53184509277344

> <r_i_glide_erotb>
0.764521245194416

> <r_i_glide_esite>
-0.238153943069443

> <r_i_glide_emodel>
-71.9305102574837

> <r_i_glide_energy>
-51.697811126709

> <r_i_glide_einternal>
8.27819633483887

> <i_i_glide_confnum>
5

> <i_i_glide_posenum>
61

> <r_i_glide_eff_state_penalty>
0

> <s_user_duplicate_titles>
CHEMBL3231_lig449

> <i_f3d_flags>
0

> <s_m_subgroup_title>
dock_pv

> <s_m_subgroupid>
dock_pv

> <b_m_subgroup_collapsed>
1

$$$$
CHEMBL3231_lig758
                    3D
 Schrodinger Suite 2021-1.
 43 45  0  0  1  0            999 V2000
   51.7796   98.4213   29.2607 C   0  0  0  0  0  0
   51.5813   99.9249   29.1922 C   0  0  0  0  0  0
   51.9982  100.6715   30.2992 C   0  0  0  0  0  0
   51.8317  102.0615   30.3462 C   0  0  0  0  0  0
   51.2492  102.6984   29.2484 C   0  0  0  0  0  0
   50.8432  101.9640   28.1380 C   0  0  0  0  0  0
   50.9968  100.5699   28.0785 C   0  0  0  0  0  0
   50.5163   99.8895   26.8148 C   0  0  0  0  0  0
   49.9099  100.4980   25.7191 C   0  0  0  0  0  0
   49.6460   99.5170   24.8111 N   0  0  0  0  0  0
   50.0431   98.3149   25.2137 N   0  0  0  0  0  0
   50.5512   98.5346   26.4035 C   0  0  0  0  0  0
   52.2359  102.8608   31.5592 C   0  0  0  0  0  0
   51.6458  103.9019   31.8516 O   0  0  0  0  0  0
   53.2547  102.3616   32.2791 N   0  0  0  0  0  0
   53.8503  102.9414   33.4884 C   0  0  2  0  0  0
   54.8403  104.0872   33.1637 C   0  0  0  0  0  0
   55.0876  104.9249   34.2805 O   0  0  0  0  0  0
   54.4642  101.8713   34.4022 C   0  0  0  0  0  0
   54.2840  101.9410   35.7910 C   0  0  0  0  0  0
   53.5400  102.9287   36.3405 F   0  0  0  0  0  0
   54.8700  100.9923   36.6284 C   0  0  0  0  0  0
   55.6443   99.9646   36.0936 C   0  0  0  0  0  0
   55.8257   99.8811   34.7155 C   0  0  0  0  0  0
   55.2388  100.8238   33.8737 C   0  0  0  0  0  0
   55.4172  100.7048   32.5379 F   0  0  0  0  0  0
   50.8287   97.8988   29.1588 H   0  0  0  0  0  0
   52.4417   98.1219   28.4509 H   0  0  0  0  0  0
   52.2339   98.0956   30.1979 H   0  0  0  0  0  0
   52.4360  100.1529   31.1415 H   0  0  0  0  0  0
   51.1156  103.7710   29.2407 H   0  0  0  0  0  0
   50.4067  102.5128   27.3181 H   0  0  0  0  0  0
   49.6431  101.5218   25.5026 H   0  0  0  0  0  0
   49.2214   99.6693   23.9002 H   0  0  0  0  0  0
   50.9458   97.6944   26.9487 H   0  0  0  0  0  0
   53.7765  101.5958   31.8747 H   0  0  0  0  0  0
   53.0181  103.3893   34.0390 H   0  0  0  0  0  0
   55.7894  103.6832   32.8068 H   0  0  0  0  0  0
   54.4422  104.7047   32.3593 H   0  0  0  0  0  0
   54.4349  105.6368   34.2615 H   0  0  0  0  0  0
   54.7268  101.0616   37.6961 H   0  0  0  0  0  0
   56.1056   99.2367   36.7456 H   0  0  0  0  0  0
   56.4275   99.0897   34.2916 H   0  0  0  0  0  0
  1  2  1  0  0  0
  1 27  1  0  0  0
  1 28  1  0  0  0
  1 29  1  0  0  0
  2  3  2  0  0  0
  2  7  1  0  0  0
  3  4  1  0  0  0
  3 30  1  0  0  0
  4  5  2  0  0  0
  4 13  1  0  0  0
  5  6  1  0  0  0
  5 31  1  0  0  0
  6  7  2  0  0  0
  6 32  1  0  0  0
  7  8  1  0  0  0
  8  9  2  0  0  0
  8 12  1  0  0  0
  9 10  1  0  0  0
  9 33  1  0  0  0
 10 11  1  0  0  0
 10 34  1  0  0  0
 11 12  2  0  0  0
 12 35  1  0  0  0
 13 14  2  0  0  0
 13 15  1  0  0  0
 15 16  1  0  0  0
 15 36  1  0  0  0
 16 17  1  0  0  0
 16 19  1  0  0  0
 16 37  1  0  0  0
 17 18  1  0  0  0
 17 38  1  0  0  0
 17 39  1  0  0  0
 18 40  1  0  0  0
 19 20  2  0  0  0
 19 25  1  0  0  0
 20 21  1  0  0  0
 20 22  1  0  0  0
 22 23  2  0  0  0
 22 41  1  0  0  0
 23 24  1  0  0  0
 23 42  1  0  0  0
 24 25  2  0  0  0
 24 43  1  0  0  0
 25 26  1  0  0  0
M  END
> <s_m_entry_id>
28311

> <s_m_entry_name>
dock_pv.472

> <s_m_Source_Path>
/home/csk/Desktop/cluster/DUD-E-result/rock1

> <s_m_Source_File>
dock_pv.maegz

> <i_m_Source_File_Index>
472

> <chembl_id>
CHEMBL4110689

> <chembl_pref_name>
None

> <i_lp_mmshare_version>
53161

> <r_lp_tautomer_probability>
0.5

> <s_lp_Force_Field>
OPLS_2005

> <r_lp_Energy>
19.468811

> <b_lp_Chiralities_Consistent>
1

> <s_lp_Variant>
CHEMBL3231_lig758-1

> <s_i_glide_gridfile>
glide-grid_2etr

> <i_i_glide_lignum>
1076

> <i_i_glide_rotatable_bonds>
7

> <r_i_docking_score>
-7.42086937634117

> <r_i_glide_ligand_efficiency>
-0.285418052936199

> <r_i_glide_ligand_efficiency_sa>
-0.845549858757682

> <r_i_glide_ligand_efficiency_ln>
-1.74276682317524

> <r_i_glide_gscore>
-7.42086937634117

> <r_i_glide_lipo>
-2.05713391685333

> <r_i_glide_hbond>
-0.662569086770617

> <r_i_glide_metal>
0

> <r_i_glide_rewards>
-2.0065405157943

> <r_i_glide_evdw>
-35.6039848327637

> <r_i_glide_ecoul>
-8.91198348999023

> <r_i_glide_erotb>
0.52466613060273

> <r_i_glide_esite>
-0.102295222388942

> <r_i_glide_emodel>
-61.9849371014854

> <r_i_glide_energy>
-44.5159683227539

> <r_i_glide_einternal>
5.91830492019653

> <i_i_glide_confnum>
8

> <i_i_glide_posenum>
66

> <r_i_glide_eff_state_penalty>
0

> <s_user_duplicate_titles>
CHEMBL3231_lig758

> <i_f3d_flags>
0

> <s_m_subgroup_title>
dock_pv

> <s_m_subgroupid>
dock_pv

> <b_m_subgroup_collapsed>
1

$$$$
CHEMBL3231_lig924
                    3D
 Schrodinger Suite 2021-1.
 36 39  0  0  1  0            999 V2000
   52.7313   99.8773   31.3172 N   0  0  0  0  0  0
   52.9950  100.6220   32.3463 C   0  0  0  0  0  0
   52.6200  101.9530   32.3659 N   0  0  0  0  0  0
   51.9452  102.6556   31.4033 C   0  0  0  0  0  0
   52.0705  100.4527   30.2697 C   0  0  0  0  0  0
   51.6633  101.7898   30.2693 C   0  0  0  0  0  0
   50.8420  102.2260   28.8092 S   0  0  0  0  0  0
   51.0427  100.6061   28.1734 C   0  0  0  0  0  0
   51.7274   99.7998   29.0862 C   0  0  0  0  0  0
   50.5395  100.2419   26.8511 C   0  0  0  0  0  0
   50.1143  101.1021   25.8571 C   0  0  0  0  0  0
   49.7323  100.3113   24.8110 N   0  0  0  0  0  0
   49.9012   99.0153   25.0546 N   0  0  0  0  0  0
   50.3580   98.9617   26.2847 C   0  0  0  0  0  0
   51.6441  103.8362   31.5603 O   0  0  0  0  0  0
   50.5996   97.6150   26.8976 C   0  0  0  0  0  0
   53.7782  100.0968   33.5593 C   0  0  1  0  0  0
   53.5957   98.6551   33.7343 N   0  0  2  0  0  0
   54.7099   98.2417   34.5717 C   0  0  0  0  0  0
   55.9092   99.0063   34.0201 C   0  0  0  0  0  0
   55.3036  100.2983   33.4751 C   0  0  0  0  0  0
   52.8649  102.4988   33.1751 H   0  0  0  0  0  0
   51.9822   98.7677   28.9175 H   0  0  0  0  0  0
   50.0435  102.1793   25.8247 H   0  0  0  0  0  0
   49.3581  100.6425   23.9277 H   0  0  0  0  0  0
   51.6505   97.5034   27.1433 H   0  0  0  0  0  0
   50.0399   97.5046   27.8255 H   0  0  0  0  0  0
   50.3263   96.7803   26.2499 H   0  0  0  0  0  0
   53.4141  100.5704   34.4717 H   0  0  0  0  0  0
   53.7326   98.2315   32.8238 H   0  0  0  0  0  0
   54.5282   98.4805   35.6211 H   0  0  0  0  0  0
   54.8513   97.1630   34.4873 H   0  0  0  0  0  0
   56.6499   99.2018   34.7966 H   0  0  0  0  0  0
   56.4181   98.4301   33.2416 H   0  0  0  0  0  0
   55.6491  100.4531   32.4487 H   0  0  0  0  0  0
   55.6172  101.1657   34.0551 H   0  0  0  0  0  0
  1  5  1  0  0  0
  1  2  2  0  0  0
  2  3  1  0  0  0
  2 17  1  0  0  0
  3  4  1  0  0  0
  3 22  1  0  0  0
  4  6  1  0  0  0
  4 15  2  0  0  0
  5  6  2  0  0  0
  5  9  1  0  0  0
  6  7  1  0  0  0
  7  8  1  0  0  0
  8  9  2  0  0  0
  8 10  1  0  0  0
  9 23  1  0  0  0
 10 11  2  0  0  0
 10 14  1  0  0  0
 11 12  1  0  0  0
 11 24  1  0  0  0
 12 13  1  0  0  0
 12 25  1  0  0  0
 13 14  2  0  0  0
 14 16  1  0  0  0
 16 26  1  0  0  0
 16 27  1  0  0  0
 16 28  1  0  0  0
 17 18  1  0  0  0
 17 21  1  0  0  0
 17 29  1  0  0  0
 18 19  1  0  0  0
 18 30  1  0  0  0
 19 20  1  0  0  0
 19 31  1  0  0  0
 19 32  1  0  0  0
 20 21  1  0  0  0
 20 33  1  0  0  0
 20 34  1  0  0  0
 21 35  1  0  0  0
 21 36  1  0  0  0
M  END
> <s_m_entry_id>
28312

> <s_m_entry_name>
dock_pv.473

> <s_m_Source_Path>
/home/csk/Desktop/cluster/DUD-E-result/rock1

> <s_m_Source_File>
dock_pv.maegz

> <i_m_Source_File_Index>
473

> <chembl_id>
CHEMBL4440266

> <chembl_pref_name>
None

> <i_lp_mmshare_version>
53161

> <r_lp_tautomer_probability>
0.5

> <s_lp_Force_Field>
OPLS_2005

> <r_lp_Energy>
35.383552

> <b_lp_Chiralities_Consistent>
1

> <s_lp_Variant>
CHEMBL3231_lig924-1

> <s_i_glide_gridfile>
glide-grid_2etr

> <i_i_glide_lignum>
1323

> <i_i_glide_rotatable_bonds>
2

> <r_i_docking_score>
-7.41801183143564

> <r_i_glide_ligand_efficiency>
-0.353238658639792

> <r_i_glide_ligand_efficiency_sa>
-0.974558674364739

> <r_i_glide_ligand_efficiency_ln>
-1.83408843581817

> <r_i_glide_gscore>
-7.41801183143564

> <r_i_glide_lipo>
-1.97355107092073

> <r_i_glide_hbond>
-0.405481915588037

> <r_i_glide_metal>
0

> <r_i_glide_rewards>
-2.61353136512213

> <r_i_glide_evdw>
-35.2944297790527

> <r_i_glide_ecoul>
-6.90834951400757

> <r_i_glide_erotb>
0.405094833484913

> <r_i_glide_esite>
-0.0295683972358871

> <r_i_glide_emodel>
-62.0529893717352

> <r_i_glide_energy>
-42.2027792930603

> <r_i_glide_einternal>
0.165265336632729

> <i_i_glide_confnum>
21

> <i_i_glide_posenum>
383

> <r_i_glide_eff_state_penalty>
0

> <s_user_duplicate_titles>
CHEMBL3231_lig924

> <i_f3d_flags>
0

> <s_m_subgroup_title>
dock_pv

> <s_m_subgroupid>
dock_pv

> <b_m_subgroup_collapsed>
1

$$$$
CHEMBL3231_lig826
                    3D
 Schrodinger Suite 2021-1.
 43 45  0  0  1  0            999 V2000
   55.4982  103.5030   33.2610 C   0  0  0  0  0  0
   54.0152  103.8338   33.0561 C   0  0  1  0  0  0
   53.4385  102.9389   32.0433 N   0  0  0  0  0  0
   52.1487  102.9188   31.6662 C   0  0  0  0  0  0
   51.2430  103.5030   32.2506 O   0  0  0  0  0  0
   51.8308  102.1305   30.4376 C   0  0  0  0  0  0
   51.1867  102.7422   29.3605 C   0  0  0  0  0  0
   50.8411  101.9955   28.2389 C   0  0  0  0  0  0
   51.1043  100.6211   28.1697 C   0  0  0  0  0  0
   51.7353  100.0045   29.2730 C   0  0  0  0  0  0
   52.0427   98.5207   29.3430 C   0  0  0  0  0  0
   51.0304   97.7838   30.0007 O   0  0  0  0  0  0
   52.1097  100.7669   30.3812 C   0  0  0  0  0  0
   50.6835   99.9298   26.9043 C   0  0  0  0  0  0
   50.2896   98.5949   26.6810 C   0  0  0  0  0  0
   50.0047   98.3246   25.4289 N   0  0  0  0  0  0
   50.1312   99.4977   24.8100 N   0  0  0  0  0  0
   50.5610  100.4931   25.6391 C   0  0  0  0  0  0
   53.2790  103.8772   34.4029 C   0  0  0  0  0  0
   52.9580  102.6928   35.0792 C   0  0  0  0  0  0
   52.2703  102.7464   36.2905 C   0  0  0  0  0  0
   51.9058  103.9801   36.8239 C   0  0  0  0  0  0
   51.2395  104.0359   37.9995 F   0  0  0  0  0  0
   52.2191  105.1610   36.1553 C   0  0  0  0  0  0
   52.9043  105.1101   34.9444 C   0  0  0  0  0  0
   55.9800  104.2381   33.9052 H   0  0  0  0  0  0
   55.6333  102.5217   33.7167 H   0  0  0  0  0  0
   56.0348  103.5030   32.3112 H   0  0  0  0  0  0
   53.9727  104.8345   32.6166 H   0  0  0  0  0  0
   54.1072  102.5093   31.4214 H   0  0  0  0  0  0
   50.9571  103.7973   29.3785 H   0  0  0  0  0  0
   50.3480  102.5014   27.4218 H   0  0  0  0  0  0
   52.2151   98.1198   28.3466 H   0  0  0  0  0  0
   52.9814   98.3675   29.8821 H   0  0  0  0  0  0
   51.3920   96.9379   30.2833 H   0  0  0  0  0  0
   52.5846  100.2813   31.2229 H   0  0  0  0  0  0
   50.2118   97.8227   27.4312 H   0  0  0  0  0  0
   49.9199   99.6133   23.8256 H   0  0  0  0  0  0
   50.7259  101.4928   25.2663 H   0  0  0  0  0  0
   53.2352  101.7356   34.6608 H   0  0  0  0  0  0
   52.0211  101.8354   36.8124 H   0  0  0  0  0  0
   51.9292  106.1134   36.5731 H   0  0  0  0  0  0
   53.1358  106.0279   34.4208 H   0  0  0  0  0  0
  1  2  1  0  0  0
  1 26  1  0  0  0
  1 27  1  0  0  0
  1 28  1  0  0  0
  2  3  1  0  0  0
  2 19  1  0  0  0
  2 29  1  0  0  0
  3  4  1  0  0  0
  3 30  1  0  0  0
  4  5  2  0  0  0
  4  6  1  0  0  0
  6  7  2  0  0  0
  6 13  1  0  0  0
  7  8  1  0  0  0
  7 31  1  0  0  0
  8  9  2  0  0  0
  8 32  1  0  0  0
  9 10  1  0  0  0
  9 14  1  0  0  0
 10 11  1  0  0  0
 10 13  2  0  0  0
 11 12  1  0  0  0
 11 33  1  0  0  0
 11 34  1  0  0  0
 12 35  1  0  0  0
 13 36  1  0  0  0
 14 15  1  0  0  0
 14 18  2  0  0  0
 15 16  2  0  0  0
 15 37  1  0  0  0
 16 17  1  0  0  0
 17 18  1  0  0  0
 17 38  1  0  0  0
 18 39  1  0  0  0
 19 20  2  0  0  0
 19 25  1  0  0  0
 20 21  1  0  0  0
 20 40  1  0  0  0
 21 22  2  0  0  0
 21 41  1  0  0  0
 22 23  1  0  0  0
 22 24  1  0  0  0
 24 25  2  0  0  0
 24 42  1  0  0  0
 25 43  1  0  0  0
M  END
> <s_m_entry_id>
28313

> <s_m_entry_name>
dock_pv.474

> <s_m_Source_Path>
/home/csk/Desktop/cluster/DUD-E-result/rock1

> <s_m_Source_File>
dock_pv.maegz

> <i_m_Source_File_Index>
474

> <chembl_id>
CHEMBL4113796

> <chembl_pref_name>
None

> <i_lp_mmshare_version>
53161

> <r_lp_tautomer_probability>
0.5

> <s_lp_Force_Field>
OPLS_2005

> <r_lp_Energy>
19.812318

> <b_lp_Chiralities_Consistent>
1

> <s_lp_Variant>
CHEMBL3231_lig826-1

> <s_i_glide_gridfile>
glide-grid_2etr

> <i_i_glide_lignum>
1155

> <i_i_glide_rotatable_bonds>
7

> <r_i_docking_score>
-7.41790317513366

> <r_i_glide_ligand_efficiency>
-0.296716127005347

> <r_i_glide_ligand_efficiency_sa>
-0.867603217646553

> <r_i_glide_ligand_efficiency_ln>
-1.7582653491266

> <r_i_glide_gscore>
-7.41790317513366

> <r_i_glide_lipo>
-1.95885937061744

> <r_i_glide_hbond>
-0.38683142083825

> <r_i_glide_metal>
0

> <r_i_glide_rewards>
-2.27459804874062

> <r_i_glide_evdw>
-38.6360282897949

> <r_i_glide_ecoul>
-9.09310436248779

> <r_i_glide_erotb>
0.57510212338426

> <r_i_glide_esite>
-0.0769493894587047

> <r_i_glide_emodel>
-67.7789097739909

> <r_i_glide_energy>
-47.7291326522827

> <r_i_glide_einternal>
5.39436197280884

> <i_i_glide_confnum>
35

> <i_i_glide_posenum>
335

> <r_i_glide_eff_state_penalty>
0

> <s_user_duplicate_titles>
CHEMBL3231_lig826

> <i_f3d_flags>
0

> <s_m_subgroup_title>
dock_pv

> <s_m_subgroupid>
dock_pv

> <b_m_subgroup_collapsed>
1

$$$$
CHEMBL3231_lig302
                    3D
 Schrodinger Suite 2021-1.
 38 40  0  0  1  0            999 V2000
   53.2846   98.2778   32.7702 C   0  0  0  0  0  0
   54.0462   99.3288   33.1715 N   0  0  0  0  0  0
   54.0456  100.4135   32.3665 C   0  0  0  0  0  0
   53.3461  100.5510   31.2168 N   0  0  0  0  0  0
   52.5835   99.4928   30.8189 C   0  0  0  0  0  0
   52.5266   98.3254   31.5981 C   0  0  0  0  0  0
   51.8579   99.6377   29.5112 C   0  0  0  0  0  0
   51.4388   98.4900   28.8167 C   0  0  0  0  0  0
   51.0097  101.0677   27.7040 C   0  0  0  0  0  0
   51.6214  100.9034   28.9467 C   0  0  0  0  0  0
   50.6635   99.9223   26.9748 C   0  0  0  0  0  0
   50.8928   98.6514   27.5433 C   0  0  0  0  0  0
   50.4843   97.7400   26.5906 N   0  0  0  0  0  0
   50.0291   98.3437   25.4797 N   0  0  0  0  0  0
   50.0832   99.6305   25.7023 C   0  0  0  0  0  0
   49.6411  100.5602   24.8112 N   0  0  0  0  0  0
   54.8419  101.4781   32.7522 N   0  0  0  0  0  0
   53.2432   97.1019   33.5334 N   0  0  0  0  0  0
   53.8560   96.9725   34.8516 C   0  0  0  0  0  0
   53.9304   95.4926   35.2577 C   0  0  0  0  0  0
   53.1169   97.8013   35.9225 C   0  0  0  0  0  0
   51.9234   97.4782   31.3160 H   0  0  0  0  0  0
   51.5750   97.5039   29.2248 H   0  0  0  0  0  0
   50.8409  102.0535   27.2983 H   0  0  0  0  0  0
   51.9289  101.7919   29.4799 H   0  0  0  0  0  0
   50.5241   96.7319   26.6479 H   0  0  0  0  0  0
   49.6458  101.5474   25.0268 H   0  0  0  0  0  0
   49.2534  100.2998   23.9079 H   0  0  0  0  0  0
   55.0666  102.1495   32.0327 H   0  0  0  0  0  0
   55.5117  101.2755   33.4780 H   0  0  0  0  0  0
   52.6931   96.3246   33.1903 H   0  0  0  0  0  0
   54.8804   97.3460   34.7777 H   0  0  0  0  0  0
   54.4099   95.3708   36.2296 H   0  0  0  0  0  0
   54.5138   94.9160   34.5383 H   0  0  0  0  0  0
   52.9392   95.0402   35.3153 H   0  0  0  0  0  0
   53.5828   97.6832   36.9014 H   0  0  0  0  0  0
   53.1345   98.8662   35.6897 H   0  0  0  0  0  0
   52.0711   97.5071   36.0155 H   0  0  0  0  0  0
  1  6  1  0  0  0
  1  2  2  0  0  0
  1 18  1  0  0  0
  2  3  1  0  0  0
  3  4  2  0  0  0
  3 17  1  0  0  0
  4  5  1  0  0  0
  5  7  1  0  0  0
  5  6  2  0  0  0
  6 22  1  0  0  0
  7 10  1  0  0  0
  7  8  2  0  0  0
  8 12  1  0  0  0
  8 23  1  0  0  0
  9 11  1  0  0  0
  9 10  2  0  0  0
  9 24  1  0  0  0
 10 25  1  0  0  0
 11 12  2  0  0  0
 11 15  1  0  0  0
 12 13  1  0  0  0
 13 14  1  0  0  0
 13 26  1  0  0  0
 14 15  2  0  0  0
 15 16  1  0  0  0
 16 27  1  0  0  0
 16 28  1  0  0  0
 17 29  1  0  0  0
 17 30  1  0  0  0
 18 19  1  0  0  0
 18 31  1  0  0  0
 19 20  1  0  0  0
 19 21  1  0  0  0
 19 32  1  0  0  0
 20 33  1  0  0  0
 20 34  1  0  0  0
 20 35  1  0  0  0
 21 36  1  0  0  0
 21 37  1  0  0  0
 21 38  1  0  0  0
M  END
> <s_m_entry_id>
28314

> <s_m_entry_name>
dock_pv.475

> <s_m_Source_Path>
/home/csk/Desktop/cluster/DUD-E-result/rock1

> <s_m_Source_File>
dock_pv.maegz

> <i_m_Source_File_Index>
475

> <chembl_id>
CHEMBL1765761

> <chembl_pref_name>
None

> <i_lp_mmshare_version>
53161

> <r_lp_tautomer_probability>
0.999999624730965

> <s_lp_Force_Field>
OPLS_2005

> <r_lp_Energy>
1.695059

> <b_lp_Chiralities_Consistent>
1

> <s_lp_Variant>
CHEMBL3231_lig302-1

> <s_i_glide_gridfile>
glide-grid_2etr

> <i_i_glide_lignum>
450

> <i_i_glide_rotatable_bonds>
3

> <r_i_docking_score>
-7.41358359523595

> <r_i_glide_ligand_efficiency>
-0.353027790249331

> <r_i_glide_ligand_efficiency_sa>
-0.973976904464851

> <r_i_glide_ligand_efficiency_ln>
-1.83299356336589

> <r_i_glide_gscore>
-7.41358359523595

> <r_i_glide_lipo>
-2.00351165969528

> <r_i_glide_hbond>
-0.610852610499505

> <r_i_glide_metal>
0

> <r_i_glide_rewards>
-2.5639398424822

> <r_i_glide_evdw>
-35.3723373413086

> <r_i_glide_ecoul>
-4.80582666397095

> <r_i_glide_erotb>
0.315808831525155

> <r_i_glide_esite>
-0.0615974474230489

> <r_i_glide_emodel>
-57.2580432657725

> <r_i_glide_energy>
-40.1781640052795

> <r_i_glide_einternal>
0.761599540710449

> <i_i_glide_confnum>
3

> <i_i_glide_posenum>
128

> <r_i_glide_eff_state_penalty>
0

> <s_user_duplicate_titles>
CHEMBL3231_lig302

> <i_f3d_flags>
0

> <s_m_subgroup_title>
dock_pv

> <s_m_subgroupid>
dock_pv

> <b_m_subgroup_collapsed>
1

$$$$
CHEMBL3231_lig1627
                    3D
 Schrodinger Suite 2021-1.
 42 44  0  0  1  0            999 V2000
   52.0430  100.7981   29.5717 S   0  0  0  0  0  0
   51.6764  103.6415   32.1101 O   0  0  0  0  0  0
   52.5383   98.5622   35.6160 O   0  0  0  0  0  0
   53.5175  102.3202   31.8039 N   0  0  0  0  0  0
   50.0430   98.1815   25.2120 N   0  0  0  0  0  0
   51.8565  102.4359   30.1474 C   0  0  0  0  0  0
   51.0686  101.1361   28.1654 C   0  0  0  0  0  0
   52.3381  102.8545   31.4309 C   0  0  0  0  0  0
   50.7659  100.0809   27.1556 C   0  0  0  0  0  0
   51.0721  103.1869   29.2813 C   0  0  0  0  0  0
   50.6517  102.4654   28.1677 C   0  0  0  0  0  0
   54.2041  102.5257   33.0827 C   0  0  2  0  0  0
   53.4266  101.9255   34.2613 C   0  0  0  0  0  0
   50.3501  100.4797   25.8805 C   0  0  0  0  0  0
   50.8369   98.7069   27.4334 C   0  0  0  0  0  0
   53.3415  100.5320   34.3698 C   0  0  0  0  0  0
   52.6549   99.9272   35.4348 C   0  0  0  0  0  0
   52.8086  102.7215   35.2349 C   0  0  0  0  0  0
   50.0045   99.5090   24.9485 C   0  0  0  0  0  0
   50.4620   97.7975   26.4425 C   0  0  0  0  0  0
   52.0443  100.7461   36.3838 C   0  0  0  0  0  0
   52.1158  102.1329   36.2890 C   0  0  0  0  0  0
   54.6550  103.9904   33.2705 C   0  0  0  0  0  0
   53.2442   97.6869   34.7408 C   0  0  0  0  0  0
   53.9500  101.6589   31.1755 H   0  0  0  0  0  0
   50.8178  104.2237   29.4467 H   0  0  0  0  0  0
   50.0430  102.9041   27.3915 H   0  0  0  0  0  0
   55.1316  101.9516   33.0175 H   0  0  0  0  0  0
   50.2801  101.5214   25.6109 H   0  0  0  0  0  0
   51.1451   98.3431   28.4028 H   0  0  0  0  0  0
   53.8197   99.9281   33.6141 H   0  0  0  0  0  0
   52.8445  103.7990   35.1817 H   0  0  0  0  0  0
   49.6633   99.8018   23.9734 H   0  0  0  0  0  0
   50.4907   96.7325   26.6302 H   0  0  0  0  0  0
   51.5170  100.3029   37.2099 H   0  0  0  0  0  0
   51.6381  102.7534   37.0325 H   0  0  0  0  0  0
   55.2530  104.1103   34.1743 H   0  0  0  0  0  0
   55.2707  104.2975   32.4290 H   0  0  0  0  0  0
   53.8175  104.6884   33.3230 H   0  0  0  0  0  0
   53.1260   96.6591   35.0808 H   0  0  0  0  0  0
   52.8562   97.7454   33.7213 H   0  0  0  0  0  0
   54.3150   97.8988   34.7279 H   0  0  0  0  0  0
  1  6  1  0  0  0
  1  7  1  0  0  0
  2  8  2  0  0  0
  3 17  1  0  0  0
  3 24  1  0  0  0
  4  8  1  0  0  0
  4 12  1  0  0  0
  4 25  1  0  0  0
  5 19  2  0  0  0
  5 20  1  0  0  0
  6  8  1  0  0  0
  6 10  2  0  0  0
  7  9  1  0  0  0
  7 11  2  0  0  0
  9 14  2  0  0  0
  9 15  1  0  0  0
 10 11  1  0  0  0
 10 26  1  0  0  0
 11 27  1  0  0  0
 12 13  1  0  0  0
 12 23  1  0  0  0
 12 28  1  0  0  0
 13 16  2  0  0  0
 13 18  1  0  0  0
 14 19  1  0  0  0
 14 29  1  0  0  0
 15 20  2  0  0  0
 15 30  1  0  0  0
 16 17  1  0  0  0
 16 31  1  0  0  0
 17 21  2  0  0  0
 18 22  2  0  0  0
 18 32  1  0  0  0
 19 33  1  0  0  0
 20 34  1  0  0  0
 21 22  1  0  0  0
 21 35  1  0  0  0
 22 36  1  0  0  0
 23 37  1  0  0  0
 23 38  1  0  0  0
 23 39  1  0  0  0
 24 40  1  0  0  0
 24 41  1  0  0  0
 24 42  1  0  0  0
M  END
> <s_m_entry_id>
28315

> <s_m_entry_name>
dock_pv.476

> <s_m_Source_Path>
/home/csk/Desktop/cluster/DUD-E-result/rock1

> <s_m_Source_File>
dock_pv.maegz

> <i_m_Source_File_Index>
476

> <chembl_id>
CHEMBL1994724

> <chembl_pref_name>
None

> <i_lp_mmshare_version>
53161

> <r_lp_tautomer_probability>
1

> <s_lp_Force_Field>
OPLS_2005

> <r_lp_Energy>
13.113729

> <b_lp_Chiralities_Consistent>
1

> <s_lp_Variant>
CHEMBL3231_lig1627-1

> <s_i_glide_gridfile>
glide-grid_2etr

> <i_i_glide_lignum>
2319

> <i_i_glide_rotatable_bonds>
6

> <r_i_docking_score>
-7.40736028416658

> <r_i_glide_ligand_efficiency>
-0.308640011840274

> <r_i_glide_ligand_efficiency_sa>
-0.890271847969507

> <r_i_glide_ligand_efficiency_ln>
-1.77292121761622

> <r_i_glide_gscore>
-7.40736028416658

> <r_i_glide_lipo>
-2.40767789938222

> <r_i_glide_hbond>
-0.407117028899805

> <r_i_glide_metal>
0

> <r_i_glide_rewards>
-2.50145816992456

> <r_i_glide_evdw>
-38.0402374267578

> <r_i_glide_ecoul>
-6.30023908615112

> <r_i_glide_erotb>
0.825618962875588

> <r_i_glide_esite>
-0.0696784145750232

> <r_i_glide_emodel>
-63.5759334641589

> <r_i_glide_energy>
-44.3404765129089

> <r_i_glide_einternal>
6.64039134979248

> <i_i_glide_confnum>
7

> <i_i_glide_posenum>
359

> <r_i_glide_eff_state_penalty>
0

> <s_user_duplicate_titles>
CHEMBL3231_lig1627

> <i_f3d_flags>
0

> <s_m_subgroup_title>
dock_pv

> <s_m_subgroupid>
dock_pv

> <b_m_subgroup_collapsed>
1

$$$$
CHEMBL3231_lig852
                    3D
 Schrodinger Suite 2021-1.
 58 60  0  0  1  0            999 V2000
   56.2286   94.1831   31.8035 C   0  0  0  0  0  0
   55.2481   93.9030   32.8046 O   0  0  0  0  0  0
   54.8419   94.9334   33.6320 C   0  0  0  0  0  0
   54.0622   94.5875   34.7364 C   0  0  0  0  0  0
   53.6430   95.5576   35.6467 C   0  0  0  0  0  0
   53.9569   96.8979   35.4336 C   0  0  0  0  0  0
   54.6989   97.2756   34.3113 C   0  0  0  0  0  0
   55.1542   96.2876   33.4263 C   0  0  0  0  0  0
   54.9554   98.7575   34.0156 C   0  0  1  0  0  0
   56.4520   99.1006   34.0229 C   0  0  0  0  0  0
   54.3365   99.1520   32.7471 N   0  0  0  0  0  0
   53.0088   99.2211   32.5545 C   0  0  0  0  0  0
   52.1849   99.2381   33.4699 O   0  0  0  0  0  0
   52.5547   99.1814   31.1249 C   0  0  0  0  0  0
   51.7365   98.1229   30.7174 C   0  0  0  0  0  0
   51.2430   98.0763   29.4204 C   0  0  0  0  0  0
   51.5420   99.0913   28.5122 C   0  0  0  0  0  0
   52.3718  100.1387   28.9144 C   0  0  0  0  0  0
   52.8742  100.2125   30.2246 C   0  0  0  0  0  0
   53.6431  101.2566   30.7085 O   0  0  0  0  0  0
   53.7808  102.4922   30.0096 C   0  0  0  0  0  0
   53.1158  103.6456   30.7874 C   0  0  0  0  0  0
   51.6430  103.6371   30.8509 N   0  0  0  0  0  0
   50.9991  103.5033   29.5456 C   0  0  0  0  0  0
   51.1065  102.7019   31.8358 C   0  0  0  0  0  0
   50.9666   99.0802   27.1367 C   0  0  0  0  0  0
   50.7377  100.1542   26.2818 C   0  0  0  0  0  0
   50.1744   99.6284   25.1536 N   0  0  0  0  0  0
   50.0431   98.3032   25.2110 N   0  0  0  0  0  0
   50.5103   97.9784   26.3939 C   0  0  0  0  0  0
   56.5449   93.2498   31.3380 H   0  0  0  0  0  0
   55.8269   94.8277   31.0181 H   0  0  0  0  0  0
   57.1215   94.6478   32.2270 H   0  0  0  0  0  0
   53.7916   93.5554   34.8959 H   0  0  0  0  0  0
   53.0586   95.2701   36.5099 H   0  0  0  0  0  0
   53.5952   97.6439   36.1278 H   0  0  0  0  0  0
   55.7336   96.5908   32.5669 H   0  0  0  0  0  0
   54.5043   99.3556   34.8132 H   0  0  0  0  0  0
   56.9214   98.8053   34.9621 H   0  0  0  0  0  0
   56.9848   98.6041   33.2120 H   0  0  0  0  0  0
   56.6042  100.1726   33.9078 H   0  0  0  0  0  0
   54.9497   99.2558   31.9510 H   0  0  0  0  0  0
   51.4780   97.3277   31.4055 H   0  0  0  0  0  0
   50.6050   97.2538   29.1351 H   0  0  0  0  0  0
   52.6039  100.8832   28.1733 H   0  0  0  0  0  0
   54.8429  102.7028   29.9756 H   0  0  0  0  0  0
   53.4834  102.5086   28.9665 H   0  0  0  0  0  0
   53.5180  103.6718   31.8024 H   0  0  0  0  0  0
   53.4493  104.5827   30.3401 H   0  0  0  0  0  0
   49.9321  103.7071   29.6111 H   0  0  0  0  0  0
   51.4189  104.2123   28.8298 H   0  0  0  0  0  0
   51.1138  102.5011   29.1354 H   0  0  0  0  0  0
   50.0368  102.8572   31.9714 H   0  0  0  0  0  0
   51.2424  101.6647   31.5406 H   0  0  0  0  0  0
   51.5856  102.8352   32.8077 H   0  0  0  0  0  0
   50.9041  101.2173   26.3772 H   0  0  0  0  0  0
   49.8813  100.1600   24.3430 H   0  0  0  0  0  0
   50.5289   96.9500   26.7247 H   0  0  0  0  0  0
  1  2  1  0  0  0
  1 31  1  0  0  0
  1 32  1  0  0  0
  1 33  1  0  0  0
  2  3  1  0  0  0
  3  4  2  0  0  0
  3  8  1  0  0  0
  4  5  1  0  0  0
  4 34  1  0  0  0
  5  6  2  0  0  0
  5 35  1  0  0  0
  6  7  1  0  0  0
  6 36  1  0  0  0
  7  8  2  0  0  0
  7  9  1  0  0  0
  8 37  1  0  0  0
  9 10  1  0  0  0
  9 11  1  0  0  0
  9 38  1  0  0  0
 10 39  1  0  0  0
 10 40  1  0  0  0
 10 41  1  0  0  0
 11 12  1  0  0  0
 11 42  1  0  0  0
 12 13  2  0  0  0
 12 14  1  0  0  0
 14 15  2  0  0  0
 14 19  1  0  0  0
 15 16  1  0  0  0
 15 43  1  0  0  0
 16 17  2  0  0  0
 16 44  1  0  0  0
 17 18  1  0  0  0
 17 26  1  0  0  0
 18 19  2  0  0  0
 18 45  1  0  0  0
 19 20  1  0  0  0
 20 21  1  0  0  0
 21 22  1  0  0  0
 21 46  1  0  0  0
 21 47  1  0  0  0
 22 23  1  0  0  0
 22 48  1  0  0  0
 22 49  1  0  0  0
 23 24  1  0  0  0
 23 25  1  0  0  0
 24 50  1  0  0  0
 24 51  1  0  0  0
 24 52  1  0  0  0
 25 53  1  0  0  0
 25 54  1  0  0  0
 25 55  1  0  0  0
 26 27  2  0  0  0
 26 30  1  0  0  0
 27 28  1  0  0  0
 27 56  1  0  0  0
 28 29  1  0  0  0
 28 57  1  0  0  0
 29 30  2  0  0  0
 30 58  1  0  0  0
M  END
> <s_m_entry_id>
28316

> <s_m_entry_name>
dock_pv.477

> <s_m_Source_Path>
/home/csk/Desktop/cluster/DUD-E-result/rock1

> <s_m_Source_File>
dock_pv.maegz

> <i_m_Source_File_Index>
477

> <chembl_id>
CHEMBL4115302

> <chembl_pref_name>
None

> <i_lp_mmshare_version>
53161

> <r_lp_tautomer_probability>
0.5

> <s_lp_Force_Field>
OPLS_2005

> <r_lp_Energy>
32.257358

> <b_lp_Chiralities_Consistent>
1

> <s_lp_Variant>
CHEMBL3231_lig852-1

> <s_i_glide_gridfile>
glide-grid_2etr

> <i_i_glide_lignum>
1203

> <i_i_glide_rotatable_bonds>
10

> <r_i_docking_score>
-7.40693901070363

> <r_i_glide_ligand_efficiency>
-0.246897967023454

> <r_i_glide_ligand_efficiency_sa>
-0.767169387919437

> <r_i_glide_ligand_efficiency_ln>
-1.68293724829636

> <r_i_glide_gscore>
-7.40693901070363

> <r_i_glide_lipo>
-2.23639466202017

> <r_i_glide_hbond>
-0.674393185251148

> <r_i_glide_metal>
0

> <r_i_glide_rewards>
-1.697390240601

> <r_i_glide_evdw>
-46.9847450256348

> <r_i_glide_ecoul>
-8.99251174926758

> <r_i_glide_erotb>
0.943595081796802

> <r_i_glide_esite>
-0.0442419909562486

> <r_i_glide_emodel>
-75.7703992678628

> <r_i_glide_energy>
-55.9772567749023

> <r_i_glide_einternal>
13.7865285873413

> <i_i_glide_confnum>
33

> <i_i_glide_posenum>
222

> <r_i_glide_eff_state_penalty>
0

> <s_user_duplicate_titles>
CHEMBL3231_lig852

> <i_f3d_flags>
0

> <s_m_subgroup_title>
dock_pv

> <s_m_subgroupid>
dock_pv

> <b_m_subgroup_collapsed>
1

$$$$
CHEMBL3231_lig869
                    3D
 Schrodinger Suite 2021-1.
 40 43  0  0  1  0            999 V2000
   53.3619  100.2167   30.9165 N   0  0  0  0  0  0
   53.6419  100.9668   31.9325 C   0  0  0  0  0  0
   53.0498  102.2143   32.0565 N   0  0  0  0  0  0
   52.1367  102.8089   31.2240 C   0  0  0  0  0  0
   52.4821  100.6893   29.9891 C   0  0  0  0  0  0
   51.8780  101.9420   30.0853 C   0  0  0  0  0  0
   50.8375  102.2774   28.7467 S   0  0  0  0  0  0
   51.1787  100.7104   28.0496 C   0  0  0  0  0  0
   52.0737   99.9996   28.8464 C   0  0  0  0  0  0
   50.5767  100.2905   26.7924 C   0  0  0  0  0  0
   50.1102  101.1036   25.7749 C   0  0  0  0  0  0
   49.6445  100.2617   24.8095 N   0  0  0  0  0  0
   49.7904   98.9792   25.1290 N   0  0  0  0  0  0
   50.3303   98.9815   26.3254 C   0  0  0  0  0  0
   51.6437  103.9025   31.4815 O   0  0  0  0  0  0
   50.5910   97.6630   27.0047 C   0  0  0  0  0  0
   54.6593  100.5503   33.0217 C   0  0  0  0  0  0
   54.0690  100.5345   34.4565 C   0  0  0  0  0  0
   53.0102   99.4205   34.6334 C   0  0  0  0  0  0
   53.6263   98.0318   34.3355 C   0  0  0  0  0  0
   54.3712   97.9725   32.9792 C   0  0  0  0  0  0
   55.3405   99.1692   32.8133 C   0  0  0  0  0  0
   53.3097  102.7843   32.8459 H   0  0  0  0  0  0
   52.4427   99.0160   28.6131 H   0  0  0  0  0  0
   50.0676  102.1750   25.6554 H   0  0  0  0  0  0
   49.2414  100.5394   23.9195 H   0  0  0  0  0  0
   51.6555   97.5034   27.1466 H   0  0  0  0  0  0
   50.1259   97.6224   27.9906 H   0  0  0  0  0  0
   50.2203   96.8097   26.4350 H   0  0  0  0  0  0
   55.4491  101.3028   32.9839 H   0  0  0  0  0  0
   54.8613  100.5211   35.2082 H   0  0  0  0  0  0
   53.5617  101.4818   34.6466 H   0  0  0  0  0  0
   52.6146   99.4367   35.6505 H   0  0  0  0  0  0
   52.1588   99.5950   33.9710 H   0  0  0  0  0  0
   54.3267   97.7746   35.1313 H   0  0  0  0  0  0
   52.8510   97.2644   34.3569 H   0  0  0  0  0  0
   54.9315   97.0385   32.9054 H   0  0  0  0  0  0
   53.6479   97.9417   32.1641 H   0  0  0  0  0  0
   55.7204   99.1260   31.7900 H   0  0  0  0  0  0
   56.2559   99.0871   33.4037 H   0  0  0  0  0  0
  1  5  1  0  0  0
  1  2  2  0  0  0
  2  3  1  0  0  0
  2 17  1  0  0  0
  3  4  1  0  0  0
  3 23  1  0  0  0
  4  6  1  0  0  0
  4 15  2  0  0  0
  5  6  2  0  0  0
  5  9  1  0  0  0
  6  7  1  0  0  0
  7  8  1  0  0  0
  8  9  2  0  0  0
  8 10  1  0  0  0
  9 24  1  0  0  0
 10 11  2  0  0  0
 10 14  1  0  0  0
 11 12  1  0  0  0
 11 25  1  0  0  0
 12 13  1  0  0  0
 12 26  1  0  0  0
 13 14  2  0  0  0
 14 16  1  0  0  0
 16 27  1  0  0  0
 16 28  1  0  0  0
 16 29  1  0  0  0
 17 18  1  0  0  0
 17 22  1  0  0  0
 17 30  1  0  0  0
 18 19  1  0  0  0
 18 31  1  0  0  0
 18 32  1  0  0  0
 19 20  1  0  0  0
 19 33  1  0  0  0
 19 34  1  0  0  0
 20 21  1  0  0  0
 20 35  1  0  0  0
 20 36  1  0  0  0
 21 22  1  0  0  0
 21 37  1  0  0  0
 21 38  1  0  0  0
 22 39  1  0  0  0
 22 40  1  0  0  0
M  END
> <s_m_entry_id>
28317

> <s_m_entry_name>
dock_pv.478

> <s_m_Source_Path>
/home/csk/Desktop/cluster/DUD-E-result/rock1

> <s_m_Source_File>
dock_pv.maegz

> <i_m_Source_File_Index>
478

> <chembl_id>
CHEMBL4091279

> <chembl_pref_name>
None

> <i_lp_mmshare_version>
53161

> <r_lp_tautomer_probability>
0.5

> <s_lp_Force_Field>
OPLS_2005

> <r_lp_Energy>
24.677957

> <b_lp_Chiralities_Consistent>
1

> <s_lp_Variant>
CHEMBL3231_lig869-1

> <s_i_glide_gridfile>
glide-grid_2etr

> <i_i_glide_lignum>
1226

> <i_i_glide_rotatable_bonds>
2

> <r_i_docking_score>
-7.4061386409888

> <r_i_glide_ligand_efficiency>
-0.336642665499491

> <r_i_glide_ligand_efficiency_sa>
-0.943285988134327

> <r_i_glide_ligand_efficiency_ln>
-1.81033042932838

> <r_i_glide_gscore>
-7.4061386409888

> <r_i_glide_lipo>
-1.94972860222758

> <r_i_glide_hbond>
-0.462104275359917

> <r_i_glide_metal>
0

> <r_i_glide_rewards>
-2.50207812121212

> <r_i_glide_evdw>
-37.0937423706055

> <r_i_glide_ecoul>
-6.4577579498291

> <r_i_glide_erotb>
0.376078445074359

> <r_i_glide_esite>
-0.0449552762589082

> <r_i_glide_emodel>
-63.1354047218645

> <r_i_glide_energy>
-43.5515003204346

> <r_i_glide_einternal>
0.931099057197571

> <i_i_glide_confnum>
13

> <i_i_glide_posenum>
344

> <r_i_glide_eff_state_penalty>
0

> <s_user_duplicate_titles>
CHEMBL3231_lig869

> <i_f3d_flags>
0

> <s_m_subgroup_title>
dock_pv

> <s_m_subgroupid>
dock_pv

> <b_m_subgroup_collapsed>
1

$$$$
CHEMBL3231_lig690
                    3D
 Schrodinger Suite 2021-1.
 47 49  0  0  1  0            999 V2000
   50.3768  104.1311   28.0102 C   0  0  0  0  0  0
   50.4420  102.7456   27.6709 O   0  0  0  0  0  0
   50.9930  101.8369   28.5548 C   0  0  0  0  0  0
   51.4752  102.2224   29.8180 C   0  0  0  0  0  0
   52.0421  101.2997   30.7003 C   0  0  0  0  0  0
   52.1226   99.9591   30.3099 C   0  0  0  0  0  0
   51.6441   99.5586   29.0674 C   0  0  0  0  0  0
   51.0749  100.4799   28.1741 C   0  0  0  0  0  0
   50.5793   99.9513   26.8541 C   0  0  0  0  0  0
   50.5368   98.6127   26.4106 C   0  0  0  0  0  0
   50.0427   98.4632   25.2065 N   0  0  0  0  0  0
   49.7519   99.7045   24.8122 N   0  0  0  0  0  0
   50.0451  100.6386   25.7673 C   0  0  0  0  0  0
   52.5203  101.7579   32.0512 C   0  0  0  0  0  0
   51.9486  102.6764   32.6411 O   0  0  0  0  0  0
   53.6116  101.1291   32.5241 N   0  0  0  0  0  0
   54.3107  101.4286   33.7835 C   0  0  1  0  0  0
   55.3493  100.3107   34.0660 C   0  0  0  0  0  0
   54.8039   98.8937   34.1594 C   0  0  0  0  0  0
   54.8055   98.0496   33.0270 C   0  0  0  0  0  0
   54.2508   96.7808   33.1075 C   0  0  0  0  0  0
   53.6763   96.3411   34.2931 C   0  0  0  0  0  0
   53.6431   97.1721   35.4066 C   0  0  0  0  0  0
   54.1795   98.4503   35.3446 C   0  0  0  0  0  0
   54.9695  102.8329   33.8614 C   0  0  0  0  0  0
   55.2855  103.3008   34.9512 O   0  0  0  0  0  0
   55.1720  103.5030   32.7254 N   0  0  0  0  0  0
   50.0434  104.6999   27.1451 H   0  0  0  0  0  0
   49.6657  104.3021   28.8183 H   0  0  0  0  0  0
   51.3493  104.5339   28.2965 H   0  0  0  0  0  0
   51.4209  103.2529   30.1315 H   0  0  0  0  0  0
   52.5369   99.2101   30.9711 H   0  0  0  0  0  0
   51.7286   98.5132   28.8142 H   0  0  0  0  0  0
   50.8608   97.7479   26.9691 H   0  0  0  0  0  0
   49.3417   99.9035   23.9029 H   0  0  0  0  0  0
   49.8478  101.6855   25.5985 H   0  0  0  0  0  0
   54.0217  100.3984   31.9645 H   0  0  0  0  0  0
   53.5611  101.4028   34.5771 H   0  0  0  0  0  0
   55.8959  100.5211   34.9867 H   0  0  0  0  0  0
   56.0948  100.3034   33.2723 H   0  0  0  0  0  0
   55.2604   98.3781   32.1015 H   0  0  0  0  0  0
   54.2705   96.1302   32.2450 H   0  0  0  0  0  0
   53.2484   95.3491   34.3440 H   0  0  0  0  0  0
   53.1872   96.8251   36.3228 H   0  0  0  0  0  0
   54.1354   99.0968   36.2093 H   0  0  0  0  0  0
   55.5800  104.4269   32.7254 H   0  0  0  0  0  0
   54.9136  103.0839   31.8444 H   0  0  0  0  0  0
  1  2  1  0  0  0
  1 28  1  0  0  0
  1 29  1  0  0  0
  1 30  1  0  0  0
  2  3  1  0  0  0
  3  4  2  0  0  0
  3  8  1  0  0  0
  4  5  1  0  0  0
  4 31  1  0  0  0
  5  6  2  0  0  0
  5 14  1  0  0  0
  6  7  1  0  0  0
  6 32  1  0  0  0
  7  8  2  0  0  0
  7 33  1  0  0  0
  8  9  1  0  0  0
  9 10  1  0  0  0
  9 13  2  0  0  0
 10 11  2  0  0  0
 10 34  1  0  0  0
 11 12  1  0  0  0
 12 13  1  0  0  0
 12 35  1  0  0  0
 13 36  1  0  0  0
 14 15  2  0  0  0
 14 16  1  0  0  0
 16 17  1  0  0  0
 16 37  1  0  0  0
 17 18  1  0  0  0
 17 25  1  0  0  0
 17 38  1  0  0  0
 18 19  1  0  0  0
 18 39  1  0  0  0
 18 40  1  0  0  0
 19 20  2  0  0  0
 19 24  1  0  0  0
 20 21  1  0  0  0
 20 41  1  0  0  0
 21 22  2  0  0  0
 21 42  1  0  0  0
 22 23  1  0  0  0
 22 43  1  0  0  0
 23 24  2  0  0  0
 23 44  1  0  0  0
 24 45  1  0  0  0
 25 26  2  0  0  0
 25 27  1  0  0  0
 27 46  1  0  0  0
 27 47  1  0  0  0
M  END
> <s_m_entry_id>
28318

> <s_m_entry_name>
dock_pv.479

> <s_m_Source_Path>
/home/csk/Desktop/cluster/DUD-E-result/rock1

> <s_m_Source_File>
dock_pv.maegz

> <i_m_Source_File_Index>
479

> <chembl_id>
CHEMBL3918124

> <chembl_pref_name>
None

> <i_lp_mmshare_version>
53161

> <r_lp_tautomer_probability>
0.5

> <s_lp_Force_Field>
OPLS_2005

> <r_lp_Energy>
18.435157

> <b_lp_Chiralities_Consistent>
1

> <s_lp_Variant>
CHEMBL3231_lig690-1

> <s_i_glide_gridfile>
glide-grid_2etr

> <i_i_glide_lignum>
984

> <i_i_glide_rotatable_bonds>
8

> <r_i_docking_score>
-7.40372650681891

> <r_i_glide_ligand_efficiency>
-0.274212092845145

> <r_i_glide_ligand_efficiency_sa>
-0.822636277631677

> <r_i_glide_ligand_efficiency_ln>
-1.72346547081647

> <r_i_glide_gscore>
-7.40372650681891

> <r_i_glide_lipo>
-1.97853629204003

> <r_i_glide_hbond>
-0.583694356284557

> <r_i_glide_metal>
0

> <r_i_glide_rewards>
-1.92135607037727

> <r_i_glide_evdw>
-42.7430000305176

> <r_i_glide_ecoul>
-8.27156734466553

> <r_i_glide_erotb>
0.506720213155339

> <r_i_glide_esite>
-0.048974898046681

> <r_i_glide_emodel>
-73.3567210956867

> <r_i_glide_energy>
-51.0145673751831

> <r_i_glide_einternal>
1.60189604759216

> <i_i_glide_confnum>
20

> <i_i_glide_posenum>
174

> <r_i_glide_eff_state_penalty>
0

> <s_user_duplicate_titles>
CHEMBL3231_lig690

> <i_f3d_flags>
0

> <s_m_subgroup_title>
dock_pv

> <s_m_subgroupid>
dock_pv

> <b_m_subgroup_collapsed>
1

$$$$
CHEMBL3231_lig886
                    3D
 Schrodinger Suite 2021-1.
 42 45  0  0  1  0            999 V2000
   53.4688  100.2575   30.9415 N   0  0  0  0  0  0
   53.8324  101.1057   31.8476 C   0  0  0  0  0  0
   53.2325  102.3499   31.9323 N   0  0  0  0  0  0
   52.2110  102.8433   31.1651 C   0  0  0  0  0  0
   52.5348  100.6678   30.0322 C   0  0  0  0  0  0
   51.9256  101.9218   30.0789 C   0  0  0  0  0  0
   50.8307  102.1820   28.7664 S   0  0  0  0  0  0
   51.2002  100.6053   28.1094 C   0  0  0  0  0  0
   52.0868   99.9210   28.9453 C   0  0  0  0  0  0
   50.6390  100.1518   26.8385 C   0  0  0  0  0  0
   50.1497  100.9261   25.8001 C   0  0  0  0  0  0
   49.7923  100.0530   24.8111 N   0  0  0  0  0  0
   50.0211   98.7840   25.1454 N   0  0  0  0  0  0
   50.4986   98.8310   26.3697 C   0  0  0  0  0  0
   51.6518  103.9029   31.4304 O   0  0  0  0  0  0
   50.8428   97.5473   27.0701 C   0  0  0  0  0  0
   54.8933  100.7424   32.8820 C   0  0  0  0  0  0
   54.3131  100.3978   34.1861 N   0  0  2  0  0  0
   54.0361  101.5442   35.0441 C   0  0  0  0  0  0
   53.7406  100.9506   36.4254 C   0  0  2  0  0  0
   54.5830   99.6652   36.4298 C   0  0  0  0  0  0
   55.2063   99.6134   35.0289 C   0  0  0  0  0  0
   52.2357  100.7147   36.6645 C   0  0  0  0  0  0
   53.5294  102.9602   32.6768 H   0  0  0  0  0  0
   52.4428   98.9216   28.7722 H   0  0  0  0  0  0
   50.0401  101.9924   25.6872 H   0  0  0  0  0  0
   49.3975  100.3034   23.9092 H   0  0  0  0  0  0
   51.9196   97.5031   27.2093 H   0  0  0  0  0  0
   50.3870   97.4998   28.0589 H   0  0  0  0  0  0
   50.5302   96.6617   26.5160 H   0  0  0  0  0  0
   55.4621   99.8853   32.5113 H   0  0  0  0  0  0
   55.6386  101.5343   32.9803 H   0  0  0  0  0  0
   54.8857  102.2329   35.0577 H   0  0  0  0  0  0
   53.2114  102.1387   34.6489 H   0  0  0  0  0  0
   54.0966  101.6391   37.1929 H   0  0  0  0  0  0
   53.9784   98.7760   36.6145 H   0  0  0  0  0  0
   55.3583   99.6947   37.1953 H   0  0  0  0  0  0
   55.2637   98.5974   34.6328 H   0  0  0  0  0  0
   56.2339   99.9846   35.0062 H   0  0  0  0  0  0
   51.8178  100.0190   35.9344 H   0  0  0  0  0  0
   52.0509  100.3018   37.6538 H   0  0  0  0  0  0
   51.6757  101.6472   36.5912 H   0  0  0  0  0  0
  1  5  1  0  0  0
  1  2  2  0  0  0
  2  3  1  0  0  0
  2 17  1  0  0  0
  3  4  1  0  0  0
  3 24  1  0  0  0
  4  6  1  0  0  0
  4 15  2  0  0  0
  5  6  2  0  0  0
  5  9  1  0  0  0
  6  7  1  0  0  0
  7  8  1  0  0  0
  8  9  2  0  0  0
  8 10  1  0  0  0
  9 25  1  0  0  0
 10 11  2  0  0  0
 10 14  1  0  0  0
 11 12  1  0  0  0
 11 26  1  0  0  0
 12 13  1  0  0  0
 12 27  1  0  0  0
 13 14  2  0  0  0
 14 16  1  0  0  0
 16 28  1  0  0  0
 16 29  1  0  0  0
 16 30  1  0  0  0
 17 18  1  0  0  0
 17 31  1  0  0  0
 17 32  1  0  0  0
 18 19  1  0  0  0
 18 22  1  0  0  0
 19 20  1  0  0  0
 19 33  1  0  0  0
 19 34  1  0  0  0
 20 21  1  0  0  0
 20 23  1  0  0  0
 20 35  1  0  0  0
 21 22  1  0  0  0
 21 36  1  0  0  0
 21 37  1  0  0  0
 22 38  1  0  0  0
 22 39  1  0  0  0
 23 40  1  0  0  0
 23 41  1  0  0  0
 23 42  1  0  0  0
M  END
> <s_m_entry_id>
28319

> <s_m_entry_name>
dock_pv.480

> <s_m_Source_Path>
/home/csk/Desktop/cluster/DUD-E-result/rock1

> <s_m_Source_File>
dock_pv.maegz

> <i_m_Source_File_Index>
480

> <chembl_id>
CHEMBL4095460

> <chembl_pref_name>
None

> <i_lp_mmshare_version>
53161

> <r_lp_tautomer_probability>
0.5

> <s_lp_Force_Field>
OPLS_2005

> <r_lp_Energy>
38.561467

> <b_lp_Chiralities_Consistent>
1

> <s_lp_Variant>
CHEMBL3231_lig886-1

> <s_i_glide_gridfile>
glide-grid_2etr

> <i_i_glide_lignum>
1264

> <i_i_glide_rotatable_bonds>
3

> <r_i_docking_score>
-7.40225675824762

> <r_i_glide_ligand_efficiency>
-0.321837250358592

> <r_i_glide_ligand_efficiency_sa>
-0.915262328224422

> <r_i_glide_ligand_efficiency_ln>
-1.78993280409764

> <r_i_glide_gscore>
-7.40225675824762

> <r_i_glide_lipo>
-2.00261970393552

> <r_i_glide_hbond>
-0.50666421576299

> <r_i_glide_metal>
0

> <r_i_glide_rewards>
-2.40803890909091

> <r_i_glide_evdw>
-35.6615104675293

> <r_i_glide_ecoul>
-6.75435256958008

> <r_i_glide_erotb>
0.363706373948768

> <r_i_glide_esite>
-0.0524118945934873

> <r_i_glide_emodel>
-60.9322894089624

> <r_i_glide_energy>
-42.4158630371094

> <r_i_glide_einternal>
1.86934530735016

> <i_i_glide_confnum>
23

> <i_i_glide_posenum>
362

> <r_i_glide_eff_state_penalty>
0

> <s_user_duplicate_titles>
CHEMBL3231_lig886

> <i_f3d_flags>
0

> <s_m_subgroup_title>
dock_pv

> <s_m_subgroupid>
dock_pv

> <b_m_subgroup_collapsed>
1

$$$$
CHEMBL3231_lig1597
                    3D
 Schrodinger Suite 2021-1.
 41 43  0  0  1  0            999 V2000
   54.1361  104.3674   34.3526 S   0  0  0  0  0  0
   55.2510  105.2656   34.6661 O   0  0  0  0  0  0
   54.1295  102.9928   34.8618 O   0  0  0  0  0  0
   50.3867   97.5626   26.4101 N   0  0  0  0  0  0
   50.0430   98.3013   25.3422 N   0  0  0  0  0  0
   54.0417  104.3030   32.5766 N   0  0  0  0  0  0
   49.9456  100.5680   24.8110 N   0  0  0  0  0  0
   50.7537   99.6804   27.0004 C   0  0  0  0  0  0
   50.8159   98.3443   27.4625 C   0  0  0  0  0  0
   51.6538  100.4090   29.1399 C   0  0  0  0  0  0
   50.2294   99.5503   25.6708 C   0  0  0  0  0  0
   51.1669  100.7203   27.8575 C   0  0  0  0  0  0
   52.1875  101.4670   30.0549 C   0  0  0  0  0  0
   51.2405   98.0191   28.7482 C   0  0  0  0  0  0
   51.6707   99.0693   29.5547 C   0  0  0  0  0  0
   53.3690  103.3556   31.7875 C   0  0  0  0  0  0
   52.0430  101.3612   31.4451 C   0  0  0  0  0  0
   52.8961  102.5615   29.5503 C   0  0  0  0  0  0
   52.6281  102.2889   32.3032 C   0  0  0  0  0  0
   53.4824  103.4933   30.4042 C   0  0  0  0  0  0
   52.5429  105.2417   34.8894 C   0  0  0  0  0  0
   51.2790  104.4427   34.5310 C   0  0  0  0  0  0
   49.9996  105.0918   35.0764 C   0  0  0  0  0  0
   50.3213   96.5555   26.3840 H   0  0  0  0  0  0
   54.5936  104.9964   32.0825 H   0  0  0  0  0  0
   50.4057  101.4634   24.8904 H   0  0  0  0  0  0
   49.5143  100.3720   23.9137 H   0  0  0  0  0  0
   51.1252  101.7450   27.5206 H   0  0  0  0  0  0
   51.2430   96.9992   29.1082 H   0  0  0  0  0  0
   52.0503   98.8154   30.5334 H   0  0  0  0  0  0
   51.4950  100.5371   31.8781 H   0  0  0  0  0  0
   53.0378  102.6683   28.4864 H   0  0  0  0  0  0
   52.5107  102.1385   33.3631 H   0  0  0  0  0  0
   54.0514  104.3108   29.9819 H   0  0  0  0  0  0
   52.5481  106.2200   34.4110 H   0  0  0  0  0  0
   52.6247  105.3927   35.9652 H   0  0  0  0  0  0
   51.3600  103.4296   34.9308 H   0  0  0  0  0  0
   51.1982  104.3494   33.4473 H   0  0  0  0  0  0
   49.1193  104.5049   34.8115 H   0  0  0  0  0  0
   49.8633  106.0981   34.6785 H   0  0  0  0  0  0
   50.0267  105.1646   36.1655 H   0  0  0  0  0  0
  1  2  2  0  0  0
  1  3  2  0  0  0
  1  6  1  0  0  0
  1 21  1  0  0  0
  4  5  1  0  0  0
  4  9  1  0  0  0
  4 24  1  0  0  0
  5 11  2  0  0  0
  6 16  1  0  0  0
  6 25  1  0  0  0
  7 11  1  0  0  0
  7 26  1  0  0  0
  7 27  1  0  0  0
  8  9  1  0  0  0
  8 11  1  0  0  0
  8 12  2  0  0  0
  9 14  2  0  0  0
 10 12  1  0  0  0
 10 13  1  0  0  0
 10 15  2  0  0  0
 12 28  1  0  0  0
 13 17  2  0  0  0
 13 18  1  0  0  0
 14 15  1  0  0  0
 14 29  1  0  0  0
 15 30  1  0  0  0
 16 19  2  0  0  0
 16 20  1  0  0  0
 17 19  1  0  0  0
 17 31  1  0  0  0
 18 20  2  0  0  0
 18 32  1  0  0  0
 19 33  1  0  0  0
 20 34  1  0  0  0
 21 22  1  0  0  0
 21 35  1  0  0  0
 21 36  1  0  0  0
 22 23  1  0  0  0
 22 37  1  0  0  0
 22 38  1  0  0  0
 23 39  1  0  0  0
 23 40  1  0  0  0
 23 41  1  0  0  0
M  END
> <s_m_entry_id>
28320

> <s_m_entry_name>
dock_pv.481

> <s_m_Source_Path>
/home/csk/Desktop/cluster/DUD-E-result/rock1

> <s_m_Source_File>
dock_pv.maegz

> <i_m_Source_File_Index>
481

> <chembl_id>
CHEMBL1992342

> <chembl_pref_name>
None

> <i_lp_mmshare_version>
53161

> <r_lp_tautomer_probability>
1

> <s_lp_Force_Field>
OPLS_2005

> <r_lp_Energy>
5.873344

> <b_lp_Chiralities_Consistent>
1

> <s_lp_Variant>
CHEMBL3231_lig1597-1

> <s_i_glide_gridfile>
glide-grid_2etr

> <i_i_glide_lignum>
2267

> <i_i_glide_rotatable_bonds>
5

> <r_i_docking_score>
-7.40179354517406

> <r_i_glide_ligand_efficiency>
-0.321817110659742

> <r_i_glide_ligand_efficiency_sa>
-0.915205053599937

> <r_i_glide_ligand_efficiency_ln>
-1.78982079497627

> <r_i_glide_gscore>
-7.40179354517406

> <r_i_glide_lipo>
-1.8591237804786

> <r_i_glide_hbond>
-0.717457879721601

> <r_i_glide_metal>
0

> <r_i_glide_rewards>
-2.2679913030303

> <r_i_glide_evdw>
-38.3763580322266

> <r_i_glide_ecoul>
-6.44130992889404

> <r_i_glide_erotb>
0.482390253069186

> <r_i_glide_esite>
-0.15459644406731

> <r_i_glide_emodel>
-64.3835248485072

> <r_i_glide_energy>
-44.8176679611206

> <r_i_glide_einternal>
1.242995262146

> <i_i_glide_confnum>
15

> <i_i_glide_posenum>
116

> <r_i_glide_eff_state_penalty>
0

> <s_user_duplicate_titles>
CHEMBL3231_lig1597

> <i_f3d_flags>
0

> <s_m_subgroup_title>
dock_pv

> <s_m_subgroupid>
dock_pv

> <b_m_subgroup_collapsed>
1

$$$$
CHEMBL3231_lig1688
                    3D
 Schrodinger Suite 2021-1.
 36 39  0  0  1  0            999 V2000
   50.4430   97.1035   26.4107 N   0  0  0  0  0  0
   50.3915   98.4022   26.0195 C   0  0  0  0  0  0
   50.0427   98.7487   24.8120 N   0  0  0  0  0  0
   50.0050  100.0884   24.7894 N   0  0  0  0  0  0
   50.3657  100.6312   26.0039 C   0  0  0  0  0  0
   50.4430  101.9462   26.4455 C   0  0  0  0  0  0
   50.8426  102.1475   27.7632 C   0  0  0  0  0  0
   51.2032  101.1011   28.6184 C   0  0  0  0  0  0
   51.1176   99.7781   28.1601 C   0  0  0  0  0  0
   50.6742   99.5368   26.8443 C   0  0  0  0  0  0
   51.6428  101.4257   30.0183 C   0  0  0  0  0  0
   52.0429  100.5750   31.0492 C   0  0  0  0  0  0
   52.2375  101.3945   32.1338 N   0  0  0  0  0  0
   52.5663  101.0389   33.5114 C   0  0  0  0  0  0
   51.5816  101.6033   34.5350 C   0  0  0  0  0  0
   50.3905  100.9261   34.8099 C   0  0  0  0  0  0
   49.4546  101.4865   35.6759 C   0  0  0  0  0  0
   49.7228  102.7088   36.2870 C   0  0  0  0  0  0
   50.9173  103.3791   36.0354 C   0  0  0  0  0  0
   51.8468  102.8278   35.1560 C   0  0  0  0  0  0
   52.0275  102.6720   31.8034 N   0  0  0  0  0  0
   51.6594  102.6720   30.4755 N   0  0  0  0  0  0
   50.8729   96.8360   27.2865 H   0  0  0  0  0  0
   50.2386   96.3505   25.7728 H   0  0  0  0  0  0
   49.7162  100.5697   23.9462 H   0  0  0  0  0  0
   50.1858  102.7819   25.8140 H   0  0  0  0  0  0
   50.8889  103.1689   28.1130 H   0  0  0  0  0  0
   51.3663   98.9542   28.8116 H   0  0  0  0  0  0
   52.1583   99.5039   31.1194 H   0  0  0  0  0  0
   53.5783  101.3922   33.7169 H   0  0  0  0  0  0
   52.6079   99.9515   33.5941 H   0  0  0  0  0  0
   50.1752   99.9824   34.3292 H   0  0  0  0  0  0
   48.5244  100.9760   35.8791 H   0  0  0  0  0  0
   48.9967  103.1369   36.9626 H   0  0  0  0  0  0
   51.1192  104.3291   36.5079 H   0  0  0  0  0  0
   52.7617  103.3622   34.9409 H   0  0  0  0  0  0
  1  2  1  0  0  0
  1 23  1  0  0  0
  1 24  1  0  0  0
  2  3  2  0  0  0
  2 10  1  0  0  0
  3  4  1  0  0  0
  4  5  1  0  0  0
  4 25  1  0  0  0
  5  6  2  0  0  0
  5 10  1  0  0  0
  6  7  1  0  0  0
  6 26  1  0  0  0
  7  8  2  0  0  0
  7 27  1  0  0  0
  8  9  1  0  0  0
  8 11  1  0  0  0
  9 10  2  0  0  0
  9 28  1  0  0  0
 11 12  2  0  0  0
 11 22  1  0  0  0
 12 13  1  0  0  0
 12 29  1  0  0  0
 13 14  1  0  0  0
 13 21  1  0  0  0
 14 15  1  0  0  0
 14 30  1  0  0  0
 14 31  1  0  0  0
 15 16  2  0  0  0
 15 20  1  0  0  0
 16 17  1  0  0  0
 16 32  1  0  0  0
 17 18  2  0  0  0
 17 33  1  0  0  0
 18 19  1  0  0  0
 18 34  1  0  0  0
 19 20  2  0  0  0
 19 35  1  0  0  0
 20 36  1  0  0  0
 21 22  2  0  0  0
M  END
> <s_m_entry_id>
28321

> <s_m_entry_name>
dock_pv.482

> <s_m_Source_Path>
/home/csk/Desktop/cluster/DUD-E-result/rock1

> <s_m_Source_File>
dock_pv.maegz

> <i_m_Source_File_Index>
482

> <chembl_id>
CHEMBL1682346

> <chembl_pref_name>
None

> <i_lp_mmshare_version>
53161

> <r_lp_tautomer_probability>
1

> <s_lp_Force_Field>
OPLS_2005

> <r_lp_Energy>
12.470927

> <b_lp_Chiralities_Consistent>
1

> <s_lp_Variant>
CHEMBL3231_lig1688-1

> <s_i_glide_gridfile>
glide-grid_2etr

> <i_i_glide_lignum>
2405

> <i_i_glide_rotatable_bonds>
3

> <r_i_docking_score>
-7.40025268351141

> <r_i_glide_ligand_efficiency>
-0.336375121977791

> <r_i_glide_ligand_efficiency_sa>
-0.942536320664634

> <r_i_glide_ligand_efficiency_ln>
-1.80889168662539

> <r_i_glide_gscore>
-7.40025268351141

> <r_i_glide_lipo>
-2.73975397702678

> <r_i_glide_hbond>
-0.276614335536465

> <r_i_glide_metal>
0

> <r_i_glide_rewards>
-2.46565564830593

> <r_i_glide_evdw>
-36.0971565246582

> <r_i_glide_ecoul>
-3.15149164199829

> <r_i_glide_erotb>
0.454026227099816

> <r_i_glide_esite>
-0.0946733772093917

> <r_i_glide_emodel>
-56.1718894785548

> <r_i_glide_energy>
-39.2486481666565

> <r_i_glide_einternal>
0.762133300304413

> <i_i_glide_confnum>
3

> <i_i_glide_posenum>
342

> <r_i_glide_eff_state_penalty>
0

> <s_user_duplicate_titles>
CHEMBL3231_lig1688

> <i_f3d_flags>
0

> <s_m_subgroup_title>
dock_pv

> <s_m_subgroupid>
dock_pv

> <b_m_subgroup_collapsed>
1

$$$$
CHEMBL3231_lig1525
                    3D
 Schrodinger Suite 2021-1.
 42 45  0  0  1  0            999 V2000
   53.5944  100.5236   31.5779 N   0  0  0  0  0  0
   53.7880  102.7210   32.6389 C   0  0  0  0  0  0
   52.6732  100.9925   30.6026 C   0  0  0  0  0  0
   54.1523  101.4210   32.4811 C   0  0  0  0  0  0
   52.6536  103.2330   31.8246 C   0  0  0  0  0  0
   52.2239  102.3267   30.7021 C   0  0  0  0  0  0
   53.8712   99.1528   31.7808 C   0  0  0  0  0  0
   54.5310  103.5316   33.6055 C   0  0  0  0  0  0
   52.2128  100.1899   29.5448 C   0  0  0  0  0  0
   53.3591   98.4609   32.8985 C   0  0  0  0  0  0
   51.3106  102.8035   29.7530 C   0  0  0  0  0  0
   51.3283  100.6835   28.5740 C   0  0  0  0  0  0
   53.6762   97.1162   33.0994 C   0  0  0  0  0  0
   54.6634   98.4564   30.8608 C   0  0  0  0  0  0
   52.0713  104.3035   32.0078 O   0  0  0  0  0  0
   50.8694  101.9965   28.7139 C   0  0  0  0  0  0
   55.3372  103.0635   34.4066 O   0  0  0  0  0  0
   50.0430   98.3026   25.2110 N   0  0  0  0  0  0
   50.8937   99.8523   27.4100 C   0  0  0  0  0  0
   54.3196  104.8484   33.6110 N   0  0  0  0  0  0
   54.4853   96.4426   32.1890 C   0  0  0  0  0  0
   52.3501   99.2386   34.0721 Cl  0  0  0  0  0  0
   54.9462   97.1038   31.0552 C   0  0  0  0  0  0
   54.8432   95.1392   32.4110 O   0  0  0  0  0  0
   50.3946   97.7224   26.3830 C   0  0  0  0  0  0
   50.1282   99.6505   25.1223 C   0  0  0  0  0  0
   50.8106   98.4530   27.4963 C   0  0  0  0  0  0
   50.5551  100.4488   26.1820 C   0  0  0  0  0  0
   54.9829  101.0050   33.0432 H   0  0  0  0  0  0
   52.5739   99.1790   29.4507 H   0  0  0  0  0  0
   50.9445  103.8187   29.7937 H   0  0  0  0  0  0
   53.2967   96.5995   33.9680 H   0  0  0  0  0  0
   55.0802   98.9682   30.0049 H   0  0  0  0  0  0
   50.1700  102.4154   28.0056 H   0  0  0  0  0  0
   54.8237  105.4300   34.2575 H   0  0  0  0  0  0
   53.6654  105.2739   32.9640 H   0  0  0  0  0  0
   55.5852   96.5843   30.3555 H   0  0  0  0  0  0
   54.6743   94.8450   33.3079 H   0  0  0  0  0  0
   50.3317   96.6449   26.4178 H   0  0  0  0  0  0
   49.8539  100.0896   24.1727 H   0  0  0  0  0  0
   51.0539   97.9297   28.4091 H   0  0  0  0  0  0
   50.6188  101.5168   26.0377 H   0  0  0  0  0  0
  1  3  1  0  0  0
  1  4  1  0  0  0
  1  7  1  0  0  0
  2  4  2  0  0  0
  2  5  1  0  0  0
  2  8  1  0  0  0
  3  6  1  0  0  0
  3  9  2  0  0  0
  4 29  1  0  0  0
  5 15  2  0  0  0
  5  6  1  0  0  0
  6 11  2  0  0  0
  7 10  1  0  0  0
  7 14  2  0  0  0
  8 17  2  0  0  0
  8 20  1  0  0  0
  9 12  1  0  0  0
  9 30  1  0  0  0
 10 13  2  0  0  0
 10 22  1  0  0  0
 11 16  1  0  0  0
 11 31  1  0  0  0
 12 16  2  0  0  0
 12 19  1  0  0  0
 13 21  1  0  0  0
 13 32  1  0  0  0
 14 23  1  0  0  0
 14 33  1  0  0  0
 16 34  1  0  0  0
 18 26  2  0  0  0
 18 25  1  0  0  0
 19 27  1  0  0  0
 19 28  2  0  0  0
 20 35  1  0  0  0
 20 36  1  0  0  0
 21 23  2  0  0  0
 21 24  1  0  0  0
 23 37  1  0  0  0
 24 38  1  0  0  0
 25 27  2  0  0  0
 25 39  1  0  0  0
 26 28  1  0  0  0
 26 40  1  0  0  0
 27 41  1  0  0  0
 28 42  1  0  0  0
M  END
> <s_m_entry_id>
28322

> <s_m_entry_name>
dock_pv.483

> <s_m_Source_Path>
/home/csk/Desktop/cluster/DUD-E-result/rock1

> <s_m_Source_File>
dock_pv.maegz

> <i_m_Source_File_Index>
483

> <chembl_id>
CHEMBL340384

> <chembl_pref_name>
None

> <i_lp_mmshare_version>
53161

> <r_lp_tautomer_probability>
1

> <s_lp_Force_Field>
OPLS_2005

> <r_lp_Energy>
29.66373

> <b_lp_Chiralities_Consistent>
1

> <s_lp_Variant>
CHEMBL3231_lig1525-1

> <s_i_glide_gridfile>
glide-grid_2etr

> <i_i_glide_lignum>
2163

> <i_i_glide_rotatable_bonds>
4

> <r_i_docking_score>
-7.39887313608703

> <r_i_glide_ligand_efficiency>
-0.264245469145965

> <r_i_glide_ligand_efficiency_sa>
-0.80240487658549

> <r_i_glide_ligand_efficiency_ln>
-1.70787716016385

> <r_i_glide_gscore>
-7.39887313608703

> <r_i_glide_lipo>
-2.18140449312299

> <r_i_glide_hbond>
-0.322323872740517

> <r_i_glide_metal>
0

> <r_i_glide_rewards>
-2.14601383333333

> <r_i_glide_evdw>
-46.4170913696289

> <r_i_glide_ecoul>
-3.95446801185608

> <r_i_glide_erotb>
0.254290105611431

> <r_i_glide_esite>
-0.0893962722417607

> <r_i_glide_emodel>
-71.1171696940516

> <r_i_glide_energy>
-50.371559381485

> <r_i_glide_einternal>
1.44520246982574

> <i_i_glide_confnum>
5

> <i_i_glide_posenum>
68

> <r_i_glide_eff_state_penalty>
0

> <s_user_duplicate_titles>
CHEMBL3231_lig1525

> <i_f3d_flags>
0

> <s_m_subgroup_title>
dock_pv

> <s_m_subgroupid>
dock_pv

> <b_m_subgroup_collapsed>
1

$$$$
CHEMBL3231_lig1439
                    3D
 Schrodinger Suite 2021-1.
 33 36  0  0  1  0            999 V2000
   50.5127  102.5396   28.2521 O   0  0  0  0  0  0
   53.3066  103.4625   33.2131 N   0  0  0  0  0  0
   53.6432  103.9027   30.8369 N   0  0  0  0  0  0
   53.3257  103.2985   29.6765 N   0  0  0  0  0  0
   52.2300  101.2739   29.0698 N   0  0  0  0  0  0
   50.2047   98.2807   25.5425 N   0  0  0  0  0  0
   52.5694  102.0356   31.3974 C   0  0  0  0  0  0
   53.1930  103.1813   31.9189 C   0  0  0  0  0  0
   52.6907  102.1891   29.9854 C   0  0  0  0  0  0
   52.1371  101.3784   33.7083 C   0  0  0  0  0  0
   52.7894  102.5841   34.1171 C   0  0  0  0  0  0
   52.0416  101.1209   32.3168 C   0  0  0  0  0  0
   51.1765  101.4994   28.2596 C   0  0  0  0  0  0
   51.6216  100.5009   34.6900 C   0  0  0  0  0  0
   52.9028  102.8729   35.4968 C   0  0  0  0  0  0
   50.8439  100.3694   27.3186 C   0  0  0  0  0  0
   51.7522  100.8169   36.0402 C   0  0  0  0  0  0
   52.3843  101.9891   36.4403 C   0  0  0  0  0  0
   51.0310   99.0253   27.6867 C   0  0  0  0  0  0
   50.3371  100.6438   26.0396 C   0  0  0  0  0  0
   50.7012   98.0214   26.7770 C   0  0  0  0  0  0
   50.0415   99.5794   25.1871 C   0  0  0  0  0  0
   54.1880  104.7599   30.8436 H   0  0  0  0  0  0
   52.7078  100.3872   29.0247 H   0  0  0  0  0  0
   51.5573  100.2170   31.9777 H   0  0  0  0  0  0
   51.1335   99.5862   34.3903 H   0  0  0  0  0  0
   53.3977  103.7802   35.8106 H   0  0  0  0  0  0
   51.3646  100.1441   36.7893 H   0  0  0  0  0  0
   52.4756  102.2128   37.4927 H   0  0  0  0  0  0
   51.4085   98.7504   28.6615 H   0  0  0  0  0  0
   50.1751  101.6607   25.7063 H   0  0  0  0  0  0
   50.8378   96.9809   27.0352 H   0  0  0  0  0  0
   49.6479   99.7603   24.1963 H   0  0  0  0  0  0
  1 13  2  0  0  0
  2  8  2  0  0  0
  2 11  1  0  0  0
  3  4  1  0  0  0
  3  8  1  0  0  0
  3 23  1  0  0  0
  4  9  2  0  0  0
  5  9  1  0  0  0
  5 13  1  0  0  0
  5 24  1  0  0  0
  6 21  2  0  0  0
  6 22  1  0  0  0
  7  8  1  0  0  0
  7  9  1  0  0  0
  7 12  2  0  0  0
 10 11  1  0  0  0
 10 12  1  0  0  0
 10 14  2  0  0  0
 11 15  2  0  0  0
 12 25  1  0  0  0
 13 16  1  0  0  0
 14 17  1  0  0  0
 14 26  1  0  0  0
 15 18  1  0  0  0
 15 27  1  0  0  0
 16 19  2  0  0  0
 16 20  1  0  0  0
 17 18  2  0  0  0
 17 28  1  0  0  0
 18 29  1  0  0  0
 19 21  1  0  0  0
 19 30  1  0  0  0
 20 22  2  0  0  0
 20 31  1  0  0  0
 21 32  1  0  0  0
 22 33  1  0  0  0
M  END
> <s_m_entry_id>
28323

> <s_m_entry_name>
dock_pv.484

> <s_m_Source_Path>
/home/csk/Desktop/cluster/DUD-E-result/rock1

> <s_m_Source_File>
dock_pv.maegz

> <i_m_Source_File_Index>
484

> <chembl_id>
CHEMBL1990415

> <chembl_pref_name>
None

> <i_lp_mmshare_version>
53161

> <r_lp_tautomer_probability>
1

> <s_lp_Force_Field>
OPLS_2005

> <r_lp_Energy>
23.137837

> <b_lp_Chiralities_Consistent>
1

> <s_lp_Variant>
CHEMBL3231_lig1439-1

> <s_i_glide_gridfile>
glide-grid_2etr

> <i_i_glide_lignum>
2019

> <i_i_glide_rotatable_bonds>
3

> <r_i_docking_score>
-7.39852631103978

> <r_i_glide_ligand_efficiency>
-0.336296650501808

> <r_i_glide_ligand_efficiency_sa>
-0.942316440502821

> <r_i_glide_ligand_efficiency_ln>
-1.80846969822236

> <r_i_glide_gscore>
-7.39852631103978

> <r_i_glide_lipo>
-1.85328684285999

> <r_i_glide_hbond>
-0.354569082536265

> <r_i_glide_metal>
0

> <r_i_glide_rewards>
-2.99455000008751

> <r_i_glide_evdw>
-38.8057098388672

> <r_i_glide_ecoul>
-5.37484359741211

> <r_i_glide_erotb>
0.65264482925432

> <r_i_glide_esite>
-0.10225318325515

> <r_i_glide_emodel>
-62.6930661631875

> <r_i_glide_energy>
-44.1805534362793

> <r_i_glide_einternal>
4.10702037811279

> <i_i_glide_confnum>
7

> <i_i_glide_posenum>
364

> <r_i_glide_eff_state_penalty>
0

> <s_user_duplicate_titles>
CHEMBL3231_lig1439

> <i_f3d_flags>
0

> <s_m_subgroup_title>
dock_pv

> <s_m_subgroupid>
dock_pv

> <b_m_subgroup_collapsed>
1

$$$$
CHEMBL3231_lig926
                    3D
 Schrodinger Suite 2021-1.
 39 42  0  0  1  0            999 V2000
   53.3896  100.1903   30.9054 N   0  0  0  0  0  0
   53.6777  100.9434   31.9201 C   0  0  0  0  0  0
   53.1082  102.2018   32.0316 N   0  0  0  0  0  0
   52.1931  102.7992   31.2061 C   0  0  0  0  0  0
   52.5076  100.6685   29.9802 C   0  0  0  0  0  0
   51.9117  101.9262   30.0778 C   0  0  0  0  0  0
   50.8426  102.2581   28.7591 S   0  0  0  0  0  0
   51.1817  100.6955   28.0537 C   0  0  0  0  0  0
   52.0836   99.9806   28.8423 C   0  0  0  0  0  0
   50.5723  100.2826   26.7962 C   0  0  0  0  0  0
   50.1131  101.1033   25.7816 C   0  0  0  0  0  0
   49.6429  100.2702   24.8105 N   0  0  0  0  0  0
   49.7797   98.9853   25.1223 N   0  0  0  0  0  0
   50.3177   98.9788   26.3211 C   0  0  0  0  0  0
   51.7152  103.9020   31.4603 O   0  0  0  0  0  0
   50.5781   97.6559   26.9874 C   0  0  0  0  0  0
   54.6310  100.5037   33.0596 C   0  0  2  0  0  0
   55.3787   99.2524   32.8300 N   0  0  1  0  0  0
   54.6152   98.0031   32.9209 C   0  0  0  0  0  0
   53.8373   97.9058   34.2490 C   0  0  0  0  0  0
   53.0031   99.1624   34.5464 C   0  0  0  0  0  0
   53.8907  100.4170   34.4262 C   0  0  0  0  0  0
   53.3782  102.7690   32.8193 H   0  0  0  0  0  0
   52.4427   98.9928   28.6039 H   0  0  0  0  0  0
   50.0789  102.1771   25.6697 H   0  0  0  0  0  0
   49.2428  100.5595   23.9233 H   0  0  0  0  0  0
   51.6448   97.5030   27.1285 H   0  0  0  0  0  0
   50.1129   97.6039   27.9718 H   0  0  0  0  0  0
   50.2093   96.8055   26.4108 H   0  0  0  0  0  0
   55.3880  101.2855   33.1397 H   0  0  0  0  0  0
   55.9363   99.2775   31.9807 H   0  0  0  0  0  0
   55.3247   97.1770   32.8473 H   0  0  0  0  0  0
   53.9373   97.9110   32.0714 H   0  0  0  0  0  0
   54.5357   97.6975   35.0609 H   0  0  0  0  0  0
   53.1839   97.0337   34.2103 H   0  0  0  0  0  0
   52.5650   99.0995   35.5434 H   0  0  0  0  0  0
   52.1707   99.2271   33.8438 H   0  0  0  0  0  0
   54.6396  100.3860   35.2198 H   0  0  0  0  0  0
   53.3033  101.3143   34.6247 H   0  0  0  0  0  0
  1  5  1  0  0  0
  1  2  2  0  0  0
  2  3  1  0  0  0
  2 17  1  0  0  0
  3  4  1  0  0  0
  3 23  1  0  0  0
  4  6  1  0  0  0
  4 15  2  0  0  0
  5  6  2  0  0  0
  5  9  1  0  0  0
  6  7  1  0  0  0
  7  8  1  0  0  0
  8  9  2  0  0  0
  8 10  1  0  0  0
  9 24  1  0  0  0
 10 11  2  0  0  0
 10 14  1  0  0  0
 11 12  1  0  0  0
 11 25  1  0  0  0
 12 13  1  0  0  0
 12 26  1  0  0  0
 13 14  2  0  0  0
 14 16  1  0  0  0
 16 27  1  0  0  0
 16 28  1  0  0  0
 16 29  1  0  0  0
 17 18  1  0  0  0
 17 22  1  0  0  0
 17 30  1  0  0  0
 18 19  1  0  0  0
 18 31  1  0  0  0
 19 20  1  0  0  0
 19 32  1  0  0  0
 19 33  1  0  0  0
 20 21  1  0  0  0
 20 34  1  0  0  0
 20 35  1  0  0  0
 21 22  1  0  0  0
 21 36  1  0  0  0
 21 37  1  0  0  0
 22 38  1  0  0  0
 22 39  1  0  0  0
M  END
> <s_m_entry_id>
28324

> <s_m_entry_name>
dock_pv.485

> <s_m_Source_Path>
/home/csk/Desktop/cluster/DUD-E-result/rock1

> <s_m_Source_File>
dock_pv.maegz

> <i_m_Source_File_Index>
485

> <chembl_id>
CHEMBL4587191

> <chembl_pref_name>
None

> <i_lp_mmshare_version>
53161

> <r_lp_tautomer_probability>
0.5

> <s_lp_Force_Field>
OPLS_2005

> <r_lp_Energy>
27.279529

> <b_lp_Chiralities_Consistent>
1

> <s_lp_Variant>
CHEMBL3231_lig926-1

> <s_i_glide_gridfile>
glide-grid_2etr

> <i_i_glide_lignum>
1327

> <i_i_glide_rotatable_bonds>
2

> <r_i_docking_score>
-7.39491926207333

> <r_i_glide_ligand_efficiency>
-0.336132693730606

> <r_i_glide_ligand_efficiency_sa>
-0.941857027181859

> <r_i_glide_ligand_efficiency_ln>
-1.80758800388465

> <r_i_glide_gscore>
-7.39491926207333

> <r_i_glide_lipo>
-1.94783042708695

> <r_i_glide_hbond>
-0.453198104435305

> <r_i_glide_metal>
0

> <r_i_glide_rewards>
-2.49534134848485

> <r_i_glide_evdw>
-37.4138031005859

> <r_i_glide_ecoul>
-6.37252759933472

> <r_i_glide_erotb>
0.374008535043389

> <r_i_glide_esite>
-0.0459886221801105

> <r_i_glide_emodel>
-63.0453700560871

> <r_i_glide_energy>
-43.7863306999207

> <r_i_glide_einternal>
0.0458215586841106

> <i_i_glide_confnum>
17

> <i_i_glide_posenum>
157

> <r_i_glide_eff_state_penalty>
0

> <s_user_duplicate_titles>
CHEMBL3231_lig926

> <i_f3d_flags>
0

> <s_m_subgroup_title>
dock_pv

> <s_m_subgroupid>
dock_pv

> <b_m_subgroup_collapsed>
1

$$$$
CHEMBL3231_lig702
                    3D
 Schrodinger Suite 2021-1.
 44 46  0  0  1  0            999 V2000
   51.2554   97.2354   30.4112 C   0  0  0  0  0  0
   51.2331   98.0276   29.2281 O   0  0  0  0  0  0
   51.6392   99.3485   29.2767 C   0  0  0  0  0  0
   52.2896   99.9077   30.3923 C   0  0  0  0  0  0
   52.6600  101.2610   30.4297 C   0  0  0  0  0  0
   52.3571  102.0606   29.3221 C   0  0  0  0  0  0
   51.7086  101.5186   28.2187 C   0  0  0  0  0  0
   51.3630  100.1677   28.1651 C   0  0  0  0  0  0
   50.7211   99.6857   26.8932 C   0  0  0  0  0  0
   50.0883  100.4385   25.9065 C   0  0  0  0  0  0
   49.7162   99.5630   24.9247 N   0  0  0  0  0  0
   50.0430   98.3031   25.2111 N   0  0  0  0  0  0
   50.6370   98.3785   26.3797 C   0  0  0  0  0  0
   53.3840  101.8184   31.6365 C   0  0  0  0  0  0
   53.9619  101.0703   32.4257 O   0  0  0  0  0  0
   53.3118  103.1521   31.8169 N   0  0  0  0  0  0
   53.9723  103.9169   32.8838 C   0  0  0  0  0  0
   53.6351  103.5188   34.3473 C   0  0  1  0  0  0
   54.2654  104.4435   35.2162 O   0  0  0  0  0  0
   52.1363  103.3697   34.6403 C   0  0  0  0  0  0
   51.5526  102.0951   34.6610 C   0  0  0  0  0  0
   50.1994  101.9387   34.9640 C   0  0  0  0  0  0
   49.4150  103.0558   35.2494 C   0  0  0  0  0  0
   49.9834  104.3312   35.2294 C   0  0  0  0  0  0
   49.0149  105.7099   35.6114 Cl  0  0  0  0  0  0
   51.3357  104.4883   34.9137 C   0  0  0  0  0  0
   50.8430   96.2534   30.1836 H   0  0  0  0  0  0
   52.2693   97.0867   30.7867 H   0  0  0  0  0  0
   50.6451   97.6756   31.2023 H   0  0  0  0  0  0
   52.5232   99.2877   31.2452 H   0  0  0  0  0  0
   52.6367  103.1031   29.2872 H   0  0  0  0  0  0
   51.4893  102.1647   27.3861 H   0  0  0  0  0  0
   49.8865  101.4948   25.8087 H   0  0  0  0  0  0
   49.2449   99.8189   24.0637 H   0  0  0  0  0  0
   51.0298   97.4911   26.8533 H   0  0  0  0  0  0
   52.8550  103.6962   31.1040 H   0  0  0  0  0  0
   53.7118  104.9657   32.7316 H   0  0  0  0  0  0
   55.0528  103.8711   32.7282 H   0  0  0  0  0  0
   54.1180  102.5636   34.5584 H   0  0  0  0  0  0
   54.1755  104.1128   36.1137 H   0  0  0  0  0  0
   52.1527  101.2193   34.4517 H   0  0  0  0  0  0
   49.7611  100.9507   34.9835 H   0  0  0  0  0  0
   48.3697  102.9302   35.4959 H   0  0  0  0  0  0
   51.7711  105.4785   34.8992 H   0  0  0  0  0  0
  1  2  1  0  0  0
  1 27  1  0  0  0
  1 28  1  0  0  0
  1 29  1  0  0  0
  2  3  1  0  0  0
  3  4  2  0  0  0
  3  8  1  0  0  0
  4  5  1  0  0  0
  4 30  1  0  0  0
  5  6  2  0  0  0
  5 14  1  0  0  0
  6  7  1  0  0  0
  6 31  1  0  0  0
  7  8  2  0  0  0
  7 32  1  0  0  0
  8  9  1  0  0  0
  9 10  2  0  0  0
  9 13  1  0  0  0
 10 11  1  0  0  0
 10 33  1  0  0  0
 11 12  1  0  0  0
 11 34  1  0  0  0
 12 13  2  0  0  0
 13 35  1  0  0  0
 14 15  2  0  0  0
 14 16  1  0  0  0
 16 17  1  0  0  0
 16 36  1  0  0  0
 17 18  1  0  0  0
 17 37  1  0  0  0
 17 38  1  0  0  0
 18 19  1  0  0  0
 18 20  1  0  0  0
 18 39  1  0  0  0
 19 40  1  0  0  0
 20 21  2  0  0  0
 20 26  1  0  0  0
 21 22  1  0  0  0
 21 41  1  0  0  0
 22 23  2  0  0  0
 22 42  1  0  0  0
 23 24  1  0  0  0
 23 43  1  0  0  0
 24 25  1  0  0  0
 24 26  2  0  0  0
 26 44  1  0  0  0
M  END
> <s_m_entry_id>
28325

> <s_m_entry_name>
dock_pv.486

> <s_m_Source_Path>
/home/csk/Desktop/cluster/DUD-E-result/rock1

> <s_m_Source_File>
dock_pv.maegz

> <i_m_Source_File_Index>
486

> <chembl_id>
CHEMBL4109715

> <chembl_pref_name>
None

> <i_lp_mmshare_version>
53161

> <r_lp_tautomer_probability>
0.5

> <s_lp_Force_Field>
OPLS_2005

> <r_lp_Energy>
21.040019

> <b_lp_Chiralities_Consistent>
1

> <s_lp_Variant>
CHEMBL3231_lig702-1

> <s_i_glide_gridfile>
glide-grid_2etr

> <i_i_glide_lignum>
999

> <i_i_glide_rotatable_bonds>
8

> <r_i_docking_score>
-7.39393589252168

> <r_i_glide_ligand_efficiency>
-0.284382149712372

> <r_i_glide_ligand_efficiency_sa>
-0.842480999533178

> <r_i_glide_ligand_efficiency_ln>
-1.7364415828762

> <r_i_glide_gscore>
-7.39393589252168

> <r_i_glide_lipo>
-2.42433763317593

> <r_i_glide_hbond>
-0.535472120472372

> <r_i_glide_metal>
0

> <r_i_glide_rewards>
-1.89715547047668

> <r_i_glide_evdw>
-44.9107894897461

> <r_i_glide_ecoul>
-4.77182817459106

> <r_i_glide_erotb>
0.4887996001085

> <r_i_glide_esite>
-0.0644565678292373

> <r_i_glide_emodel>
-69.9217697034736

> <r_i_glide_energy>
-49.6826176643372

> <r_i_glide_einternal>
4.66719341278076

> <i_i_glide_confnum>
24

> <i_i_glide_posenum>
259

> <r_i_glide_eff_state_penalty>
0

> <s_user_duplicate_titles>
CHEMBL3231_lig702,CHEMBL3231_lig706

> <i_f3d_flags>
0

> <s_m_subgroup_title>
dock_pv

> <s_m_subgroupid>
dock_pv

> <b_m_subgroup_collapsed>
1

$$$$
CHEMBL3231_lig669
                    3D
 Schrodinger Suite 2021-1.
 48 50  0  0  1  0            999 V2000
   51.2585   97.3415   30.3932 C   0  0  0  0  0  0
   51.2387   98.1268   29.2036 O   0  0  0  0  0  0
   51.5446   99.4757   29.2572 C   0  0  0  0  0  0
   52.1336  100.0675   30.3878 C   0  0  0  0  0  0
   52.4197  101.4391   30.4457 C   0  0  0  0  0  0
   52.0708  102.2303   29.3429 C   0  0  0  0  0  0
   51.4892  101.6568   28.2167 C   0  0  0  0  0  0
   51.2445  100.2821   28.1397 C   0  0  0  0  0  0
   50.6755   99.7555   26.8485 C   0  0  0  0  0  0
   50.1399  100.4709   25.7757 C   0  0  0  0  0  0
   49.7970   99.5552   24.8190 N   0  0  0  0  0  0
   50.0431   98.3034   25.2099 N   0  0  0  0  0  0
   50.5772   98.4235   26.4009 C   0  0  0  0  0  0
   53.0978  102.0154   31.6744 C   0  0  0  0  0  0
   53.3409  101.2966   32.6473 O   0  0  0  0  0  0
   53.4099  103.3294   31.6370 N   0  0  0  0  0  0
   54.2134  104.0768   32.6113 C   0  0  0  0  0  0
   53.9370  103.8224   34.0900 C   0  0  0  0  0  0
   54.8378  103.0580   34.8395 C   0  0  0  0  0  0
   54.6105  102.8349   36.1957 C   0  0  0  0  0  0
   53.4883  103.3829   36.8121 C   0  0  0  0  0  0
   52.5830  104.1604   36.0833 C   0  0  0  0  0  0
   51.4804  104.6715   36.7849 N   0  0  0  0  0  0
   50.2372  105.7488   36.1338 S   0  0  0  0  0  0
   49.2441  105.9015   37.2019 O   0  0  0  0  0  0
   49.8422  105.2563   34.8116 O   0  0  0  0  0  0
   51.1659  107.3684   35.9394 C   0  0  0  0  0  0
   52.8231  104.3906   34.7186 C   0  0  0  0  0  0
   50.9007   96.3386   30.1591 H   0  0  0  0  0  0
   52.2640   97.2404   30.8017 H   0  0  0  0  0  0
   50.6005   97.7547   31.1587 H   0  0  0  0  0  0
   52.3939   99.4525   31.2357 H   0  0  0  0  0  0
   52.2545  103.2953   29.3257 H   0  0  0  0  0  0
   51.2431  102.3021   27.3880 H   0  0  0  0  0  0
   49.9842  101.5265   25.6085 H   0  0  0  0  0  0
   49.3794   99.7737   23.9177 H   0  0  0  0  0  0
   50.9030   97.5445   26.9344 H   0  0  0  0  0  0
   53.3184  103.7818   30.7400 H   0  0  0  0  0  0
   54.0511  105.1378   32.4135 H   0  0  0  0  0  0
   55.2688  103.9029   32.3914 H   0  0  0  0  0  0
   55.7063  102.6182   34.3680 H   0  0  0  0  0  0
   55.3039  102.2287   36.7633 H   0  0  0  0  0  0
   53.3251  103.1928   37.8629 H   0  0  0  0  0  0
   51.4320  104.4842   37.7740 H   0  0  0  0  0  0
   50.4745  108.1217   35.5674 H   0  0  0  0  0  0
   51.9786  107.2280   35.2275 H   0  0  0  0  0  0
   51.5616  107.6672   36.9078 H   0  0  0  0  0  0
   52.1609  105.0023   34.1288 H   0  0  0  0  0  0
  1  2  1  0  0  0
  1 29  1  0  0  0
  1 30  1  0  0  0
  1 31  1  0  0  0
  2  3  1  0  0  0
  3  4  2  0  0  0
  3  8  1  0  0  0
  4  5  1  0  0  0
  4 32  1  0  0  0
  5  6  2  0  0  0
  5 14  1  0  0  0
  6  7  1  0  0  0
  6 33  1  0  0  0
  7  8  2  0  0  0
  7 34  1  0  0  0
  8  9  1  0  0  0
  9 10  2  0  0  0
  9 13  1  0  0  0
 10 11  1  0  0  0
 10 35  1  0  0  0
 11 12  1  0  0  0
 11 36  1  0  0  0
 12 13  2  0  0  0
 13 37  1  0  0  0
 14 15  2  0  0  0
 14 16  1  0  0  0
 16 17  1  0  0  0
 16 38  1  0  0  0
 17 18  1  0  0  0
 17 39  1  0  0  0
 17 40  1  0  0  0
 18 19  2  0  0  0
 18 28  1  0  0  0
 19 20  1  0  0  0
 19 41  1  0  0  0
 20 21  2  0  0  0
 20 42  1  0  0  0
 21 22  1  0  0  0
 21 43  1  0  0  0
 22 23  1  0  0  0
 22 28  2  0  0  0
 23 24  1  0  0  0
 23 44  1  0  0  0
 24 25  2  0  0  0
 24 26  2  0  0  0
 24 27  1  0  0  0
 27 45  1  0  0  0
 27 46  1  0  0  0
 27 47  1  0  0  0
 28 48  1  0  0  0
M  END
> <s_m_entry_id>
28327

> <s_m_entry_name>
dock_pv.488

> <s_m_Source_Path>
/home/csk/Desktop/cluster/DUD-E-result/rock1

> <s_m_Source_File>
dock_pv.maegz

> <i_m_Source_File_Index>
488

> <chembl_id>
CHEMBL3965403

> <chembl_pref_name>
None

> <i_lp_mmshare_version>
53161

> <r_lp_tautomer_probability>
0.5

> <s_lp_Force_Field>
OPLS_2005

> <r_lp_Energy>
15.515031

> <b_lp_Chiralities_Consistent>
1

> <s_lp_Variant>
CHEMBL3231_lig669-1

> <s_i_glide_gridfile>
glide-grid_2etr

> <i_i_glide_lignum>
960

> <i_i_glide_rotatable_bonds>
8

> <r_i_docking_score>
-7.39226108283767

> <r_i_glide_ligand_efficiency>
-0.26400932438706

> <r_i_glide_ligand_efficiency_sa>
-0.801687802015627

> <r_i_glide_ligand_efficiency_ln>
-1.70635090413557

> <r_i_glide_gscore>
-7.39226108283767

> <r_i_glide_lipo>
-1.84316770569579

> <r_i_glide_hbond>
-0.536055886089357

> <r_i_glide_metal>
0

> <r_i_glide_rewards>
-1.68921592305287

> <r_i_glide_evdw>
-44.720588684082

> <r_i_glide_ecoul>
-10.006986618042

> <r_i_glide_erotb>
0.513453953722202

> <r_i_glide_esite>
-0.100198094811453

> <r_i_glide_emodel>
-78.9539233043731

> <r_i_glide_energy>
-54.727575302124

> <r_i_glide_einternal>
3.09828925132751

> <i_i_glide_confnum>
3

> <i_i_glide_posenum>
397

> <r_i_glide_eff_state_penalty>
0

> <s_user_duplicate_titles>
CHEMBL3231_lig669

> <i_f3d_flags>
0

> <s_m_subgroup_title>
dock_pv

> <s_m_subgroupid>
dock_pv

> <b_m_subgroup_collapsed>
1

$$$$
CHEMBL3231_lig2057
                    3D
 Schrodinger Suite 2021-1.
 61 65  0  0  1  0            999 V2000
   55.6439  100.0852   33.4175 O   0  0  0  0  0  0
   55.2430   98.5665   31.7578 O   0  0  0  0  0  0
   52.5783  102.4515   36.1245 O   0  0  0  0  0  0
   53.4517  100.1990   30.5756 N   0  0  0  0  0  0
   50.8032   98.6272   26.5938 N   0  0  0  0  0  0
   50.8528   97.8597   27.6793 N   0  0  0  0  0  0
   52.6231  101.1795   30.0910 C   0  0  0  0  0  0
   51.6853  101.1756   29.0453 C   0  0  0  0  0  0
   52.8822  102.3280   30.8911 C   0  0  0  0  0  0
   51.3788   99.9739   28.2189 C   0  0  0  0  0  0
   53.8945  101.9895   31.8571 C   0  0  0  0  0  0
   54.1792  100.6366   31.6566 C   0  0  0  0  0  0
   51.1284   99.9359   26.8444 C   0  0  0  0  0  0
   51.2096   98.6456   28.6635 C   0  0  0  0  0  0
   51.0050  102.3745   28.8194 C   0  0  0  0  0  0
   52.1711  103.5029   30.6193 C   0  0  0  0  0  0
   55.0734   99.7680   32.3790 C   0  0  0  0  0  0
   51.2438  103.5114   29.5790 C   0  0  0  0  0  0
   54.4966  102.9706   32.8533 C   0  0  0  0  0  0
   51.1314  100.9977   25.7628 C   0  0  0  0  0  0
   51.2496   98.0633   30.0630 C   0  0  0  0  0  0
   53.5713  103.2676   34.0484 C   0  0  0  0  0  0
   50.3090   98.0279   25.3690 C   0  0  0  0  0  0
   50.4414  103.5902   35.9277 C   0  0  0  0  0  0
   51.2253  102.4018   35.8738 C   0  0  0  0  0  0
   49.0342  103.5085   35.6843 C   0  0  0  0  0  0
   53.4328  102.0941   35.0376 C   0  0  0  0  0  0
   50.6083  101.1799   35.5995 C   0  0  0  0  0  0
   51.0107  104.8615   36.2046 C   0  0  0  0  0  0
   48.4545  102.2519   35.3945 C   0  0  0  0  0  0
   48.2517  104.6872   35.7335 C   0  0  0  0  0  0
   49.2431  101.1066   35.3596 C   0  0  0  0  0  0
   50.2151  106.0038   36.2306 C   0  0  0  0  0  0
   48.8478  105.9171   35.9959 C   0  0  0  0  0  0
   56.1148   98.2102   31.9850 H   0  0  0  0  0  0
   53.5399   99.2517   30.2366 H   0  0  0  0  0  0
   50.2664  102.4282   28.0329 H   0  0  0  0  0  0
   52.3634  104.3867   31.2109 H   0  0  0  0  0  0
   50.7068  104.4169   29.3392 H   0  0  0  0  0  0
   55.4638  102.6272   33.2211 H   0  0  0  0  0  0
   54.7225  103.9072   32.3408 H   0  0  0  0  0  0
   51.6389  101.9028   26.0873 H   0  0  0  0  0  0
   51.6507  100.6668   24.8627 H   0  0  0  0  0  0
   50.1188  101.2765   25.4705 H   0  0  0  0  0  0
   51.0839   98.8202   30.8291 H   0  0  0  0  0  0
   50.4730   97.3125   30.2136 H   0  0  0  0  0  0
   52.1995   97.5777   30.2828 H   0  0  0  0  0  0
   53.9659  104.1285   34.5900 H   0  0  0  0  0  0
   52.5883  103.5698   33.6843 H   0  0  0  0  0  0
   49.2433   97.8503   25.4885 H   0  0  0  0  0  0
   50.8254   97.0811   25.2011 H   0  0  0  0  0  0
   50.4483   98.6952   24.5189 H   0  0  0  0  0  0
   53.0914  101.1906   34.5293 H   0  0  0  0  0  0
   54.4114  101.8522   35.4541 H   0  0  0  0  0  0
   51.1972  100.2748   35.5803 H   0  0  0  0  0  0
   52.0734  104.9409   36.3857 H   0  0  0  0  0  0
   47.3915  102.1853   35.2102 H   0  0  0  0  0  0
   47.1885  104.6240   35.5544 H   0  0  0  0  0  0
   48.7930  100.1485   35.1479 H   0  0  0  0  0  0
   50.6654  106.9659   36.4298 H   0  0  0  0  0  0
   48.2454  106.8134   36.0112 H   0  0  0  0  0  0
  1 17  2  0  0  0
  2 17  1  0  0  0
  2 35  1  0  0  0
  3 25  1  0  0  0
  3 27  1  0  0  0
  4  7  1  0  0  0
  4 12  1  0  0  0
  4 36  1  0  0  0
  5  6  1  0  0  0
  5 13  1  0  0  0
  5 23  1  0  0  0
  6 14  2  0  0  0
  7  8  1  0  0  0
  7  9  2  0  0  0
  8 10  1  0  0  0
  8 15  2  0  0  0
  9 11  1  0  0  0
  9 16  1  0  0  0
 10 13  2  0  0  0
 10 14  1  0  0  0
 11 12  2  0  0  0
 11 19  1  0  0  0
 12 17  1  0  0  0
 13 20  1  0  0  0
 14 21  1  0  0  0
 15 18  1  0  0  0
 15 37  1  0  0  0
 16 18  2  0  0  0
 16 38  1  0  0  0
 18 39  1  0  0  0
 19 22  1  0  0  0
 19 40  1  0  0  0
 19 41  1  0  0  0
 20 42  1  0  0  0
 20 43  1  0  0  0
 20 44  1  0  0  0
 21 45  1  0  0  0
 21 46  1  0  0  0
 21 47  1  0  0  0
 22 27  1  0  0  0
 22 48  1  0  0  0
 22 49  1  0  0  0
 23 50  1  0  0  0
 23 51  1  0  0  0
 23 52  1  0  0  0
 24 25  1  0  0  0
 24 26  1  0  0  0
 24 29  2  0  0  0
 25 28  2  0  0  0
 26 30  1  0  0  0
 26 31  2  0  0  0
 27 53  1  0  0  0
 27 54  1  0  0  0
 28 32  1  0  0  0
 28 55  1  0  0  0
 29 33  1  0  0  0
 29 56  1  0  0  0
 30 32  2  0  0  0
 30 57  1  0  0  0
 31 34  1  0  0  0
 31 58  1  0  0  0
 32 59  1  0  0  0
 33 34  2  0  0  0
 33 60  1  0  0  0
 34 61  1  0  0  0
M  END
> <s_m_entry_id>
28328

> <s_m_entry_name>
dock_pv.489

> <s_m_Source_Path>
/home/csk/Desktop/cluster/DUD-E-result/rock1

> <s_m_Source_File>
dock_pv.maegz

> <i_m_Source_File_Index>
489

> <chembl_id>
CHEMBL1984039

> <chembl_pref_name>
None

> <i_lp_mmshare_version>
53161

> <r_lp_tautomer_probability>
1

> <s_lp_Force_Field>
OPLS_2005

> <r_lp_Energy>
19.706037

> <b_lp_Chiralities_Consistent>
1

> <s_lp_Variant>
CHEMBL3231_lig2057-1

> <s_i_glide_gridfile>
glide-grid_2etr

> <i_i_glide_lignum>
2984

> <i_i_glide_rotatable_bonds>
8

> <r_i_docking_score>
-7.39100447313671

> <r_i_glide_ligand_efficiency>
-0.217382484504021

> <r_i_glide_ligand_efficiency_sa>
-0.704234861362451

> <r_i_glide_ligand_efficiency_ln>
-1.63288019876929

> <r_i_glide_gscore>
-7.39100447313671

> <r_i_glide_lipo>
-3.81297205075958

> <r_i_glide_hbond>
0

> <r_i_glide_metal>
0

> <r_i_glide_rewards>
-1.06682536363636

> <r_i_glide_evdw>
-54.868278503418

> <r_i_glide_ecoul>
-1.88088274002075

> <r_i_glide_erotb>
0.585552957789235

> <r_i_glide_esite>
-0.0712136803559986

> <r_i_glide_emodel>
-75.27419456729

> <r_i_glide_energy>
-56.7491612434387

> <r_i_glide_einternal>
12.7106637954712

> <i_i_glide_confnum>
3

> <i_i_glide_posenum>
34

> <r_i_glide_eff_state_penalty>
0

> <s_user_duplicate_titles>
CHEMBL3231_lig2057

> <i_f3d_flags>
0

> <s_m_subgroup_title>
dock_pv

> <s_m_subgroupid>
dock_pv

> <b_m_subgroup_collapsed>
1

$$$$
CHEMBL3231_lig734
                    3D
 Schrodinger Suite 2021-1.
 42 44  0  0  1  0            999 V2000
   53.6726   98.6703   35.4115 C   0  0  0  0  0  0
   53.5226   97.5877   34.3160 C   0  0  1  0  0  0
   52.8431   98.0535   33.0982 N   0  0  0  0  0  0
   53.1900   99.1054   32.3305 C   0  0  0  0  0  0
   54.0270   99.9389   32.6755 O   0  0  0  0  0  0
   52.4863   99.2308   30.9964 C   0  0  0  0  0  0
   51.8022   98.1563   30.4113 C   0  0  0  0  0  0
   51.2430   98.2810   29.1422 C   0  0  0  0  0  0
   51.3270   99.4767   28.4197 C   0  0  0  0  0  0
   51.9857  100.5705   29.0148 C   0  0  0  0  0  0
   52.1596  101.8985   28.3000 C   0  0  0  0  0  0
   52.5574  100.4348   30.2840 C   0  0  0  0  0  0
   50.7216   99.4867   27.0444 C   0  0  0  0  0  0
   50.6061   98.3991   26.1573 C   0  0  0  0  0  0
   50.0430   98.7029   25.0124 N   0  0  0  0  0  0
   49.7640  100.0002   25.1194 N   0  0  0  0  0  0
   50.1411  100.5268   26.3251 C   0  0  0  0  0  0
   54.7843   96.7861   33.9827 C   0  0  0  0  0  0
   56.0539   97.1797   34.2457 C   0  0  0  0  0  0
   57.1413   96.3046   33.8329 C   0  0  0  0  0  0
   56.8509   95.1385   33.2113 C   0  0  0  0  0  0
   55.4852   94.7081   32.9471 C   0  0  0  0  0  0
   55.1778   93.6502   32.4110 O   0  0  0  0  0  0
   54.5292   95.5832   33.3554 N   0  0  0  0  0  0
   54.0021   98.2296   36.3529 H   0  0  0  0  0  0
   54.4001   99.4361   35.1423 H   0  0  0  0  0  0
   52.7241   99.1734   35.6006 H   0  0  0  0  0  0
   52.8431   96.8604   34.7603 H   0  0  0  0  0  0
   52.1985   97.3949   32.6886 H   0  0  0  0  0  0
   51.7243   97.1981   30.9056 H   0  0  0  0  0  0
   50.7405   97.4228   28.7213 H   0  0  0  0  0  0
   52.4423  101.7220   27.2630 H   0  0  0  0  0  0
   51.2336  102.4721   28.3172 H   0  0  0  0  0  0
   52.9549  102.4996   28.7441 H   0  0  0  0  0  0
   53.0895  101.2747   30.7105 H   0  0  0  0  0  0
   50.9488   97.3933   26.3510 H   0  0  0  0  0  0
   49.3188  100.5106   24.3664 H   0  0  0  0  0  0
   49.9703  101.5689   26.5500 H   0  0  0  0  0  0
   56.2726   98.1271   34.7150 H   0  0  0  0  0  0
   58.1694   96.5961   33.9948 H   0  0  0  0  0  0
   57.6478   94.4848   32.8919 H   0  0  0  0  0  0
   53.5877   95.2792   33.1581 H   0  0  0  0  0  0
  1  2  1  0  0  0
  1 25  1  0  0  0
  1 26  1  0  0  0
  1 27  1  0  0  0
  2  3  1  0  0  0
  2 28  1  0  0  0
  2 18  1  0  0  0
  3  4  1  0  0  0
  3 29  1  0  0  0
  4  5  2  0  0  0
  4  6  1  0  0  0
  6  7  2  0  0  0
  6 12  1  0  0  0
  7  8  1  0  0  0
  7 30  1  0  0  0
  8  9  2  0  0  0
  8 31  1  0  0  0
  9 10  1  0  0  0
  9 13  1  0  0  0
 10 11  1  0  0  0
 10 12  2  0  0  0
 11 32  1  0  0  0
 11 33  1  0  0  0
 11 34  1  0  0  0
 12 35  1  0  0  0
 13 14  1  0  0  0
 13 17  2  0  0  0
 14 15  2  0  0  0
 14 36  1  0  0  0
 15 16  1  0  0  0
 16 17  1  0  0  0
 16 37  1  0  0  0
 17 38  1  0  0  0
 18 24  1  0  0  0
 18 19  2  0  0  0
 19 39  1  0  0  0
 19 20  1  0  0  0
 20 40  1  0  0  0
 20 21  2  0  0  0
 21 22  1  0  0  0
 21 41  1  0  0  0
 22 23  2  0  0  0
 22 24  1  0  0  0
 24 42  1  0  0  0
M  END
> <s_m_entry_id>
28329

> <s_m_entry_name>
dock_pv.490

> <s_m_Source_Path>
/home/csk/Desktop/cluster/DUD-E-result/rock1

> <s_m_Source_File>
dock_pv.maegz

> <i_m_Source_File_Index>
490

> <chembl_id>
CHEMBL3975539

> <chembl_pref_name>
None

> <i_lp_mmshare_version>
53161

> <r_lp_tautomer_probability>
0.4995

> <s_lp_Force_Field>
OPLS_2005

> <r_lp_Energy>
22.79482

> <b_lp_Chiralities_Consistent>
1

> <s_lp_Variant>
CHEMBL3231_lig734-2

> <s_i_glide_gridfile>
glide-grid_2etr

> <i_i_glide_lignum>
1044

> <i_i_glide_rotatable_bonds>
5

> <r_i_docking_score>
-7.38877598646185

> <r_i_glide_ligand_efficiency>
-0.307865666102577

> <r_i_glide_ligand_efficiency_sa>
-0.888038248356947

> <r_i_glide_ligand_efficiency_ln>
-1.76847314239762

> <r_i_glide_gscore>
-7.38877598646185

> <r_i_glide_lipo>
-1.97746897436832

> <r_i_glide_hbond>
-0.470174542548718

> <r_i_glide_metal>
0

> <r_i_glide_rewards>
-2.3659995092062

> <r_i_glide_evdw>
-38.3003540039062

> <r_i_glide_ecoul>
-7.53047275543213

> <r_i_glide_erotb>
0.503845665619739

> <r_i_glide_esite>
-0.0343900124482186

> <r_i_glide_emodel>
-65.2928620986265

> <r_i_glide_energy>
-45.8308267593384

> <r_i_glide_einternal>
2.28924965858459

> <i_i_glide_confnum>
5

> <i_i_glide_posenum>
273

> <r_i_glide_eff_state_penalty>
0

> <s_user_duplicate_titles>
CHEMBL3231_lig734

> <i_f3d_flags>
0

> <s_m_subgroup_title>
dock_pv

> <s_m_subgroupid>
dock_pv

> <b_m_subgroup_collapsed>
1

$$$$
CHEMBL3231_lig739
                    3D
 Schrodinger Suite 2021-1.
 47 49  0  0  1  0            999 V2000
   56.3778   99.5624   34.3307 C   0  0  0  0  0  0
   55.5393  100.6519   33.9586 O   0  0  0  0  0  0
   54.4684  101.0057   34.7565 C   0  0  0  0  0  0
   54.0531  100.2524   35.8675 C   0  0  0  0  0  0
   52.9593  100.6561   36.6331 C   0  0  0  0  0  0
   52.2695  101.8203   36.3017 C   0  0  0  0  0  0
   52.6768  102.5814   35.2084 C   0  0  0  0  0  0
   53.7655  102.1810   34.4210 C   0  0  0  0  0  0
   54.2069  103.0263   33.2140 C   0  0  2  0  0  0
   54.0750  104.5571   33.4034 C   0  0  0  0  0  0
   53.6302  102.5206   31.9630 N   0  0  0  0  0  0
   52.3760  102.7289   31.5237 C   0  0  0  0  0  0
   51.5697  103.5026   32.0431 O   0  0  0  0  0  0
   51.9752  101.9528   30.3037 C   0  0  0  0  0  0
   51.4658  102.6290   29.1985 C   0  0  0  0  0  0
   51.0391  101.9207   28.0826 C   0  0  0  0  0  0
   51.0697  100.5229   28.0477 C   0  0  0  0  0  0
   51.5469   99.8241   29.1784 C   0  0  0  0  0  0
   51.4833   98.4416   29.1780 O   0  0  0  0  0  0
   51.6375   97.7276   30.4029 C   0  0  0  0  0  0
   52.0367  100.5546   30.2818 C   0  0  0  0  0  0
   50.5560   99.8725   26.7903 C   0  0  0  0  0  0
   49.9241  100.4878   25.7139 C   0  0  0  0  0  0
   49.6442   99.5038   24.8104 N   0  0  0  0  0  0
   50.0446   98.3001   25.2141 N   0  0  0  0  0  0
   50.5912   98.5205   26.3902 C   0  0  0  0  0  0
   57.1963   99.4820   33.6147 H   0  0  0  0  0  0
   56.8223   99.7173   35.3162 H   0  0  0  0  0  0
   55.8367   98.6144   34.3221 H   0  0  0  0  0  0
   54.5647   99.3467   36.1533 H   0  0  0  0  0  0
   52.6421  100.0635   37.4834 H   0  0  0  0  0  0
   51.4176  102.1300   36.8859 H   0  0  0  0  0  0
   52.1213  103.4741   34.9645 H   0  0  0  0  0  0
   55.2808  102.8764   33.0910 H   0  0  0  0  0  0
   54.6534  104.9019   34.2578 H   0  0  0  0  0  0
   54.4409  105.0872   32.5224 H   0  0  0  0  0  0
   53.0469  104.8833   33.5539 H   0  0  0  0  0  0
   54.1940  101.8485   31.4617 H   0  0  0  0  0  0
   51.4128  103.7108   29.1923 H   0  0  0  0  0  0
   50.6725  102.4895   27.2426 H   0  0  0  0  0  0
   51.3993   96.6769   30.2355 H   0  0  0  0  0  0
   52.6617   97.7796   30.7747 H   0  0  0  0  0  0
   50.9593   98.0945   31.1728 H   0  0  0  0  0  0
   52.4115  100.0366   31.1521 H   0  0  0  0  0  0
   49.6475  101.5130   25.5141 H   0  0  0  0  0  0
   49.1958   99.6543   23.9099 H   0  0  0  0  0  0
   51.0210   97.7038   26.9493 H   0  0  0  0  0  0
  1  2  1  0  0  0
  1 27  1  0  0  0
  1 28  1  0  0  0
  1 29  1  0  0  0
  2  3  1  0  0  0
  3  4  2  0  0  0
  3  8  1  0  0  0
  4  5  1  0  0  0
  4 30  1  0  0  0
  5  6  2  0  0  0
  5 31  1  0  0  0
  6  7  1  0  0  0
  6 32  1  0  0  0
  7  8  2  0  0  0
  7 33  1  0  0  0
  8  9  1  0  0  0
  9 10  1  0  0  0
  9 11  1  0  0  0
  9 34  1  0  0  0
 10 35  1  0  0  0
 10 36  1  0  0  0
 10 37  1  0  0  0
 11 12  1  0  0  0
 11 38  1  0  0  0
 12 13  2  0  0  0
 12 14  1  0  0  0
 14 15  2  0  0  0
 14 21  1  0  0  0
 15 16  1  0  0  0
 15 39  1  0  0  0
 16 17  2  0  0  0
 16 40  1  0  0  0
 17 18  1  0  0  0
 17 22  1  0  0  0
 18 19  1  0  0  0
 18 21  2  0  0  0
 19 20  1  0  0  0
 20 41  1  0  0  0
 20 42  1  0  0  0
 20 43  1  0  0  0
 21 44  1  0  0  0
 22 23  2  0  0  0
 22 26  1  0  0  0
 23 24  1  0  0  0
 23 45  1  0  0  0
 24 25  1  0  0  0
 24 46  1  0  0  0
 25 26  2  0  0  0
 26 47  1  0  0  0
M  END
> <s_m_entry_id>
28330

> <s_m_entry_name>
dock_pv.491

> <s_m_Source_Path>
/home/csk/Desktop/cluster/DUD-E-result/rock1

> <s_m_Source_File>
dock_pv.maegz

> <i_m_Source_File_Index>
491

> <chembl_id>
CHEMBL3893355

> <chembl_pref_name>
None

> <i_lp_mmshare_version>
53161

> <r_lp_tautomer_probability>
0.5

> <s_lp_Force_Field>
OPLS_2005

> <r_lp_Energy>
25.245043

> <b_lp_Chiralities_Consistent>
1

> <s_lp_Variant>
CHEMBL3231_lig739-1

> <s_i_glide_gridfile>
glide-grid_2etr

> <i_i_glide_lignum>
1052

> <i_i_glide_rotatable_bonds>
7

> <r_i_docking_score>
-7.38842183215338

> <r_i_glide_ligand_efficiency>
-0.284170070467438

> <r_i_glide_ligand_efficiency_sa>
-0.84185271560455

> <r_i_glide_ligand_efficiency_ln>
-1.73514662389181

> <r_i_glide_gscore>
-7.38842183215338

> <r_i_glide_lipo>
-2.00049541775038

> <r_i_glide_hbond>
-0.639635611306499

> <r_i_glide_metal>
0

> <r_i_glide_rewards>
-1.96780792735571

> <r_i_glide_evdw>
-39.7926292419434

> <r_i_glide_ecoul>
-8.43829822540283

> <r_i_glide_erotb>
0.540596123200386

> <r_i_glide_esite>
-0.0657028030335796

> <r_i_glide_emodel>
-67.4682272127023

> <r_i_glide_energy>
-48.2309274673462

> <r_i_glide_einternal>
5.6867094039917

> <i_i_glide_confnum>
112

> <i_i_glide_posenum>
189

> <r_i_glide_eff_state_penalty>
0

> <s_user_duplicate_titles>
CHEMBL3231_lig739

> <i_f3d_flags>
0

> <s_m_subgroup_title>
dock_pv

> <s_m_subgroupid>
dock_pv

> <b_m_subgroup_collapsed>
1

$$$$
CHEMBL3231_lig688
                    3D
 Schrodinger Suite 2021-1.
 51 53  0  0  1  0            999 V2000
   51.8348  104.9798   34.7622 C   0  0  0  0  0  0
   51.5472  103.5945   34.6090 O   0  0  0  0  0  0
   52.6707  102.7257   34.7586 C   0  0  0  0  0  0
   53.6570  102.7130   33.5498 C   0  0  2  0  0  0
   53.0375  102.1957   32.3216 N   0  0  0  0  0  0
   52.1299  102.7838   31.5276 C   0  0  0  0  0  0
   51.6591  103.9028   31.7268 O   0  0  0  0  0  0
   51.7153  101.9847   30.3181 C   0  0  0  0  0  0
   51.2834  102.6494   29.1696 C   0  0  0  0  0  0
   50.8867  101.9319   28.0495 C   0  0  0  0  0  0
   50.9018  100.5324   28.0403 C   0  0  0  0  0  0
   51.3061   99.8406   29.2004 C   0  0  0  0  0  0
   51.2453   98.4570   29.2038 O   0  0  0  0  0  0
   51.4686   97.7314   30.4101 C   0  0  0  0  0  0
   51.7257  100.5810   30.3191 C   0  0  0  0  0  0
   50.4584   99.8558   26.7770 C   0  0  0  0  0  0
   50.5326   98.4990   26.4015 C   0  0  0  0  0  0
   50.0429   98.2529   25.2108 N   0  0  0  0  0  0
   49.6435   99.4432   24.7726 N   0  0  0  0  0  0
   49.8733  100.4459   25.6640 C   0  0  0  0  0  0
   54.9700  101.9141   33.8295 C   0  0  1  0  0  0
   55.6427  102.3946   34.9831 O   0  0  0  0  0  0
   54.7748  100.3915   33.8433 C   0  0  0  0  0  0
   54.2576   99.7429   34.9725 C   0  0  0  0  0  0
   54.0278   98.3693   34.9473 C   0  0  0  0  0  0
   54.3218   97.6402   33.7953 C   0  0  0  0  0  0
   54.8507   98.2733   32.6727 C   0  0  0  0  0  0
   55.0788   99.6470   32.6959 C   0  0  0  0  0  0
   50.9145  105.5523   34.6527 H   0  0  0  0  0  0
   52.2434  105.1928   35.7511 H   0  0  0  0  0  0
   52.5365  105.3430   34.0118 H   0  0  0  0  0  0
   52.2642  101.7243   34.9011 H   0  0  0  0  0  0
   53.1863  102.9718   35.6883 H   0  0  0  0  0  0
   53.9701  103.7404   33.3544 H   0  0  0  0  0  0
   53.3986  101.3077   32.0069 H   0  0  0  0  0  0
   51.2668  103.7305   29.1294 H   0  0  0  0  0  0
   50.5722  102.4896   27.1819 H   0  0  0  0  0  0
   51.2625   96.6741   30.2399 H   0  0  0  0  0  0
   52.5035   97.8161   30.7437 H   0  0  0  0  0  0
   50.8040   98.0618   31.2098 H   0  0  0  0  0  0
   52.0372  100.0636   31.2133 H   0  0  0  0  0  0
   50.9477   97.6945   26.9894 H   0  0  0  0  0  0
   49.2245   99.5691   23.8555 H   0  0  0  0  0  0
   49.5991  101.4641   25.4291 H   0  0  0  0  0  0
   55.6429  102.1469   33.0026 H   0  0  0  0  0  0
   56.5022  101.9585   35.0340 H   0  0  0  0  0  0
   54.0269  100.3070   35.8659 H   0  0  0  0  0  0
   53.6284   97.8703   35.8192 H   0  0  0  0  0  0
   54.1510   96.5735   33.7772 H   0  0  0  0  0  0
   55.1017   97.7014   31.7896 H   0  0  0  0  0  0
   55.4955  100.1248   31.8178 H   0  0  0  0  0  0
  1  2  1  0  0  0
  1 29  1  0  0  0
  1 30  1  0  0  0
  1 31  1  0  0  0
  2  3  1  0  0  0
  3  4  1  0  0  0
  3 32  1  0  0  0
  3 33  1  0  0  0
  4  5  1  0  0  0
  4 21  1  0  0  0
  4 34  1  0  0  0
  5  6  1  0  0  0
  5 35  1  0  0  0
  6  7  2  0  0  0
  6  8  1  0  0  0
  8  9  2  0  0  0
  8 15  1  0  0  0
  9 10  1  0  0  0
  9 36  1  0  0  0
 10 11  2  0  0  0
 10 37  1  0  0  0
 11 12  1  0  0  0
 11 16  1  0  0  0
 12 13  1  0  0  0
 12 15  2  0  0  0
 13 14  1  0  0  0
 14 38  1  0  0  0
 14 39  1  0  0  0
 14 40  1  0  0  0
 15 41  1  0  0  0
 16 17  1  0  0  0
 16 20  2  0  0  0
 17 18  2  0  0  0
 17 42  1  0  0  0
 18 19  1  0  0  0
 19 20  1  0  0  0
 19 43  1  0  0  0
 20 44  1  0  0  0
 21 22  1  0  0  0
 21 23  1  0  0  0
 21 45  1  0  0  0
 22 46  1  0  0  0
 23 24  2  0  0  0
 23 28  1  0  0  0
 24 25  1  0  0  0
 24 47  1  0  0  0
 25 26  2  0  0  0
 25 48  1  0  0  0
 26 27  1  0  0  0
 26 49  1  0  0  0
 27 28  2  0  0  0
 27 50  1  0  0  0
 28 51  1  0  0  0
M  END
> <s_m_entry_id>
28331

> <s_m_entry_name>
dock_pv.492

> <s_m_Source_Path>
/home/csk/Desktop/cluster/DUD-E-result/rock1

> <s_m_Source_File>
dock_pv.maegz

> <i_m_Source_File_Index>
492

> <chembl_id>
CHEMBL3893663

> <chembl_pref_name>
None

> <i_lp_mmshare_version>
53161

> <r_lp_tautomer_probability>
0.5

> <s_lp_Force_Field>
OPLS_2005

> <r_lp_Energy>
27.841469

> <b_lp_Chiralities_Consistent>
1

> <s_lp_Variant>
CHEMBL3231_lig688-1

> <s_i_glide_gridfile>
glide-grid_2etr

> <i_i_glide_lignum>
982

> <i_i_glide_rotatable_bonds>
10

> <r_i_docking_score>
-7.38769428513998

> <r_i_glide_ligand_efficiency>
-0.263846224469285

> <r_i_glide_ligand_efficiency_sa>
-0.801192534604549

> <r_i_glide_ligand_efficiency_ln>
-1.70529675313994

> <r_i_glide_gscore>
-7.38769428513998

> <r_i_glide_lipo>
-1.95041442061852

> <r_i_glide_hbond>
-0.69458715374318

> <r_i_glide_metal>
0

> <r_i_glide_rewards>
-1.7738424152312

> <r_i_glide_evdw>
-39.2041702270508

> <r_i_glide_ecoul>
-10.0573148727417

> <r_i_glide_erotb>
0.560373436267437

> <r_i_glide_esite>
-0.0604179895507165

> <r_i_glide_emodel>
-70.4795929614347

> <r_i_glide_energy>
-49.2614850997925

> <r_i_glide_einternal>
5.5783805847168

> <i_i_glide_confnum>
19

> <i_i_glide_posenum>
305

> <r_i_glide_eff_state_penalty>
0

> <s_user_duplicate_titles>
CHEMBL3231_lig688

> <i_f3d_flags>
0

> <s_m_subgroup_title>
dock_pv

> <s_m_subgroupid>
dock_pv

> <b_m_subgroup_collapsed>
1

$$$$
CHEMBL3231_lig925
                    3D
 Schrodinger Suite 2021-1.
 39 42  0  0  1  0            999 V2000
   52.5148   97.9050   31.5932 N   0  0  0  0  0  0
   53.1861   98.4194   32.5781 C   0  0  0  0  0  0
   53.4894   99.7711   32.5717 N   0  0  0  0  0  0
   53.2054  100.7072   31.6141 C   0  0  0  0  0  0
   52.2033   98.7120   30.5346 C   0  0  0  0  0  0
   52.5298  100.0677   30.4950 C   0  0  0  0  0  0
   52.0428  100.8239   29.0175 S   0  0  0  0  0  0
   51.4027   99.3151   28.4113 C   0  0  0  0  0  0
   51.5498   98.3045   29.3670 C   0  0  0  0  0  0
   50.8227   99.1878   27.0699 C   0  0  0  0  0  0
   50.5414   97.9777   26.4127 C   0  0  0  0  0  0
   50.0431   98.1380   25.2122 N   0  0  0  0  0  0
   49.9926   99.4585   25.0564 N   0  0  0  0  0  0
   50.4368  100.1602   26.1445 C   0  0  0  0  0  0
   53.5034  101.8888   31.7648 O   0  0  0  0  0  0
   50.4431  101.6658   26.1307 C   0  0  0  0  0  0
   53.5803   97.5805   33.8267 C   0  0  1  0  0  0
   53.6430   96.1256   33.5911 N   0  0  2  0  0  0
   54.8041   95.6838   32.8099 C   0  0  0  0  0  0
   56.1274   96.1415   33.4551 C   0  0  0  0  0  0
   56.1455   97.6502   33.7512 C   0  0  0  0  0  0
   54.8851   98.0503   34.5320 C   0  0  0  0  0  0
   53.9995  100.1404   33.3576 H   0  0  0  0  0  0
   51.2199   97.2878   29.2152 H   0  0  0  0  0  0
   50.7112   96.9885   26.8118 H   0  0  0  0  0  0
   49.6365   99.8836   24.2093 H   0  0  0  0  0  0
   50.4190  102.1060   27.1253 H   0  0  0  0  0  0
   51.3213  102.0486   25.6142 H   0  0  0  0  0  0
   49.5741  102.0621   25.6112 H   0  0  0  0  0  0
   52.7721   97.7288   34.5423 H   0  0  0  0  0  0
   52.7817   95.8095   33.1425 H   0  0  0  0  0  0
   54.7281   96.0649   31.7901 H   0  0  0  0  0  0
   54.7805   94.5954   32.7466 H   0  0  0  0  0  0
   56.9527   95.9008   32.7829 H   0  0  0  0  0  0
   56.3179   95.5576   34.3569 H   0  0  0  0  0  0
   56.1835   98.2062   32.8132 H   0  0  0  0  0  0
   57.0466   97.9189   34.3036 H   0  0  0  0  0  0
   54.8837   99.1222   34.7301 H   0  0  0  0  0  0
   54.9325   97.5830   35.5173 H   0  0  0  0  0  0
  1  5  1  0  0  0
  1  2  2  0  0  0
  2  3  1  0  0  0
  2 17  1  0  0  0
  3  4  1  0  0  0
  3 23  1  0  0  0
  4  6  1  0  0  0
  4 15  2  0  0  0
  5  6  2  0  0  0
  5  9  1  0  0  0
  6  7  1  0  0  0
  7  8  1  0  0  0
  8  9  2  0  0  0
  8 10  1  0  0  0
  9 24  1  0  0  0
 10 14  2  0  0  0
 10 11  1  0  0  0
 11 25  1  0  0  0
 11 12  2  0  0  0
 12 13  1  0  0  0
 13 26  1  0  0  0
 13 14  1  0  0  0
 14 16  1  0  0  0
 16 27  1  0  0  0
 16 28  1  0  0  0
 16 29  1  0  0  0
 17 18  1  0  0  0
 17 22  1  0  0  0
 17 30  1  0  0  0
 18 19  1  0  0  0
 18 31  1  0  0  0
 19 20  1  0  0  0
 19 32  1  0  0  0
 19 33  1  0  0  0
 20 21  1  0  0  0
 20 34  1  0  0  0
 20 35  1  0  0  0
 21 22  1  0  0  0
 21 36  1  0  0  0
 21 37  1  0  0  0
 22 38  1  0  0  0
 22 39  1  0  0  0
M  END
> <s_m_entry_id>
28332

> <s_m_entry_name>
dock_pv.493

> <s_m_Source_Path>
/home/csk/Desktop/cluster/DUD-E-result/rock1

> <s_m_Source_File>
dock_pv.maegz

> <i_m_Source_File_Index>
493

> <chembl_id>
CHEMBL4439133

> <chembl_pref_name>
None

> <i_lp_mmshare_version>
53161

> <r_lp_tautomer_probability>
0.5

> <s_lp_Force_Field>
OPLS_2005

> <r_lp_Energy>
29.392744

> <b_lp_Chiralities_Consistent>
1

> <s_lp_Variant>
CHEMBL3231_lig925-2

> <s_i_glide_gridfile>
glide-grid_2etr

> <i_i_glide_lignum>
1326

> <i_i_glide_rotatable_bonds>
2

> <r_i_docking_score>
-7.38133945452203

> <r_i_glide_ligand_efficiency>
-0.335515429751002

> <r_i_glide_ligand_efficiency_sa>
-0.940127429235393

> <r_i_glide_ligand_efficiency_ln>
-1.8042686035836

> <r_i_glide_gscore>
-7.38133945452203

> <r_i_glide_lipo>
-2.07674271990947

> <r_i_glide_hbond>
-0.665427584211621

> <r_i_glide_metal>
0

> <r_i_glide_rewards>
-2.36079432631742

> <r_i_glide_evdw>
-38.5189170837402

> <r_i_glide_ecoul>
-3.9313850402832

> <r_i_glide_erotb>
0.261805974530373

> <r_i_glide_esite>
-0.0245271883844012

> <r_i_glide_emodel>
-59.9687193944501

> <r_i_glide_energy>
-42.4503021240234

> <r_i_glide_einternal>
0.622995734214783

> <i_i_glide_confnum>
19

> <i_i_glide_posenum>
61

> <r_i_glide_eff_state_penalty>
0

> <s_user_duplicate_titles>
CHEMBL3231_lig925,CHEMBL3231_lig925

> <i_f3d_flags>
0

> <s_m_subgroup_title>
dock_pv

> <s_m_subgroupid>
dock_pv

> <b_m_subgroup_collapsed>
1

$$$$
CHEMBL3231_lig933
                    3D
 Schrodinger Suite 2021-1.
 39 42  0  0  1  0            999 V2000
   52.9774   99.6865   31.1023 N   0  0  0  0  0  0
   53.2438  100.3542   32.1790 C   0  0  0  0  0  0
   52.7734  101.6458   32.3355 N   0  0  0  0  0  0
   52.0028  102.3779   31.4708 C   0  0  0  0  0  0
   52.2307  100.3005   30.1418 C   0  0  0  0  0  0
   51.7515  101.6046   30.2627 C   0  0  0  0  0  0
   50.8434  102.1071   28.8765 S   0  0  0  0  0  0
   51.0769  100.5461   28.1246 C   0  0  0  0  0  0
   51.8433   99.7136   28.9391 C   0  0  0  0  0  0
   50.5142  100.2452   26.8157 C   0  0  0  0  0  0
   50.0772  101.1500   25.8712 C   0  0  0  0  0  0
   49.6432  100.4084   24.8111 N   0  0  0  0  0  0
   49.7878   99.1019   25.0044 N   0  0  0  0  0  0
   50.2916   98.9914   26.2131 C   0  0  0  0  0  0
   51.6032  103.5032   31.7558 O   0  0  0  0  0  0
   50.5669   97.6252   26.7659 C   0  0  0  0  0  0
   54.0970   99.7566   33.3157 C   0  0  1  0  0  0
   53.2603   98.9368   34.1949 N   0  0  1  0  0  0
   53.3042   97.5973   33.6239 C   0  0  0  0  0  0
   54.7444   97.3918   33.1510 C   0  0  2  0  0  0
   55.2432   98.8179   32.8844 C   0  0  0  0  0  0
   54.8471   96.4731   31.9220 C   0  0  0  0  0  0
   53.0024  102.1255   33.1919 H   0  0  0  0  0  0
   52.1167   98.7031   28.6876 H   0  0  0  0  0  0
   50.0421  102.2287   25.8776 H   0  0  0  0  0  0
   49.2627  100.7747   23.9459 H   0  0  0  0  0  0
   50.1195   97.5024   27.7516 H   0  0  0  0  0  0
   50.2063   96.8109   26.1368 H   0  0  0  0  0  0
   51.6430   97.5078   26.8768 H   0  0  0  0  0  0
   54.5217  100.5677   33.9103 H   0  0  0  0  0  0
   53.7371   98.8778   35.0849 H   0  0  0  0  0  0
   53.0215   96.8443   34.3608 H   0  0  0  0  0  0
   52.5960   97.5075   32.7986 H   0  0  0  0  0  0
   55.3268   96.9455   33.9593 H   0  0  0  0  0  0
   55.5577   98.9782   31.8499 H   0  0  0  0  0  0
   56.1296   99.0094   33.4901 H   0  0  0  0  0  0
   54.2846   96.8696   31.0749 H   0  0  0  0  0  0
   55.8850   96.3582   31.6057 H   0  0  0  0  0  0
   54.4587   95.4786   32.1425 H   0  0  0  0  0  0
  1  5  1  0  0  0
  1  2  2  0  0  0
  2  3  1  0  0  0
  2 17  1  0  0  0
  3  4  1  0  0  0
  3 23  1  0  0  0
  4  6  1  0  0  0
  4 15  2  0  0  0
  5  6  2  0  0  0
  5  9  1  0  0  0
  6  7  1  0  0  0
  7  8  1  0  0  0
  8  9  2  0  0  0
  8 10  1  0  0  0
  9 24  1  0  0  0
 10 11  2  0  0  0
 10 14  1  0  0  0
 11 12  1  0  0  0
 11 25  1  0  0  0
 12 13  1  0  0  0
 12 26  1  0  0  0
 13 14  2  0  0  0
 14 16  1  0  0  0
 16 27  1  0  0  0
 16 28  1  0  0  0
 16 29  1  0  0  0
 17 18  1  0  0  0
 17 21  1  0  0  0
 17 30  1  0  0  0
 18 19  1  0  0  0
 18 31  1  0  0  0
 19 20  1  0  0  0
 19 32  1  0  0  0
 19 33  1  0  0  0
 20 21  1  0  0  0
 20 22  1  0  0  0
 20 34  1  0  0  0
 21 35  1  0  0  0
 21 36  1  0  0  0
 22 37  1  0  0  0
 22 38  1  0  0  0
 22 39  1  0  0  0
M  END
> <s_m_entry_id>
28333

> <s_m_entry_name>
dock_pv.494

> <s_m_Source_Path>
/home/csk/Desktop/cluster/DUD-E-result/rock1

> <s_m_Source_File>
dock_pv.maegz

> <i_m_Source_File_Index>
494

> <chembl_id>
CHEMBL4462574

> <chembl_pref_name>
None

> <i_lp_mmshare_version>
53161

> <r_lp_tautomer_probability>
0.5

> <s_lp_Force_Field>
OPLS_2005

> <r_lp_Energy>
35.38113

> <b_lp_Chiralities_Consistent>
1

> <s_lp_Variant>
CHEMBL3231_lig933-1

> <s_i_glide_gridfile>
glide-grid_2etr

> <i_i_glide_lignum>
1341

> <i_i_glide_rotatable_bonds>
2

> <r_i_docking_score>
-7.3739373043573

> <r_i_glide_ligand_efficiency>
-0.335178968379877

> <r_i_glide_ligand_efficiency_sa>
-0.939184651241228

> <r_i_glide_ligand_efficiency_ln>
-1.80245924808335

> <r_i_glide_gscore>
-7.3739373043573

> <r_i_glide_lipo>
-2.02993938892249

> <r_i_glide_hbond>
-0.336484549862101

> <r_i_glide_metal>
0

> <r_i_glide_rewards>
-2.52867468181818

> <r_i_glide_evdw>
-38.2835998535156

> <r_i_glide_ecoul>
-6.05431509017944

> <r_i_glide_erotb>
0.374008535043389

> <r_i_glide_esite>
-0.0305199625952275

> <r_i_glide_emodel>
-63.6835998349782

> <r_i_glide_energy>
-44.3379149436951

> <r_i_glide_einternal>
1.95448577404022

> <i_i_glide_confnum>
47

> <i_i_glide_posenum>
98

> <r_i_glide_eff_state_penalty>
0

> <s_user_duplicate_titles>
CHEMBL3231_lig933

> <i_f3d_flags>
0

> <s_m_subgroup_title>
dock_pv

> <s_m_subgroupid>
dock_pv

> <b_m_subgroup_collapsed>
1

$$$$
CHEMBL3231_lig2021
                    3D
 Schrodinger Suite 2021-1.
 30 32  0  0  1  0            999 V2000
   53.9158   99.7491   30.4984 O   0  0  0  0  0  0
   51.2399  103.5031   30.5534 O   0  0  0  0  0  0
   50.9680   97.8979   27.2747 O   0  0  0  0  0  0
   50.0429   98.5820   24.8140 O   0  0  0  0  0  0
   49.2439  100.6909   24.5651 O   0  0  0  0  0  0
   52.3985  101.5032   30.1838 N   0  0  0  0  0  0
   53.4230  100.8345   30.8095 C   0  0  0  0  0  0
   52.1270  102.6907   30.8185 C   0  0  0  0  0  0
   53.8521  101.6845   31.9462 C   0  0  0  0  0  0
   53.0947  102.8157   31.9313 C   0  0  0  0  0  0
   51.7318  101.0444   28.9936 C   0  0  0  0  0  0
   51.6183   99.6778   28.6833 C   0  0  0  0  0  0
   54.8426  101.4928   32.9096 C   0  0  0  0  0  0
   53.2899  103.8331   32.8678 C   0  0  0  0  0  0
   51.1869  101.9486   28.0669 C   0  0  0  0  0  0
   51.0303   99.2436   27.4945 C   0  0  0  0  0  0
   50.5216  100.1645   26.5628 C   0  0  0  0  0  0
   50.5994  101.5240   26.8796 C   0  0  0  0  0  0
   55.0509  102.4945   33.8657 C   0  0  0  0  0  0
   54.2808  103.6640   33.8408 C   0  0  0  0  0  0
   49.9326   99.7297   25.2393 C   0  0  0  0  0  0
   50.5886   97.7194   26.4074 H   0  0  0  0  0  0
   48.9111  100.3311   23.7292 H   0  0  0  0  0  0
   51.9790   98.9195   29.3608 H   0  0  0  0  0  0
   55.4536  100.6011   32.9169 H   0  0  0  0  0  0
   52.7087  104.7440   32.8465 H   0  0  0  0  0  0
   51.2450  103.0146   28.2204 H   0  0  0  0  0  0
   50.2270  102.2814   26.2015 H   0  0  0  0  0  0
   55.8186  102.3671   34.6151 H   0  0  0  0  0  0
   54.4555  104.4427   34.5684 H   0  0  0  0  0  0
  1  7  2  0  0  0
  2  8  2  0  0  0
  3 16  1  0  0  0
  3 22  1  0  0  0
  4 21  2  0  0  0
  5 21  1  0  0  0
  5 23  1  0  0  0
  6  7  1  0  0  0
  6  8  1  0  0  0
  6 11  1  0  0  0
  7  9  1  0  0  0
  8 10  1  0  0  0
  9 10  1  0  0  0
  9 13  2  0  0  0
 10 14  2  0  0  0
 11 12  1  0  0  0
 11 15  2  0  0  0
 12 16  2  0  0  0
 12 24  1  0  0  0
 13 19  1  0  0  0
 13 25  1  0  0  0
 14 20  1  0  0  0
 14 26  1  0  0  0
 15 18  1  0  0  0
 15 27  1  0  0  0
 16 17  1  0  0  0
 17 18  2  0  0  0
 17 21  1  0  0  0
 18 28  1  0  0  0
 19 20  2  0  0  0
 19 29  1  0  0  0
 20 30  1  0  0  0
M  END
> <s_m_entry_id>
28334

> <s_m_entry_name>
dock_pv.495

> <s_m_Source_Path>
/home/csk/Desktop/cluster/DUD-E-result/rock1

> <s_m_Source_File>
dock_pv.maegz

> <i_m_Source_File_Index>
495

> <chembl_id>
CHEMBL1972820

> <chembl_pref_name>
None

> <i_lp_mmshare_version>
53161

> <r_lp_tautomer_probability>
1

> <s_lp_Force_Field>
OPLS_2005

> <r_lp_Energy>
53.719421

> <b_lp_Chiralities_Consistent>
1

> <s_lp_Variant>
CHEMBL3231_lig2021-1

> <s_i_glide_gridfile>
glide-grid_2etr

> <i_i_glide_lignum>
2938

> <i_i_glide_rotatable_bonds>
4

> <r_i_docking_score>
-7.36892800468477

> <r_i_glide_ligand_efficiency>
-0.350901333556418

> <r_i_glide_ligand_efficiency_sa>
-0.968110171690699

> <r_i_glide_ligand_efficiency_ln>
-1.82195255883723

> <r_i_glide_gscore>
-7.36892800468477

> <r_i_glide_lipo>
-1.45844270248838

> <r_i_glide_hbond>
-0.400306680382755

> <r_i_glide_metal>
0

> <r_i_glide_rewards>
-2.61678211328443

> <r_i_glide_evdw>
-34.5438766479492

> <r_i_glide_ecoul>
-10.2605819702148

> <r_i_glide_erotb>
0.451421495953057

> <r_i_glide_esite>
-0.0785368765525726

> <r_i_glide_emodel>
-65.0266254058419

> <r_i_glide_energy>
-44.8044586181641

> <r_i_glide_einternal>
0.569370567798615

> <i_i_glide_confnum>
1

> <i_i_glide_posenum>
174

> <r_i_glide_eff_state_penalty>
0

> <s_user_duplicate_titles>
CHEMBL3231_lig2021

> <i_f3d_flags>
0

> <s_m_subgroup_title>
dock_pv

> <s_m_subgroupid>
dock_pv

> <b_m_subgroup_collapsed>
1

$$$$
CHEMBL3231_lig353
                    3D
 Schrodinger Suite 2021-1.
 43 46  0  0  1  0            999 V2000
   51.3359  100.5551   28.0019 C   0  0  0  0  0  0
   51.2441  101.8995   28.1951 N   0  0  0  0  0  0
   51.8985  102.4643   29.2436 C   0  0  0  0  0  0
   52.0430   99.6978   28.8510 C   0  0  0  0  0  0
   52.7277  100.3057   29.9072 C   0  0  0  0  0  0
   52.6730  101.7076   30.1357 C   0  0  0  0  0  0
   53.4730  101.9754   31.2977 C   0  0  0  0  0  0
   54.0094  100.7665   31.7326 C   0  0  0  0  0  0
   53.5493   99.7825   30.8791 N   0  0  0  0  0  0
   54.8387  100.5000   32.8868 C   0  0  0  0  0  0
   55.5349   99.3532   32.8086 N   0  0  0  0  0  0
   54.7897  101.2138   33.8889 O   0  0  0  0  0  0
   56.1659   98.6340   33.9111 C   0  0  0  0  0  0
   55.5384   97.2510   34.0449 C   0  0  0  0  0  0
   54.5787   96.9986   35.0289 C   0  0  0  0  0  0
   53.9750   95.7437   35.1121 C   0  0  0  0  0  0
   54.3306   94.7367   34.2155 C   0  0  0  0  0  0
   55.3080   94.9572   33.2438 C   0  0  0  0  0  0
   55.9184   96.2217   33.1764 C   0  0  0  0  0  0
   55.6009   93.9031   32.4011 O   0  0  0  0  0  0
   56.6828   94.0433   31.4852 C   0  0  0  0  0  0
   50.6930  100.0172   26.7651 C   0  0  0  0  0  0
   50.6296   98.6801   26.3308 C   0  0  0  0  0  0
   50.0430   98.5289   25.1688 N   0  0  0  0  0  0
   49.6916   99.7667   24.8111 N   0  0  0  0  0  0
   50.0430  100.7030   25.7465 C   0  0  0  0  0  0
   51.8183  103.5363   29.3465 H   0  0  0  0  0  0
   52.1039   98.6342   28.6777 H   0  0  0  0  0  0
   53.6570  102.9311   31.7680 H   0  0  0  0  0  0
   53.7963   98.8117   31.0079 H   0  0  0  0  0  0
   55.8025   99.0243   31.8908 H   0  0  0  0  0  0
   56.0953   99.1706   34.8609 H   0  0  0  0  0  0
   57.2327   98.5363   33.6982 H   0  0  0  0  0  0
   54.2863   97.7795   35.7164 H   0  0  0  0  0  0
   53.2246   95.5523   35.8649 H   0  0  0  0  0  0
   53.8509   93.7717   34.2796 H   0  0  0  0  0  0
   56.6722   96.4257   32.4300 H   0  0  0  0  0  0
   56.8428   93.1039   30.9588 H   0  0  0  0  0  0
   56.4702   94.8052   30.7345 H   0  0  0  0  0  0
   57.6138   94.2933   31.9996 H   0  0  0  0  0  0
   51.0309   97.8254   26.8561 H   0  0  0  0  0  0
   49.2225   99.9594   23.9303 H   0  0  0  0  0  0
   49.8256  101.7519   25.6090 H   0  0  0  0  0  0
  1  2  2  0  0  0
  1  4  1  0  0  0
  1 22  1  0  0  0
  2  3  1  0  0  0
  3  6  2  0  0  0
  3 27  1  0  0  0
  4  5  2  0  0  0
  4 28  1  0  0  0
  5  9  1  0  0  0
  5  6  1  0  0  0
  6  7  1  0  0  0
  7  8  2  0  0  0
  7 29  1  0  0  0
  8  9  1  0  0  0
  8 10  1  0  0  0
  9 30  1  0  0  0
 10 11  1  0  0  0
 10 12  2  0  0  0
 11 13  1  0  0  0
 11 31  1  0  0  0
 13 14  1  0  0  0
 13 32  1  0  0  0
 13 33  1  0  0  0
 14 15  2  0  0  0
 14 19  1  0  0  0
 15 16  1  0  0  0
 15 34  1  0  0  0
 16 17  2  0  0  0
 16 35  1  0  0  0
 17 18  1  0  0  0
 17 36  1  0  0  0
 18 19  2  0  0  0
 18 20  1  0  0  0
 19 37  1  0  0  0
 20 21  1  0  0  0
 21 38  1  0  0  0
 21 39  1  0  0  0
 21 40  1  0  0  0
 22 23  1  0  0  0
 22 26  2  0  0  0
 23 24  2  0  0  0
 23 41  1  0  0  0
 24 25  1  0  0  0
 25 26  1  0  0  0
 25 42  1  0  0  0
 26 43  1  0  0  0
M  END
> <s_m_entry_id>
28335

> <s_m_entry_name>
dock_pv.496

> <s_m_Source_Path>
/home/csk/Desktop/cluster/DUD-E-result/rock1

> <s_m_Source_File>
dock_pv.maegz

> <i_m_Source_File_Index>
496

> <chembl_id>
CHEMBL1923162

> <chembl_pref_name>
None

> <i_lp_mmshare_version>
53161

> <r_lp_tautomer_probability>
0.4999828386471

> <s_lp_Force_Field>
OPLS_2005

> <r_lp_Energy>
13.508916

> <b_lp_Chiralities_Consistent>
1

> <s_lp_Variant>
CHEMBL3231_lig353-1

> <s_i_glide_gridfile>
glide-grid_2etr

> <i_i_glide_lignum>
501

> <i_i_glide_rotatable_bonds>
6

> <r_i_docking_score>
-7.36527029618982

> <r_i_glide_ligand_efficiency>
-0.283279626776532

> <r_i_glide_ligand_efficiency_sa>
-0.839214779673968

> <r_i_glide_ligand_efficiency_ln>
-1.72970956163715

> <r_i_glide_gscore>
-7.36527029618982

> <r_i_glide_lipo>
-1.83820393289125

> <r_i_glide_hbond>
-0.664458508150062

> <r_i_glide_metal>
0

> <r_i_glide_rewards>
-1.95189752827226

> <r_i_glide_evdw>
-44.8591957092285

> <r_i_glide_ecoul>
-7.32426071166992

> <r_i_glide_erotb>
0.551789807831746

> <r_i_glide_esite>
-0.120901242496083

> <r_i_glide_emodel>
-73.398881873194

> <r_i_glide_energy>
-52.1834564208984

> <r_i_glide_einternal>
4.83890295028687

> <i_i_glide_confnum>
6

> <i_i_glide_posenum>
81

> <r_i_glide_eff_state_penalty>
0

> <s_user_duplicate_titles>
CHEMBL3231_lig353

> <i_f3d_flags>
0

> <s_m_subgroup_title>
dock_pv

> <s_m_subgroupid>
dock_pv

> <b_m_subgroup_collapsed>
1

$$$$
CHEMBL3231_lig343
                    3D
 Schrodinger Suite 2021-1.
 61 65  0  0  1  0            999 V2000
   50.6668  101.8109   28.3345 C   0  0  0  0  0  0
   51.1871  100.5780   27.9396 C   0  0  0  0  0  0
   52.1555   99.9057   28.6254 N   0  0  0  0  0  0
   51.1076  102.3972   29.5165 C   0  0  0  0  0  0
   52.1019  101.7377   30.2611 C   0  0  0  0  0  0
   52.6047  100.5135   29.7337 C   0  0  0  0  0  0
   53.6518  100.1156   30.5491 N   0  0  0  0  0  0
   53.7235  100.9949   31.6071 C   0  0  0  0  0  0
   52.7633  101.9981   31.5096 C   0  0  0  0  0  0
   50.6455   99.9125   26.7233 C   0  0  0  0  0  0
   49.9779  100.5105   25.6646 C   0  0  0  0  0  0
   49.6432   99.5014   24.8110 N   0  0  0  0  0  0
   50.0432   98.3033   25.2362 N   0  0  0  0  0  0
   50.6575   98.5531   26.3705 C   0  0  0  0  0  0
   54.5420   98.9702   30.3622 C   0  0  0  0  0  0
   52.5137  103.0652   32.4411 C   0  0  0  0  0  0
   53.2446  103.0419   33.5719 N   0  0  0  0  0  0
   51.6433  103.9032   32.2028 O   0  0  0  0  0  0
   53.1548  104.0181   34.6621 C   0  0  0  0  0  0
   51.7497  104.2812   35.2101 C   0  0  0  0  0  0
   51.1588  105.5352   35.0263 C   0  0  0  0  0  0
   49.8707  105.8038   35.5160 C   0  0  0  0  0  0
   49.1874  104.7947   36.1986 C   0  0  0  0  0  0
   49.7739  103.5434   36.3959 C   0  0  0  0  0  0
   51.0530  103.2884   35.9053 C   0  0  0  0  0  0
   49.2166  107.0108   35.3616 O   0  0  0  0  0  0
   49.9086  108.0924   34.7382 C   0  0  0  0  0  0
   54.0430   97.7160   31.1160 C   0  0  0  0  0  0
   54.1241   97.8573   32.5730 N   0  0  0  0  0  0
   55.4879   97.8582   33.0924 C   0  0  0  0  0  0
   55.3497   97.5950   34.5941 C   0  0  0  0  0  0
   54.0060   96.8762   34.7234 C   0  0  0  0  0  0
   53.5262   96.7361   33.2784 C   0  0  0  0  0  0
   49.9104  102.3027   27.7449 H   0  0  0  0  0  0
   50.6966  103.3373   29.8505 H   0  0  0  0  0  0
   54.4727  100.8140   32.3672 H   0  0  0  0  0  0
   49.7054  101.5336   25.4519 H   0  0  0  0  0  0
   49.1590   99.6292   23.9273 H   0  0  0  0  0  0
   51.0957   97.7576   26.9567 H   0  0  0  0  0  0
   54.6315   98.7684   29.2974 H   0  0  0  0  0  0
   55.5453   99.2541   30.6830 H   0  0  0  0  0  0
   54.0515  102.4346   33.5805 H   0  0  0  0  0  0
   53.6265  104.9517   34.3407 H   0  0  0  0  0  0
   53.7693  103.6492   35.4843 H   0  0  0  0  0  0
   51.7087  106.2877   34.4792 H   0  0  0  0  0  0
   48.1918  104.9838   36.5784 H   0  0  0  0  0  0
   49.2335  102.7709   36.9249 H   0  0  0  0  0  0
   51.5009  102.3160   36.0514 H   0  0  0  0  0  0
   49.2779  108.9779   34.7470 H   0  0  0  0  0  0
   50.8275  108.3453   35.2707 H   0  0  0  0  0  0
   50.1512  107.8742   33.6962 H   0  0  0  0  0  0
   53.0151   97.5007   30.8156 H   0  0  0  0  0  0
   54.6325   96.8495   30.8064 H   0  0  0  0  0  0
   56.1167   97.1160   32.5981 H   0  0  0  0  0  0
   55.9597   98.8196   32.8874 H   0  0  0  0  0  0
   56.1757   96.9800   34.9579 H   0  0  0  0  0  0
   55.3611   98.5288   35.1597 H   0  0  0  0  0  0
   53.2934   97.4546   35.3137 H   0  0  0  0  0  0
   54.1053   95.9012   35.2031 H   0  0  0  0  0  0
   52.4426   96.8090   33.1943 H   0  0  0  0  0  0
   53.7841   95.7717   32.8359 H   0  0  0  0  0  0
  1  4  1  0  0  0
  1  2  2  0  0  0
  1 34  1  0  0  0
  2 10  1  0  0  0
  2  3  1  0  0  0
  3  6  2  0  0  0
  4  5  2  0  0  0
  4 35  1  0  0  0
  5  9  1  0  0  0
  5  6  1  0  0  0
  6  7  1  0  0  0
  7  8  1  0  0  0
  7 15  1  0  0  0
  8  9  2  0  0  0
  8 36  1  0  0  0
  9 16  1  0  0  0
 10 11  2  0  0  0
 10 14  1  0  0  0
 11 12  1  0  0  0
 11 37  1  0  0  0
 12 13  1  0  0  0
 12 38  1  0  0  0
 13 14  2  0  0  0
 14 39  1  0  0  0
 15 28  1  0  0  0
 15 40  1  0  0  0
 15 41  1  0  0  0
 16 17  1  0  0  0
 16 18  2  0  0  0
 17 19  1  0  0  0
 17 42  1  0  0  0
 19 20  1  0  0  0
 19 43  1  0  0  0
 19 44  1  0  0  0
 20 21  2  0  0  0
 20 25  1  0  0  0
 21 22  1  0  0  0
 21 45  1  0  0  0
 22 23  2  0  0  0
 22 26  1  0  0  0
 23 24  1  0  0  0
 23 46  1  0  0  0
 24 25  2  0  0  0
 24 47  1  0  0  0
 25 48  1  0  0  0
 26 27  1  0  0  0
 27 49  1  0  0  0
 27 50  1  0  0  0
 27 51  1  0  0  0
 28 29  1  0  0  0
 28 52  1  0  0  0
 28 53  1  0  0  0
 29 30  1  0  0  0
 29 33  1  0  0  0
 30 31  1  0  0  0
 30 54  1  0  0  0
 30 55  1  0  0  0
 31 32  1  0  0  0
 31 56  1  0  0  0
 31 57  1  0  0  0
 32 33  1  0  0  0
 32 58  1  0  0  0
 32 59  1  0  0  0
 33 60  1  0  0  0
 33 61  1  0  0  0
M  END
> <s_m_entry_id>
28336

> <s_m_entry_name>
dock_pv.497

> <s_m_Source_Path>
/home/csk/Desktop/cluster/DUD-E-result/rock1

> <s_m_Source_File>
dock_pv.maegz

> <i_m_Source_File_Index>
497

> <chembl_id>
CHEMBL1922137

> <chembl_pref_name>
None

> <i_lp_mmshare_version>
53161

> <r_lp_tautomer_probability>
0.5

> <s_lp_Force_Field>
OPLS_2005

> <r_lp_Energy>
37.568923

> <b_lp_Chiralities_Consistent>
1

> <s_lp_Variant>
CHEMBL3231_lig343-1

> <s_i_glide_gridfile>
glide-grid_2etr

> <i_i_glide_lignum>
491

> <i_i_glide_rotatable_bonds>
9

> <r_i_docking_score>
-7.36482183624773

> <r_i_glide_ligand_efficiency>
-0.223176419280234

> <r_i_glide_ligand_efficiency_sa>
-0.715846025652574

> <r_i_glide_ligand_efficiency_ln>
-1.63789824337486

> <r_i_glide_gscore>
-7.36482183624773

> <r_i_glide_lipo>
-2.06429074952347

> <r_i_glide_hbond>
-0.632239840783745

> <r_i_glide_metal>
0

> <r_i_glide_rewards>
-1.34176942324103

> <r_i_glide_evdw>
-49.4261856079102

> <r_i_glide_ecoul>
-9.04694175720215

> <r_i_glide_erotb>
0.566804537494054

> <r_i_glide_esite>
-0.0649758162177159

> <r_i_glide_emodel>
-82.2609881715652

> <r_i_glide_energy>
-58.4731273651123

> <r_i_glide_einternal>
6.89052581787109

> <i_i_glide_confnum>
40

> <i_i_glide_posenum>
108

> <r_i_glide_eff_state_penalty>
0

> <s_user_duplicate_titles>
CHEMBL3231_lig343

> <i_f3d_flags>
0

> <s_m_subgroup_title>
dock_pv

> <s_m_subgroupid>
dock_pv

> <b_m_subgroup_collapsed>
1

$$$$
CHEMBL3231_lig759
                    3D
 Schrodinger Suite 2021-1.
 41 43  0  0  1  0            999 V2000
   56.0746   99.5104   32.8101 O   0  0  0  0  0  0
   55.7932   98.3687   33.5880 C   0  0  0  0  0  0
   54.2794   98.2047   33.8560 C   0  0  1  0  0  0
   53.4924   98.4104   32.6323 N   0  0  0  0  0  0
   52.5188   99.3154   32.4409 C   0  0  0  0  0  0
   52.0383  100.0089   33.3381 O   0  0  0  0  0  0
   52.0684   99.4710   31.0117 C   0  0  0  0  0  0
   52.0220   98.3743   30.1474 C   0  0  0  0  0  0
   51.6319   98.5391   28.8237 C   0  0  0  0  0  0
   51.2425   99.7880   28.3218 C   0  0  0  0  0  0
   50.7994   99.8005   26.8828 C   0  0  0  0  0  0
   50.2960   98.7156   26.1316 C   0  0  0  0  0  0
   50.0018   99.0139   24.8916 N   0  0  0  0  0  0
   50.2913  100.3081   24.7987 N   0  0  0  0  0  0
   50.7871  100.8355   25.9584 C   0  0  0  0  0  0
   51.2681  100.8962   29.1993 C   0  0  0  0  0  0
   51.6997  100.7276   30.5229 C   0  0  0  0  0  0
   50.8131  102.2326   28.8209 C   0  0  0  0  0  0
   50.4465  103.2931   28.5287 N   0  0  0  0  0  0
   54.0196   96.8414   34.4976 C   0  0  0  0  0  0
   54.0989   95.6617   33.7384 C   0  0  0  0  0  0
   54.3911   95.7109   32.4141 F   0  0  0  0  0  0
   53.9013   94.4216   34.3422 C   0  0  0  0  0  0
   53.6591   94.3422   35.7113 C   0  0  0  0  0  0
   53.6013   95.5067   36.4757 C   0  0  0  0  0  0
   53.7640   96.7512   35.8720 C   0  0  0  0  0  0
   53.6851   97.8664   36.6330 F   0  0  0  0  0  0
   56.7942   99.2661   32.2027 H   0  0  0  0  0  0
   56.3456   98.4392   34.5265 H   0  0  0  0  0  0
   56.1919   97.5012   33.0593 H   0  0  0  0  0  0
   54.0175   98.9927   34.5669 H   0  0  0  0  0  0
   53.8267   97.9053   31.8259 H   0  0  0  0  0  0
   52.2883   97.3837   30.4920 H   0  0  0  0  0  0
   51.6342   97.6650   28.1903 H   0  0  0  0  0  0
   50.1452   97.7084   26.4963 H   0  0  0  0  0  0
   50.1465  100.8205   23.9399 H   0  0  0  0  0  0
   51.0757  101.8792   26.0163 H   0  0  0  0  0  0
   51.7328  101.5781   31.1916 H   0  0  0  0  0  0
   53.9515   93.5214   33.7509 H   0  0  0  0  0  0
   53.5217   93.3807   36.1788 H   0  0  0  0  0  0
   53.4242   95.4518   37.5391 H   0  0  0  0  0  0
  1  2  1  0  0  0
  1 28  1  0  0  0
  2  3  1  0  0  0
  2 29  1  0  0  0
  2 30  1  0  0  0
  3  4  1  0  0  0
  3 20  1  0  0  0
  3 31  1  0  0  0
  4  5  1  0  0  0
  4 32  1  0  0  0
  5  6  2  0  0  0
  5  7  1  0  0  0
  7  8  2  0  0  0
  7 17  1  0  0  0
  8  9  1  0  0  0
  8 33  1  0  0  0
  9 10  2  0  0  0
  9 34  1  0  0  0
 10 11  1  0  0  0
 10 16  1  0  0  0
 11 12  1  0  0  0
 11 15  2  0  0  0
 12 13  2  0  0  0
 12 35  1  0  0  0
 13 14  1  0  0  0
 14 15  1  0  0  0
 14 36  1  0  0  0
 15 37  1  0  0  0
 16 17  2  0  0  0
 16 18  1  0  0  0
 17 38  1  0  0  0
 18 19  3  0  0  0
 20 21  2  0  0  0
 20 26  1  0  0  0
 21 22  1  0  0  0
 21 23  1  0  0  0
 23 24  2  0  0  0
 23 39  1  0  0  0
 24 25  1  0  0  0
 24 40  1  0  0  0
 25 26  2  0  0  0
 25 41  1  0  0  0
 26 27  1  0  0  0
M  END
> <s_m_entry_id>
28337

> <s_m_entry_name>
dock_pv.498

> <s_m_Source_Path>
/home/csk/Desktop/cluster/DUD-E-result/rock1

> <s_m_Source_File>
dock_pv.maegz

> <i_m_Source_File_Index>
498

> <chembl_id>
CHEMBL4107876

> <chembl_pref_name>
None

> <i_lp_mmshare_version>
53161

> <r_lp_tautomer_probability>
0.5

> <s_lp_Force_Field>
OPLS_2005

> <r_lp_Energy>
18.96547

> <b_lp_Chiralities_Consistent>
1

> <s_lp_Variant>
CHEMBL3231_lig759-1

> <s_i_glide_gridfile>
glide-grid_2etr

> <i_i_glide_lignum>
1077

> <i_i_glide_rotatable_bonds>
7

> <r_i_docking_score>
-7.36337136377284

> <r_i_glide_ligand_efficiency>
-0.272717457917513

> <r_i_glide_ligand_efficiency_sa>
-0.818152372853706

> <r_i_glide_ligand_efficiency_ln>
-1.71407145882188

> <r_i_glide_gscore>
-7.36337136377284

> <r_i_glide_lipo>
-2.51371851752625

> <r_i_glide_hbond>
-0.178047228686035

> <r_i_glide_metal>
0

> <r_i_glide_rewards>
-2.38067741698644

> <r_i_glide_evdw>
-42.161247253418

> <r_i_glide_ecoul>
-5.80658721923828

> <r_i_glide_erotb>
0.710121324936525

> <r_i_glide_esite>
-0.0219990799539987

> <r_i_glide_emodel>
-67.2870792768792

> <r_i_glide_energy>
-47.9678344726562

> <r_i_glide_einternal>
6.55239486694336

> <i_i_glide_confnum>
25

> <i_i_glide_posenum>
202

> <r_i_glide_eff_state_penalty>
0

> <s_user_duplicate_titles>
CHEMBL3231_lig759

> <i_f3d_flags>
0

> <s_m_subgroup_title>
dock_pv

> <s_m_subgroupid>
dock_pv

> <b_m_subgroup_collapsed>
1

$$$$
CHEMBL3231_lig398
                    3D
 Schrodinger Suite 2021-1.
 55 57  0  0  1  0            999 V2000
   52.7710  102.5625   33.8427 N   0  0  0  0  0  0
   52.1769  102.4875   32.6148 C   0  0  0  0  0  0
   51.1605  103.1259   32.3263 O   0  0  0  0  0  0
   52.7398  101.6097   31.7556 N   0  0  0  0  0  0
   54.0616  101.9145   34.1859 C   0  0  0  0  0  0
   53.9090  100.5895   34.9210 C   0  0  0  0  0  0
   53.8735   99.3829   34.2135 C   0  0  0  0  0  0
   53.7030   98.1614   34.8887 C   0  0  0  0  0  0
   53.5842   98.1715   36.2800 C   0  0  0  0  0  0
   53.6427   99.3686   36.9922 C   0  0  0  0  0  0
   53.8121  100.5744   36.3153 C   0  0  0  0  0  0
   53.6407   96.9267   34.2741 O   0  0  0  0  0  0
   53.7074   96.8477   32.8531 C   0  0  0  0  0  0
   52.2282  103.4171   34.9266 C   0  0  0  0  0  0
   50.7191  103.3222   35.2965 C   0  0  0  0  0  0
   50.2476  102.0673   35.8982 N   0  0  0  0  0  0
   48.8425  102.2274   36.2649 C   0  0  0  0  0  0
   50.3717  100.9035   35.0250 C   0  0  0  0  0  0
   52.2355  101.1934   30.5174 C   0  0  0  0  0  0
   52.5083   99.8768   30.1437 C   0  0  0  0  0  0
   51.9956   99.4011   28.9382 C   0  0  0  0  0  0
   51.2480  100.2466   28.1121 C   0  0  0  0  0  0
   51.0442  101.5627   28.5427 C   0  0  0  0  0  0
   51.5220  102.0402   29.7182 N   0  0  0  0  0  0
   49.8148   99.5606   24.8130 N   0  0  0  0  0  0
   50.0429   98.3030   25.2074 N   0  0  0  0  0  0
   50.5608   98.4197   26.4042 C   0  0  0  0  0  0
   50.6927   99.7533   26.8241 C   0  0  0  0  0  0
   50.1759  100.4803   25.7585 C   0  0  0  0  0  0
   53.5104  101.0671   32.1085 H   0  0  0  0  0  0
   54.6534  102.5894   34.8069 H   0  0  0  0  0  0
   54.6837  101.7546   33.3031 H   0  0  0  0  0  0
   53.9688   99.4036   33.1390 H   0  0  0  0  0  0
   53.4597   97.2390   36.8112 H   0  0  0  0  0  0
   53.5510   99.3595   38.0685 H   0  0  0  0  0  0
   53.8476  101.4940   36.8780 H   0  0  0  0  0  0
   53.6541   95.8032   32.5474 H   0  0  0  0  0  0
   52.8673   97.3678   32.3882 H   0  0  0  0  0  0
   54.6432   97.2550   32.4682 H   0  0  0  0  0  0
   52.7978  103.2499   35.8393 H   0  0  0  0  0  0
   52.4493  104.4482   34.6457 H   0  0  0  0  0  0
   50.5449  104.1102   36.0320 H   0  0  0  0  0  0
   50.0966  103.5936   34.4442 H   0  0  0  0  0  0
   48.4511  101.3276   36.7351 H   0  0  0  0  0  0
   48.7157  103.0404   36.9823 H   0  0  0  0  0  0
   48.2159  102.4412   35.3959 H   0  0  0  0  0  0
   49.8176  100.0451   35.4074 H   0  0  0  0  0  0
   50.0332  101.1154   34.0135 H   0  0  0  0  0  0
   51.4074  100.5901   34.9559 H   0  0  0  0  0  0
   53.0924   99.2225   30.7762 H   0  0  0  0  0  0
   52.1905   98.3774   28.6538 H   0  0  0  0  0  0
   50.4769  102.2640   27.9478 H   0  0  0  0  0  0
   49.4085   99.7821   23.9077 H   0  0  0  0  0  0
   50.8470   97.5433   26.9669 H   0  0  0  0  0  0
   50.0459  101.5396   25.5884 H   0  0  0  0  0  0
  1  2  1  0  0  0
  1  5  1  0  0  0
  1 14  1  0  0  0
  2  3  2  0  0  0
  2  4  1  0  0  0
  4 19  1  0  0  0
  4 30  1  0  0  0
  5  6  1  0  0  0
  5 31  1  0  0  0
  5 32  1  0  0  0
  6  7  1  0  0  0
  6 11  2  0  0  0
  7  8  2  0  0  0
  7 33  1  0  0  0
  8  9  1  0  0  0
  8 12  1  0  0  0
  9 10  2  0  0  0
  9 34  1  0  0  0
 10 11  1  0  0  0
 10 35  1  0  0  0
 11 36  1  0  0  0
 12 13  1  0  0  0
 13 37  1  0  0  0
 13 38  1  0  0  0
 13 39  1  0  0  0
 14 15  1  0  0  0
 14 40  1  0  0  0
 14 41  1  0  0  0
 15 16  1  0  0  0
 15 42  1  0  0  0
 15 43  1  0  0  0
 16 17  1  0  0  0
 16 18  1  0  0  0
 17 44  1  0  0  0
 17 45  1  0  0  0
 17 46  1  0  0  0
 18 47  1  0  0  0
 18 48  1  0  0  0
 18 49  1  0  0  0
 19 20  1  0  0  0
 19 24  2  0  0  0
 20 21  2  0  0  0
 20 50  1  0  0  0
 21 22  1  0  0  0
 21 51  1  0  0  0
 22 23  2  0  0  0
 22 28  1  0  0  0
 23 24  1  0  0  0
 23 52  1  0  0  0
 25 26  1  0  0  0
 25 29  1  0  0  0
 25 53  1  0  0  0
 26 27  2  0  0  0
 27 28  1  0  0  0
 27 54  1  0  0  0
 28 29  2  0  0  0
 29 55  1  0  0  0
M  END
> <s_m_entry_id>
28338

> <s_m_entry_name>
dock_pv.499

> <s_m_Source_Path>
/home/csk/Desktop/cluster/DUD-E-result/rock1

> <s_m_Source_File>
dock_pv.maegz

> <i_m_Source_File_Index>
499

> <chembl_id>
CHEMBL2332063

> <chembl_pref_name>
None

> <i_lp_mmshare_version>
53161

> <r_lp_tautomer_probability>
0.5

> <s_lp_Force_Field>
OPLS_2005

> <r_lp_Energy>
33.080925

> <b_lp_Chiralities_Consistent>
1

> <s_lp_Variant>
CHEMBL3231_lig398-1

> <s_i_glide_gridfile>
glide-grid_2etr

> <i_i_glide_lignum>
558

> <i_i_glide_rotatable_bonds>
10

> <r_i_docking_score>
-7.361520890197

> <r_i_glide_ligand_efficiency>
-0.253845547937828

> <r_i_glide_ligand_efficiency_sa>
-0.779893947179453

> <r_i_glide_ligand_efficiency_ln>
-1.68560161179184

> <r_i_glide_gscore>
-7.361520890197

> <r_i_glide_lipo>
-2.50666238580513

> <r_i_glide_hbond>
-0.59876798611615

> <r_i_glide_metal>
0

> <r_i_glide_rewards>
-1.61954770841756

> <r_i_glide_evdw>
-43.2096900939941

> <r_i_glide_ecoul>
-7.5513858795166

> <r_i_glide_erotb>
0.703396019843212

> <r_i_glide_esite>
-0.0467464430741734

> <r_i_glide_emodel>
-73.5115639524769

> <r_i_glide_energy>
-50.7610759735107

> <r_i_glide_einternal>
3.65396451950073

> <i_i_glide_confnum>
12

> <i_i_glide_posenum>
19

> <r_i_glide_eff_state_penalty>
0

> <s_user_duplicate_titles>
CHEMBL3231_lig398

> <i_f3d_flags>
0

> <s_m_subgroup_title>
dock_pv

> <s_m_subgroupid>
dock_pv

> <b_m_subgroup_collapsed>
1

$$$$
CHEMBL3231_lig1997
                    3D
 Schrodinger Suite 2021-1.
 49 53  0  0  1  0            999 V2000
   51.4667  101.2220   28.6992 S   0  0  0  0  0  0
   54.6127  101.1616   33.1993 O   0  0  0  0  0  0
   50.9186  105.9399   35.6050 N   0  0  0  0  0  0
   50.0296  100.5312   24.9588 N   0  0  0  0  0  0
   52.8444   98.0334   32.6096 N   0  0  0  0  0  0
   54.5441  104.8410   33.2113 N   0  0  0  0  0  0
   51.7753   99.6148   29.3451 C   0  0  0  0  0  0
   50.8796  100.5365   27.1995 C   0  0  0  0  0  0
   50.8866   99.1158   27.2283 C   0  0  0  0  0  0
   52.4125   99.4560   30.6917 C   0  0  0  0  0  0
   51.3694   98.6214   28.4664 C   0  0  0  0  0  0
   50.3683  103.9214   34.7761 C   0  0  0  0  0  0
   51.6744  104.2665   34.2720 C   0  0  0  0  0  0
   49.9117  105.0051   35.5904 C   0  0  0  0  0  0
   53.2045  100.4590   31.2747 C   0  0  0  0  0  0
   53.8209  100.2530   32.5209 C   0  0  0  0  0  0
   50.4425  101.2075   26.0540 C   0  0  0  0  0  0
   50.4454   98.4262   26.0852 C   0  0  0  0  0  0
   52.2659   98.2606   31.4054 C   0  0  0  0  0  0
   51.9594  105.5028   34.8317 C   0  0  0  0  0  0
   52.5108  103.4365   33.3027 C   0  0  0  0  0  0
   49.5225  102.8114   34.6091 C   0  0  0  0  0  0
   53.6073   99.0205   33.1400 C   0  0  0  0  0  0
   48.6549  105.0112   36.1997 C   0  0  0  0  0  0
   50.0414   99.1810   24.9845 C   0  0  0  0  0  0
   54.0411  103.5135   33.5186 C   0  0  1  0  0  0
   54.8435  102.4818   32.6986 C   0  0  0  0  0  0
   48.2637  102.8203   35.2094 C   0  0  0  0  0  0
   47.8392  103.9034   35.9752 C   0  0  0  0  0  0
   50.9332  106.8297   36.0835 H   0  0  0  0  0  0
   54.9748  104.8957   32.2892 H   0  0  0  0  0  0
   53.7745  105.4991   33.1745 H   0  0  0  0  0  0
   51.4506   97.5665   28.6737 H   0  0  0  0  0  0
   53.3418  101.3823   30.7403 H   0  0  0  0  0  0
   50.4184  102.2870   26.0060 H   0  0  0  0  0  0
   50.4363   97.3477   26.0569 H   0  0  0  0  0  0
   51.6752   97.4421   31.0194 H   0  0  0  0  0  0
   52.8255  106.1418   34.7224 H   0  0  0  0  0  0
   52.2182  102.3926   33.4114 H   0  0  0  0  0  0
   52.2689  103.6945   32.2712 H   0  0  0  0  0  0
   49.8368  101.9681   34.0122 H   0  0  0  0  0  0
   54.0648   98.8077   34.0951 H   0  0  0  0  0  0
   48.3251  105.8399   36.8053 H   0  0  0  0  0  0
   49.6996   98.7045   24.0776 H   0  0  0  0  0  0
   54.2407  103.3260   34.5750 H   0  0  0  0  0  0
   54.7048  102.6131   31.6273 H   0  0  0  0  0  0
   55.9018  102.6935   32.8471 H   0  0  0  0  0  0
   47.6013  101.9768   35.0755 H   0  0  0  0  0  0
   46.8499  103.8835   36.4104 H   0  0  0  0  0  0
  1  7  1  0  0  0
  1  8  1  0  0  0
  2 16  1  0  0  0
  2 27  1  0  0  0
  3 14  1  0  0  0
  3 20  1  0  0  0
  3 30  1  0  0  0
  4 17  1  0  0  0
  4 25  2  0  0  0
  5 19  2  0  0  0
  5 23  1  0  0  0
  6 26  1  0  0  0
  6 31  1  0  0  0
  6 32  1  0  0  0
  7 10  1  0  0  0
  7 11  2  0  0  0
  8  9  1  0  0  0
  8 17  2  0  0  0
  9 11  1  0  0  0
  9 18  2  0  0  0
 10 15  2  0  0  0
 10 19  1  0  0  0
 11 33  1  0  0  0
 12 13  1  0  0  0
 12 14  1  0  0  0
 12 22  2  0  0  0
 13 20  2  0  0  0
 13 21  1  0  0  0
 14 24  2  0  0  0
 15 16  1  0  0  0
 15 34  1  0  0  0
 16 23  2  0  0  0
 17 35  1  0  0  0
 18 25  1  0  0  0
 18 36  1  0  0  0
 19 37  1  0  0  0
 20 38  1  0  0  0
 21 26  1  0  0  0
 21 39  1  0  0  0
 21 40  1  0  0  0
 22 28  1  0  0  0
 22 41  1  0  0  0
 23 42  1  0  0  0
 24 29  1  0  0  0
 24 43  1  0  0  0
 25 44  1  0  0  0
 26 27  1  0  0  0
 26 45  1  0  0  0
 27 46  1  0  0  0
 27 47  1  0  0  0
 28 29  2  0  0  0
 28 48  1  0  0  0
 29 49  1  0  0  0
M  END
> <s_m_entry_id>
28339

> <s_m_entry_name>
dock_pv.500

> <s_m_Source_Path>
/home/csk/Desktop/cluster/DUD-E-result/rock1

> <s_m_Source_File>
dock_pv.maegz

> <i_m_Source_File_Index>
500

> <chembl_id>
CHEMBL1966524

> <chembl_pref_name>
None

> <i_lp_mmshare_version>
53161

> <r_lp_tautomer_probability>
1

> <s_lp_Force_Field>
OPLS_2005

> <r_lp_Energy>
21.902535

> <b_lp_Chiralities_Consistent>
1

> <s_lp_Variant>
CHEMBL3231_lig1997-2

> <s_i_glide_gridfile>
glide-grid_2etr

> <i_i_glide_lignum>
2905

> <i_i_glide_rotatable_bonds>
6

> <r_i_docking_score>
-7.35992693657973

> <r_i_glide_ligand_efficiency>
-0.253790584019991

> <r_i_glide_ligand_efficiency_sa>
-0.779725080610067

> <r_i_glide_ligand_efficiency_ln>
-1.68523663683267

> <r_i_glide_gscore>
-7.35992693657973

> <r_i_glide_lipo>
-3.48667687019911

> <r_i_glide_hbond>
-0.381089952105722

> <r_i_glide_metal>
0

> <r_i_glide_rewards>
-1.00340954792063

> <r_i_glide_evdw>
-47.0611152648926

> <r_i_glide_ecoul>
-4.81440210342407

> <r_i_glide_erotb>
0.611132172806542

> <r_i_glide_esite>
-0.0246666604025749

> <r_i_glide_emodel>
-72.7555303544653

> <r_i_glide_energy>
-51.8755173683167

> <r_i_glide_einternal>
2.25659871101379

> <i_i_glide_confnum>
19

> <i_i_glide_posenum>
304

> <r_i_glide_eff_state_penalty>
0

> <s_user_duplicate_titles>
CHEMBL3231_lig1997

> <i_f3d_flags>
0

> <s_m_subgroup_title>
dock_pv

> <s_m_subgroupid>
dock_pv

> <b_m_subgroup_collapsed>
1

$$$$
CHEMBL3231_lig476
                    3D
 Schrodinger Suite 2021-1.
 44 47  0  0  1  0            999 V2000
   54.0861  103.9707   32.8101 N   0  0  0  0  0  0
   54.7415  103.0777   33.5905 C   0  0  0  0  0  0
   54.7479  101.7028   33.3553 C   0  0  0  0  0  0
   53.4101  103.4923   31.7396 C   0  0  0  0  0  0
   53.3312  102.1260   31.3936 C   0  0  0  0  0  0
   54.0267  101.1994   32.2319 C   0  0  0  0  0  0
   53.9293   99.8312   31.8527 C   0  0  0  0  0  0
   53.2087   99.4412   30.7737 N   0  0  0  0  0  0
   52.5744  100.3941   30.0435 C   0  0  0  0  0  0
   52.6082  101.7296   30.3075 N   0  0  0  0  0  0
   51.8016   99.9236   28.8423 C   0  0  0  0  0  0
   51.3133  100.8256   27.8787 C   0  0  0  0  0  0
   50.9566   98.0407   27.5064 C   0  0  0  0  0  0
   51.5726   98.5539   28.6442 C   0  0  0  0  0  0
   54.5655   98.8326   32.6163 N   0  0  0  0  0  0
   54.7780   97.4818   32.0843 C   0  0  0  0  0  0
   55.3905   96.4681   33.0908 C   0  0  0  0  0  0
   56.6388   96.9972   33.6114 N   0  0  0  0  0  0
   54.4583   96.2094   34.2896 C   0  0  0  0  0  0
   55.7377   95.1419   32.3896 C   0  0  0  0  0  0
   50.5215   98.9335   26.5291 C   0  0  0  0  0  0
   50.6721  100.3389   26.7278 C   0  0  0  0  0  0
   50.0662  100.8987   25.5785 C   0  0  0  0  0  0
   49.6787   99.8297   24.8107 N   0  0  0  0  0  0
   49.9408   98.6221   25.3321 N   0  0  0  0  0  0
   55.2814  103.4877   34.4307 H   0  0  0  0  0  0
   55.2962  101.0334   34.0040 H   0  0  0  0  0  0
   52.9197  104.2296   31.1240 H   0  0  0  0  0  0
   51.4527  101.8904   28.0030 H   0  0  0  0  0  0
   50.8431   96.9752   27.3774 H   0  0  0  0  0  0
   51.9063   97.8457   29.3860 H   0  0  0  0  0  0
   55.2826   99.1378   33.2567 H   0  0  0  0  0  0
   55.4236   97.5704   31.2071 H   0  0  0  0  0  0
   53.8359   97.0929   31.6966 H   0  0  0  0  0  0
   57.1367   96.2538   34.0769 H   0  0  0  0  0  0
   57.2260   97.2861   32.8296 H   0  0  0  0  0  0
   53.4904   95.8284   33.9619 H   0  0  0  0  0  0
   54.2769   97.1215   34.8598 H   0  0  0  0  0  0
   54.8850   95.4827   34.9816 H   0  0  0  0  0  0
   54.8431   94.6504   32.0105 H   0  0  0  0  0  0
   56.4200   95.2922   31.5516 H   0  0  0  0  0  0
   56.2230   94.4400   33.0698 H   0  0  0  0  0  0
   49.8914  101.9020   25.2219 H   0  0  0  0  0  0
   49.2382   99.9187   23.9002 H   0  0  0  0  0  0
  1  2  2  0  0  0
  1  4  1  0  0  0
  2  3  1  0  0  0
  2 26  1  0  0  0
  3  6  2  0  0  0
  3 27  1  0  0  0
  4  5  2  0  0  0
  4 28  1  0  0  0
  5  6  1  0  0  0
  5 10  1  0  0  0
  6  7  1  0  0  0
  7  8  2  0  0  0
  7 15  1  0  0  0
  8  9  1  0  0  0
  9 10  2  0  0  0
  9 11  1  0  0  0
 11 14  1  0  0  0
 11 12  2  0  0  0
 12 29  1  0  0  0
 12 22  1  0  0  0
 13 21  1  0  0  0
 13 30  1  0  0  0
 13 14  2  0  0  0
 14 31  1  0  0  0
 15 16  1  0  0  0
 15 32  1  0  0  0
 16 17  1  0  0  0
 16 33  1  0  0  0
 16 34  1  0  0  0
 17 18  1  0  0  0
 17 19  1  0  0  0
 17 20  1  0  0  0
 18 35  1  0  0  0
 18 36  1  0  0  0
 19 37  1  0  0  0
 19 38  1  0  0  0
 19 39  1  0  0  0
 20 40  1  0  0  0
 20 41  1  0  0  0
 20 42  1  0  0  0
 21 25  2  0  0  0
 21 22  1  0  0  0
 22 23  2  0  0  0
 23 24  1  0  0  0
 23 43  1  0  0  0
 24 44  1  0  0  0
 24 25  1  0  0  0
M  END
> <s_m_entry_id>
28340

> <s_m_entry_name>
dock_pv.501

> <s_m_Source_Path>
/home/csk/Desktop/cluster/DUD-E-result/rock1

> <s_m_Source_File>
dock_pv.maegz

> <i_m_Source_File_Index>
501

> <chembl_id>
CHEMBL3338838

> <chembl_pref_name>
None

> <i_lp_mmshare_version>
53161

> <r_lp_tautomer_probability>
0.0196078431372549

> <s_lp_Force_Field>
OPLS_2005

> <r_lp_Energy>
32.779606

> <b_lp_Chiralities_Consistent>
1

> <s_lp_Variant>
CHEMBL3231_lig476-2

> <s_i_glide_gridfile>
glide-grid_2etr

> <i_i_glide_lignum>
670

> <i_i_glide_rotatable_bonds>
4

> <r_i_docking_score>
-7.35973472005599

> <r_i_glide_ligand_efficiency>
-0.29438938880224

> <r_i_glide_ligand_efficiency_sa>
-0.86079979387579

> <r_i_glide_ligand_efficiency_ln>
-1.74447768210526

> <r_i_glide_gscore>
-7.35973472005599

> <r_i_glide_lipo>
-2.06727003479633

> <r_i_glide_hbond>
-0.456

> <r_i_glide_metal>
0

> <r_i_glide_rewards>
-2.50063824034242

> <r_i_glide_evdw>
-38.8265914916992

> <r_i_glide_ecoul>
-5.75013017654419

> <r_i_glide_erotb>
0.508692171446939

> <r_i_glide_esite>
-0.0406695152975868

> <r_i_glide_emodel>
-64.1870188026087

> <r_i_glide_energy>
-44.5767216682434

> <r_i_glide_einternal>
1.00063335895538

> <i_i_glide_confnum>
1

> <i_i_glide_posenum>
385

> <r_i_glide_eff_state_penalty>
0

> <s_user_duplicate_titles>
CHEMBL3231_lig476,CHEMBL3231_lig476

> <i_f3d_flags>
0

> <s_m_subgroup_title>
dock_pv

> <s_m_subgroupid>
dock_pv

> <b_m_subgroup_collapsed>
1

$$$$
CHEMBL3231_lig930
                    3D
 Schrodinger Suite 2021-1.
 39 42  0  0  1  0            999 V2000
   53.2785  100.1613   30.9911 N   0  0  0  0  0  0
   53.5320  100.9259   32.0058 C   0  0  0  0  0  0
   52.9738  102.1876   32.0893 N   0  0  0  0  0  0
   52.1080  102.7884   31.2150 C   0  0  0  0  0  0
   52.4444  100.6414   30.0255 C   0  0  0  0  0  0
   51.8570  101.9058   30.0857 C   0  0  0  0  0  0
   50.8399  102.2267   28.7226 S   0  0  0  0  0  0
   51.1822  100.6483   28.0532 C   0  0  0  0  0  0
   52.0680   99.9466   28.8756 C   0  0  0  0  0  0
   50.5843  100.2106   26.7971 C   0  0  0  0  0  0
   50.1267  101.0104   25.7608 C   0  0  0  0  0  0
   49.6520  100.1541   24.8110 N   0  0  0  0  0  0
   49.7920   98.8756   25.1537 N   0  0  0  0  0  0
   50.3347   98.8935   26.3508 C   0  0  0  0  0  0
   51.6436  103.9025   31.4373 O   0  0  0  0  0  0
   50.6090   97.5824   27.0422 C   0  0  0  0  0  0
   54.4418  100.4700   33.1739 C   0  0  1  0  0  0
   53.7775   99.5385   34.1040 N   0  0  2  0  0  0
   53.8987   98.2050   33.5305 C   0  0  0  0  0  0
   55.2828   98.1828   32.8789 C   0  0  0  0  0  0
   55.6847   99.6593   32.7591 C   0  0  0  0  0  0
   52.4427   99.8645   34.6032 C   0  0  0  0  0  0
   53.2098  102.7509   32.8887 H   0  0  0  0  0  0
   52.4415   98.9570   28.6646 H   0  0  0  0  0  0
   50.0954  102.0809   25.6148 H   0  0  0  0  0  0
   49.2554  100.4207   23.9139 H   0  0  0  0  0  0
   50.0750   97.5046   27.9888 H   0  0  0  0  0  0
   50.3409   96.7108   26.4419 H   0  0  0  0  0  0
   51.6686   97.5026   27.2624 H   0  0  0  0  0  0
   54.7695  101.3425   33.7423 H   0  0  0  0  0  0
   53.7904   97.4582   34.3168 H   0  0  0  0  0  0
   53.0957   97.9863   32.8236 H   0  0  0  0  0  0
   56.0023   97.6294   33.4864 H   0  0  0  0  0  0
   55.2437   97.7107   31.8939 H   0  0  0  0  0  0
   56.0508   99.9050   31.7605 H   0  0  0  0  0  0
   56.5051   99.8662   33.4479 H   0  0  0  0  0  0
   52.1428   99.1489   35.3700 H   0  0  0  0  0  0
   52.4368  100.8592   35.0522 H   0  0  0  0  0  0
   51.6956   99.8417   33.8092 H   0  0  0  0  0  0
  1  5  1  0  0  0
  1  2  2  0  0  0
  2  3  1  0  0  0
  2 17  1  0  0  0
  3  4  1  0  0  0
  3 23  1  0  0  0
  4  6  1  0  0  0
  4 15  2  0  0  0
  5  6  2  0  0  0
  5  9  1  0  0  0
  6  7  1  0  0  0
  7  8  1  0  0  0
  8  9  2  0  0  0
  8 10  1  0  0  0
  9 24  1  0  0  0
 10 11  2  0  0  0
 10 14  1  0  0  0
 11 12  1  0  0  0
 11 25  1  0  0  0
 12 13  1  0  0  0
 12 26  1  0  0  0
 13 14  2  0  0  0
 14 16  1  0  0  0
 16 27  1  0  0  0
 16 28  1  0  0  0
 16 29  1  0  0  0
 17 18  1  0  0  0
 17 21  1  0  0  0
 17 30  1  0  0  0
 18 19  1  0  0  0
 18 22  1  0  0  0
 19 20  1  0  0  0
 19 31  1  0  0  0
 19 32  1  0  0  0
 20 21  1  0  0  0
 20 33  1  0  0  0
 20 34  1  0  0  0
 21 35  1  0  0  0
 21 36  1  0  0  0
 22 37  1  0  0  0
 22 38  1  0  0  0
 22 39  1  0  0  0
M  END
> <s_m_entry_id>
28341

> <s_m_entry_name>
dock_pv.502

> <s_m_Source_Path>
/home/csk/Desktop/cluster/DUD-E-result/rock1

> <s_m_Source_File>
dock_pv.maegz

> <i_m_Source_File_Index>
502

> <chembl_id>
CHEMBL4589689

> <chembl_pref_name>
None

> <i_lp_mmshare_version>
53161

> <r_lp_tautomer_probability>
0.5

> <s_lp_Force_Field>
OPLS_2005

> <r_lp_Energy>
39.644878

> <b_lp_Chiralities_Consistent>
1

> <s_lp_Variant>
CHEMBL3231_lig930-1

> <s_i_glide_gridfile>
glide-grid_2etr

> <i_i_glide_lignum>
1335

> <i_i_glide_rotatable_bonds>
2

> <r_i_docking_score>
-7.35889273137795

> <r_i_glide_ligand_efficiency>
-0.334495124153543

> <r_i_glide_ligand_efficiency_sa>
-0.937268492824973

> <r_i_glide_ligand_efficiency_ln>
-1.79878180568307

> <r_i_glide_gscore>
-7.35889273137795

> <r_i_glide_lipo>
-1.95058957039534

> <r_i_glide_hbond>
-0.48

> <r_i_glide_metal>
0

> <r_i_glide_rewards>
-2.49534134848485

> <r_i_glide_evdw>
-36.1201019287109

> <r_i_glide_ecoul>
-6.39455032348633

> <r_i_glide_erotb>
0.374008535043389

> <r_i_glide_esite>
-0.0417827025826592

> <r_i_glide_emodel>
-61.408159967979

> <r_i_glide_energy>
-42.5146522521973

> <r_i_glide_einternal>
0.162702083587646

> <i_i_glide_confnum>
13

> <i_i_glide_posenum>
245

> <r_i_glide_eff_state_penalty>
0

> <s_user_duplicate_titles>
CHEMBL3231_lig930

> <i_f3d_flags>
0

> <s_m_subgroup_title>
dock_pv

> <s_m_subgroupid>
dock_pv

> <b_m_subgroup_collapsed>
1

$$$$
CHEMBL3231_lig772
                    3D
 Schrodinger Suite 2021-1.
 43 45  0  0  1  0            999 V2000
   51.8460   97.9030   31.0543 O   0  0  0  0  0  0
   52.4603   98.9230   31.8212 C   0  0  0  0  0  0
   53.2775   99.8986   30.9454 C   0  0  0  0  0  0
   52.4417  100.7336   29.9618 C   0  0  0  0  0  0
   51.9565  100.0727   28.8270 C   0  0  0  0  0  0
   51.1390  100.7157   27.8961 C   0  0  0  0  0  0
   50.8110  102.0550   28.0994 C   0  0  0  0  0  0
   51.2908  102.7359   29.2099 C   0  0  0  0  0  0
   52.1115  102.0995   30.1485 C   0  0  0  0  0  0
   52.5558  102.9186   31.3292 C   0  0  0  0  0  0
   51.7157  103.5039   32.0181 O   0  0  0  0  0  0
   53.8849  103.0302   31.4991 N   0  0  0  0  0  0
   54.5428  103.8202   32.5406 C   0  0  0  0  0  0
   54.2488  103.3656   33.9658 C   0  0  0  0  0  0
   54.8431  102.2025   34.4631 C   0  0  0  0  0  0
   54.5958  101.8009   35.7728 C   0  0  0  0  0  0
   53.7600  102.5679   36.5830 C   0  0  0  0  0  0
   53.1769  103.7377   36.0980 C   0  0  0  0  0  0
   53.4255  104.1401   34.7881 C   0  0  0  0  0  0
   50.6041   99.9911   26.7099 C   0  0  0  0  0  0
   49.9607  100.5307   25.6079 C   0  0  0  0  0  0
   49.6430   99.4762   24.8036 N   0  0  0  0  0  0
   50.0428   98.3032   25.2908 N   0  0  0  0  0  0
   50.6158   98.6114   26.4307 C   0  0  0  0  0  0
   51.6407   97.1543   31.6231 H   0  0  0  0  0  0
   53.1057   98.4617   32.5702 H   0  0  0  0  0  0
   51.6820   99.4610   32.3644 H   0  0  0  0  0  0
   54.0295   99.3447   30.3809 H   0  0  0  0  0  0
   53.8668  100.5274   31.6070 H   0  0  0  0  0  0
   52.2103   99.0336   28.6838 H   0  0  0  0  0  0
   50.1802  102.5817   27.3993 H   0  0  0  0  0  0
   51.0198  103.7747   29.3313 H   0  0  0  0  0  0
   54.4935  102.5463   30.8526 H   0  0  0  0  0  0
   54.3034  104.8782   32.4116 H   0  0  0  0  0  0
   55.6197  103.7453   32.3843 H   0  0  0  0  0  0
   55.4918  101.6071   33.8362 H   0  0  0  0  0  0
   55.0519  100.9004   36.1587 H   0  0  0  0  0  0
   53.5686  102.2550   37.5989 H   0  0  0  0  0  0
   52.5368  104.3307   36.7344 H   0  0  0  0  0  0
   52.9734  105.0468   34.4082 H   0  0  0  0  0  0
   49.6949  101.5391   25.3314 H   0  0  0  0  0  0
   49.1746   99.5591   23.9061 H   0  0  0  0  0  0
   51.0360   97.8410   27.0623 H   0  0  0  0  0  0
  1  2  1  0  0  0
  1 25  1  0  0  0
  2  3  1  0  0  0
  2 26  1  0  0  0
  2 27  1  0  0  0
  3  4  1  0  0  0
  3 28  1  0  0  0
  3 29  1  0  0  0
  4  5  2  0  0  0
  4  9  1  0  0  0
  5  6  1  0  0  0
  5 30  1  0  0  0
  6  7  2  0  0  0
  6 20  1  0  0  0
  7  8  1  0  0  0
  7 31  1  0  0  0
  8  9  2  0  0  0
  8 32  1  0  0  0
  9 10  1  0  0  0
 10 11  2  0  0  0
 10 12  1  0  0  0
 12 13  1  0  0  0
 12 33  1  0  0  0
 13 14  1  0  0  0
 13 34  1  0  0  0
 13 35  1  0  0  0
 14 15  2  0  0  0
 14 19  1  0  0  0
 15 16  1  0  0  0
 15 36  1  0  0  0
 16 17  2  0  0  0
 16 37  1  0  0  0
 17 18  1  0  0  0
 17 38  1  0  0  0
 18 19  2  0  0  0
 18 39  1  0  0  0
 19 40  1  0  0  0
 20 21  2  0  0  0
 20 24  1  0  0  0
 21 22  1  0  0  0
 21 41  1  0  0  0
 22 23  1  0  0  0
 22 42  1  0  0  0
 23 24  2  0  0  0
 24 43  1  0  0  0
M  END
> <s_m_entry_id>
28342

> <s_m_entry_name>
dock_pv.503

> <s_m_Source_Path>
/home/csk/Desktop/cluster/DUD-E-result/rock1

> <s_m_Source_File>
dock_pv.maegz

> <i_m_Source_File_Index>
503

> <chembl_id>
CHEMBL3965615

> <chembl_pref_name>
None

> <i_lp_mmshare_version>
53161

> <r_lp_tautomer_probability>
0.5

> <s_lp_Force_Field>
OPLS_2005

> <r_lp_Energy>
18.04929

> <b_lp_Chiralities_Consistent>
1

> <s_lp_Variant>
CHEMBL3231_lig772-1

> <s_i_glide_gridfile>
glide-grid_2etr

> <i_i_glide_lignum>
1093

> <i_i_glide_rotatable_bonds>
8

> <r_i_docking_score>
-7.35866532410553

> <r_i_glide_ligand_efficiency>
-0.306611055171064

> <r_i_glide_ligand_efficiency_sa>
-0.884419324207025

> <r_i_glide_ligand_efficiency_ln>
-1.76126627920749

> <r_i_glide_gscore>
-7.35866532410553

> <r_i_glide_lipo>
-1.90844584434589

> <r_i_glide_hbond>
-0.656761610518685

> <r_i_glide_metal>
0

> <r_i_glide_rewards>
-2.05170355459494

> <r_i_glide_evdw>
-38.9401702880859

> <r_i_glide_ecoul>
-9.81291007995605

> <r_i_glide_erotb>
0.759869723568402

> <r_i_glide_esite>
-0.0826790118167092

> <r_i_glide_emodel>
-69.556163853341

> <r_i_glide_energy>
-48.753080368042

> <r_i_glide_einternal>
3.30907940864563

> <i_i_glide_confnum>
73

> <i_i_glide_posenum>
79

> <r_i_glide_eff_state_penalty>
0

> <s_user_duplicate_titles>
CHEMBL3231_lig772

> <i_f3d_flags>
0

> <s_m_subgroup_title>
dock_pv

> <s_m_subgroupid>
dock_pv

> <b_m_subgroup_collapsed>
1

$$$$
CHEMBL3231_lig617
                    3D
 Schrodinger Suite 2021-1.
 47 49  0  0  1  0            999 V2000
   51.4312   97.6136   30.3898 C   0  0  0  0  0  0
   51.2431   98.3803   29.2008 O   0  0  0  0  0  0
   51.2965   99.7641   29.2473 C   0  0  0  0  0  0
   51.6937  100.4613   30.3999 C   0  0  0  0  0  0
   51.6433  101.8613   30.4587 C   0  0  0  0  0  0
   51.2181  102.5735   29.3388 C   0  0  0  0  0  0
   50.8627  101.8980   28.1776 C   0  0  0  0  0  0
   50.8980  100.4984   28.1111 C   0  0  0  0  0  0
   50.4654   99.8601   26.8246 C   0  0  0  0  0  0
   50.5360   98.5140   26.4095 C   0  0  0  0  0  0
   50.0430   98.3013   25.2133 N   0  0  0  0  0  0
   49.6491   99.5056   24.8096 N   0  0  0  0  0  0
   49.8899  100.4842   25.7254 C   0  0  0  0  0  0
   52.0003  102.5908   31.7213 C   0  0  0  0  0  0
   51.2920  103.5030   32.1500 O   0  0  0  0  0  0
   53.1242  102.1609   32.3079 N   0  0  0  0  0  0
   53.7165  102.6261   33.5634 C   0  0  2  0  0  0
   54.2041  104.0904   33.4512 C   0  0  0  0  0  0
   54.8488  101.6516   34.0010 C   0  0  1  0  0  0
   55.3836  102.0207   35.2618 O   0  0  0  0  0  0
   54.4410  100.1743   33.9611 C   0  0  0  0  0  0
   54.8724   99.3589   32.9066 C   0  0  0  0  0  0
   54.4732   98.0259   32.8461 C   0  0  0  0  0  0
   53.6457   97.5053   33.8396 C   0  0  0  0  0  0
   53.2273   98.3053   34.9014 C   0  0  0  0  0  0
   53.6173   99.6409   34.9584 C   0  0  0  0  0  0
   51.2419   96.5622   30.1717 H   0  0  0  0  0  0
   52.4527   97.6955   30.7609 H   0  0  0  0  0  0
   50.7374   97.9103   31.1768 H   0  0  0  0  0  0
   52.0048   99.9170   31.2788 H   0  0  0  0  0  0
   51.1737  103.6537   29.3544 H   0  0  0  0  0  0
   50.5519  102.4871   27.3291 H   0  0  0  0  0  0
   50.9445   97.6894   26.9743 H   0  0  0  0  0  0
   49.2329   99.6605   23.8955 H   0  0  0  0  0  0
   49.6223  101.5105   25.5194 H   0  0  0  0  0  0
   53.6202  101.4124   31.8452 H   0  0  0  0  0  0
   52.9382  102.5855   34.3292 H   0  0  0  0  0  0
   54.6689  104.4229   34.3794 H   0  0  0  0  0  0
   54.9571  104.2023   32.6716 H   0  0  0  0  0  0
   53.3872  104.7814   33.2445 H   0  0  0  0  0  0
   55.6430  101.7869   33.2736 H   0  0  0  0  0  0
   56.2053  101.5357   35.3899 H   0  0  0  0  0  0
   55.5190   99.7487   32.1310 H   0  0  0  0  0  0
   54.8118   97.3976   32.0340 H   0  0  0  0  0  0
   53.3399   96.4688   33.7916 H   0  0  0  0  0  0
   52.5996   97.8929   35.6774 H   0  0  0  0  0  0
   53.2846  100.2623   35.7779 H   0  0  0  0  0  0
  1  2  1  0  0  0
  1 27  1  0  0  0
  1 28  1  0  0  0
  1 29  1  0  0  0
  2  3  1  0  0  0
  3  4  2  0  0  0
  3  8  1  0  0  0
  4  5  1  0  0  0
  4 30  1  0  0  0
  5  6  2  0  0  0
  5 14  1  0  0  0
  6  7  1  0  0  0
  6 31  1  0  0  0
  7  8  2  0  0  0
  7 32  1  0  0  0
  8  9  1  0  0  0
  9 10  1  0  0  0
  9 13  2  0  0  0
 10 11  2  0  0  0
 10 33  1  0  0  0
 11 12  1  0  0  0
 12 13  1  0  0  0
 12 34  1  0  0  0
 13 35  1  0  0  0
 14 15  2  0  0  0
 14 16  1  0  0  0
 16 17  1  0  0  0
 16 36  1  0  0  0
 17 18  1  0  0  0
 17 19  1  0  0  0
 17 37  1  0  0  0
 18 38  1  0  0  0
 18 39  1  0  0  0
 18 40  1  0  0  0
 19 20  1  0  0  0
 19 21  1  0  0  0
 19 41  1  0  0  0
 20 42  1  0  0  0
 21 22  2  0  0  0
 21 26  1  0  0  0
 22 23  1  0  0  0
 22 43  1  0  0  0
 23 24  2  0  0  0
 23 44  1  0  0  0
 24 25  1  0  0  0
 24 45  1  0  0  0
 25 26  2  0  0  0
 25 46  1  0  0  0
 26 47  1  0  0  0
M  END
> <s_m_entry_id>
28343

> <s_m_entry_name>
dock_pv.504

> <s_m_Source_Path>
/home/csk/Desktop/cluster/DUD-E-result/rock1

> <s_m_Source_File>
dock_pv.maegz

> <i_m_Source_File_Index>
504

> <chembl_id>
CHEMBL3915358

> <chembl_pref_name>
None

> <i_lp_mmshare_version>
53161

> <r_lp_tautomer_probability>
0.5

> <s_lp_Force_Field>
OPLS_2005

> <r_lp_Energy>
23.380645

> <b_lp_Chiralities_Consistent>
1

> <s_lp_Variant>
CHEMBL3231_lig617-1

> <s_i_glide_gridfile>
glide-grid_2etr

> <i_i_glide_lignum>
903

> <i_i_glide_rotatable_bonds>
8

> <r_i_docking_score>
-7.3584924844229

> <r_i_glide_ligand_efficiency>
-0.283018941708573

> <r_i_glide_ligand_efficiency_sa>
-0.838442501185887

> <r_i_glide_ligand_efficiency_ln>
-1.72811781478351

> <r_i_glide_gscore>
-7.3584924844229

> <r_i_glide_lipo>
-1.86020287935588

> <r_i_glide_hbond>
-0.66906647327981

> <r_i_glide_metal>
0

> <r_i_glide_rewards>
-2.02220824168666

> <r_i_glide_evdw>
-39.0261459350586

> <r_i_glide_ecoul>
-8.94014167785645

> <r_i_glide_erotb>
0.540596123200386

> <r_i_glide_esite>
-0.0552824648695337

> <r_i_glide_emodel>
-67.3963647152225

> <r_i_glide_energy>
-47.966287612915

> <r_i_glide_einternal>
5.7148814201355

> <i_i_glide_confnum>
71

> <i_i_glide_posenum>
342

> <r_i_glide_eff_state_penalty>
0

> <s_user_duplicate_titles>
CHEMBL3231_lig617

> <i_f3d_flags>
0

> <s_m_subgroup_title>
dock_pv

> <s_m_subgroupid>
dock_pv

> <b_m_subgroup_collapsed>
1

$$$$
CHEMBL3231_lig518
                    3D
 Schrodinger Suite 2021-1.
 64 68  0  0  1  0            999 V2000
   52.9281   99.4373   33.7487 C   0  0  1  0  0  0
   53.3271   99.4711   32.2562 C   0  0  0  0  0  0
   54.6472   99.5449   31.9312 C   0  0  0  0  0  0
   55.6189   99.5514   32.8824 N   0  0  0  0  0  0
   55.4165   99.5101   34.2178 C   0  0  0  0  0  0
   54.1370   99.2693   34.5956 N   0  0  0  0  0  0
   56.2803   99.7949   35.0394 O   0  0  0  0  0  0
   55.2255   99.5207   30.5205 C   0  0  0  0  0  0
   52.2351   99.4150   31.2925 C   0  0  0  0  0  0
   52.3805  100.2215   30.2210 N   0  0  0  0  0  0
   51.2456   98.7025   31.4703 O   0  0  0  0  0  0
   51.6825  100.1532   29.0096 C   0  0  0  0  0  0
   51.3686   98.9193   28.4272 C   0  0  0  0  0  0
   50.8427  101.3675   27.0604 C   0  0  0  0  0  0
   51.4234  101.3484   28.3318 C   0  0  0  0  0  0
   50.5816  100.1278   26.4703 C   0  0  0  0  0  0
   50.8342   98.9032   27.1376 C   0  0  0  0  0  0
   50.4441   97.9014   26.2077 C   0  0  0  0  0  0
   50.0408   98.4307   25.0861 N   0  0  0  0  0  0
   50.0854   99.7660   25.2329 N   0  0  0  0  0  0
   52.0240  100.5806   34.2145 C   0  0  0  0  0  0
   52.4248  101.9147   34.1027 C   0  0  0  0  0  0
   51.5912  102.9547   34.5510 C   0  0  0  0  0  0
   50.3425  102.6421   35.1136 C   0  0  0  0  0  0
   49.9349  101.3158   35.2114 C   0  0  0  0  0  0
   50.7684  100.3029   34.7555 C   0  0  0  0  0  0
   49.5129  103.6044   35.5855 F   0  0  0  0  0  0
   52.0400  104.3848   34.4698 C   0  0  0  0  0  0
   53.3263  104.5951   34.8077 N   0  0  0  0  0  0
   51.2452  105.2671   34.1461 O   0  0  0  0  0  0
   53.9728  105.8995   34.9634 C   0  0  0  0  0  0
   53.3328  106.7723   36.0356 C   0  0  0  0  0  0
   53.4146  106.4001   37.3808 C   0  0  0  0  0  0
   52.8052  107.1819   38.3591 C   0  0  0  0  0  0
   52.1195  108.3389   37.9953 C   0  0  0  0  0  0
   52.0378  108.7384   36.6602 C   0  0  0  0  0  0
   52.6603  107.9448   35.6810 C   0  0  0  0  0  0
   51.3390  109.9016   36.3921 O   0  0  0  0  0  0
   51.2548  110.3643   35.0463 C   0  0  0  0  0  0
   52.3565   98.5219   33.9138 H   0  0  0  0  0  0
   56.5908   99.5547   32.6019 H   0  0  0  0  0  0
   53.9978   99.1945   35.5910 H   0  0  0  0  0  0
   54.9357  100.4339   30.0112 H   0  0  0  0  0  0
   56.3119   99.5031   30.4853 H   0  0  0  0  0  0
   54.8510   98.6702   29.9522 H   0  0  0  0  0  0
   53.0738  100.9498   30.2964 H   0  0  0  0  0  0
   51.5824   97.9897   28.9367 H   0  0  0  0  0  0
   50.6483  102.2973   26.5449 H   0  0  0  0  0  0
   51.6892  102.2892   28.7909 H   0  0  0  0  0  0
   50.4867   96.8287   26.3351 H   0  0  0  0  0  0
   49.7982  100.3702   24.4755 H   0  0  0  0  0  0
   53.3908  102.1288   33.6650 H   0  0  0  0  0  0
   48.9716  101.0768   35.6396 H   0  0  0  0  0  0
   50.4429   99.2827   34.8245 H   0  0  0  0  0  0
   53.8927  103.7882   35.0180 H   0  0  0  0  0  0
   54.0425  106.4204   34.0088 H   0  0  0  0  0  0
   55.0061  105.7123   35.2538 H   0  0  0  0  0  0
   53.9355  105.4971   37.6655 H   0  0  0  0  0  0
   52.8620  106.8918   39.3991 H   0  0  0  0  0  0
   51.6502  108.9341   38.7616 H   0  0  0  0  0  0
   52.6096  108.2186   34.6375 H   0  0  0  0  0  0
   50.7087  111.3072   35.0237 H   0  0  0  0  0  0
   52.2416  110.5484   34.6182 H   0  0  0  0  0  0
   50.7187  109.6564   34.4136 H   0  0  0  0  0  0
  1  2  1  0  0  0
  1  6  1  0  0  0
  1 21  1  0  0  0
  1 40  1  0  0  0
  2  3  2  0  0  0
  2  9  1  0  0  0
  3  4  1  0  0  0
  3  8  1  0  0  0
  4  5  1  0  0  0
  4 41  1  0  0  0
  5  6  1  0  0  0
  5  7  2  0  0  0
  6 42  1  0  0  0
  8 43  1  0  0  0
  8 44  1  0  0  0
  8 45  1  0  0  0
  9 10  1  0  0  0
  9 11  2  0  0  0
 10 12  1  0  0  0
 10 46  1  0  0  0
 12 13  2  0  0  0
 12 15  1  0  0  0
 13 17  1  0  0  0
 13 47  1  0  0  0
 14 16  1  0  0  0
 14 15  2  0  0  0
 14 48  1  0  0  0
 15 49  1  0  0  0
 16 17  2  0  0  0
 16 20  1  0  0  0
 17 18  1  0  0  0
 18 19  2  0  0  0
 18 50  1  0  0  0
 19 20  1  0  0  0
 20 51  1  0  0  0
 21 22  2  0  0  0
 21 26  1  0  0  0
 22 23  1  0  0  0
 22 52  1  0  0  0
 23 24  2  0  0  0
 23 28  1  0  0  0
 24 25  1  0  0  0
 24 27  1  0  0  0
 25 26  2  0  0  0
 25 53  1  0  0  0
 26 54  1  0  0  0
 28 29  1  0  0  0
 28 30  2  0  0  0
 29 31  1  0  0  0
 29 55  1  0  0  0
 31 32  1  0  0  0
 31 56  1  0  0  0
 31 57  1  0  0  0
 32 33  2  0  0  0
 32 37  1  0  0  0
 33 34  1  0  0  0
 33 58  1  0  0  0
 34 35  2  0  0  0
 34 59  1  0  0  0
 35 36  1  0  0  0
 35 60  1  0  0  0
 36 37  2  0  0  0
 36 38  1  0  0  0
 37 61  1  0  0  0
 38 39  1  0  0  0
 39 62  1  0  0  0
 39 63  1  0  0  0
 39 64  1  0  0  0
M  END
> <s_m_entry_id>
28344

> <s_m_entry_name>
dock_pv.505

> <s_m_Source_Path>
/home/csk/Desktop/cluster/DUD-E-result/rock1

> <s_m_Source_File>
dock_pv.maegz

> <i_m_Source_File_Index>
505

> <chembl_id>
CHEMBL3810312

> <chembl_pref_name>
None

> <i_lp_mmshare_version>
53161

> <r_lp_tautomer_probability>
0.980392156860701

> <s_lp_Force_Field>
OPLS_2005

> <r_lp_Energy>
57.111141

> <b_lp_Chiralities_Consistent>
1

> <s_lp_Variant>
CHEMBL3231_lig518-2

> <s_i_glide_gridfile>
glide-grid_2etr

> <i_i_glide_lignum>
750

> <i_i_glide_rotatable_bonds>
9

> <r_i_docking_score>
-7.35651121430524

> <r_i_glide_ligand_efficiency>
-0.188628492674493

> <r_i_glide_ligand_efficiency_sa>
-0.639679102055088

> <r_i_glide_ligand_efficiency_ln>
-1.57744483133626

> <r_i_glide_gscore>
-7.35651121430524

> <r_i_glide_lipo>
-2.93778972423942

> <r_i_glide_hbond>
-0.25498980840192

> <r_i_glide_metal>
0

> <r_i_glide_rewards>
-1.1730819648538

> <r_i_glide_evdw>
-52.3246955871582

> <r_i_glide_ecoul>
-5.41958808898926

> <r_i_glide_erotb>
0.590002575387911

> <r_i_glide_esite>
-0.151479299491713

> <r_i_glide_emodel>
-78.8204526181865

> <r_i_glide_energy>
-57.7442836761475

> <r_i_glide_einternal>
10.2244071960449

> <i_i_glide_confnum>
45

> <i_i_glide_posenum>
102

> <r_i_glide_eff_state_penalty>
0

> <s_user_duplicate_titles>
CHEMBL3231_lig518

> <i_f3d_flags>
0

> <s_m_subgroup_title>
dock_pv

> <s_m_subgroupid>
dock_pv

> <b_m_subgroup_collapsed>
1

$$$$
CHEMBL3231_lig1264
                    3D
 Schrodinger Suite 2021-1.
 33 35  0  0  1  0            999 V2000
   50.0434   97.8990   26.0111 Cl  0  0  0  0  0  0
   50.4487  103.1028   30.4734 O   0  0  0  0  0  0
   52.0117  104.3272   33.4172 N   0  0  0  0  0  0
   51.4421  104.3829   34.6336 N   0  0  0  0  0  0
   52.4230  102.7990   31.5823 N   0  0  0  0  0  0
   51.3115  102.2951   33.7811 C   0  0  0  0  0  0
   51.9276  103.0863   32.8302 C   0  0  0  0  0  0
   51.0191  103.1545   34.8262 C   0  0  0  0  0  0
   50.8769  100.8892   34.0935 C   0  0  0  0  0  0
   50.2579  102.4573   35.9224 C   0  0  0  0  0  0
   51.6503  102.8166   30.4791 C   0  0  0  0  0  0
   49.8692  101.1328   35.2331 C   0  0  0  0  0  0
   51.7056  101.3221   28.4135 C   0  0  0  0  0  0
   52.3551  102.4836   29.1612 C   0  0  0  0  0  0
   50.8436  101.5718   27.3412 C   0  0  0  0  0  0
   51.9831  100.0052   28.7932 C   0  0  0  0  0  0
   50.6383   99.2060   26.9610 C   0  0  0  0  0  0
   50.3203  100.5138   26.6053 C   0  0  0  0  0  0
   51.4446   98.9458   28.0668 C   0  0  0  0  0  0
   52.4439  105.1446   32.9957 H   0  0  0  0  0  0
   53.3863  102.5049   31.5137 H   0  0  0  0  0  0
   50.4437  100.3600   33.2464 H   0  0  0  0  0  0
   51.7143  100.2925   34.4560 H   0  0  0  0  0  0
   50.8796  102.2888   36.8017 H   0  0  0  0  0  0
   49.3691  103.0011   36.2445 H   0  0  0  0  0  0
   49.8338  100.3032   35.9394 H   0  0  0  0  0  0
   48.8657  101.2283   34.8124 H   0  0  0  0  0  0
   53.4111  102.2603   29.3253 H   0  0  0  0  0  0
   52.3298  103.3874   28.5541 H   0  0  0  0  0  0
   50.5996  102.5848   27.0565 H   0  0  0  0  0  0
   52.6359   99.8020   29.6304 H   0  0  0  0  0  0
   49.6820  100.7095   25.7556 H   0  0  0  0  0  0
   51.6737   97.9272   28.3439 H   0  0  0  0  0  0
  1 17  1  0  0  0
  2 11  2  0  0  0
  3  4  1  0  0  0
  3  7  1  0  0  0
  3 20  1  0  0  0
  4  8  2  0  0  0
  5  7  1  0  0  0
  5 11  1  0  0  0
  5 21  1  0  0  0
  6  7  2  0  0  0
  6  8  1  0  0  0
  6  9  1  0  0  0
  8 10  1  0  0  0
  9 12  1  0  0  0
  9 22  1  0  0  0
  9 23  1  0  0  0
 10 12  1  0  0  0
 10 24  1  0  0  0
 10 25  1  0  0  0
 11 14  1  0  0  0
 12 26  1  0  0  0
 12 27  1  0  0  0
 13 14  1  0  0  0
 13 15  2  0  0  0
 13 16  1  0  0  0
 14 28  1  0  0  0
 14 29  1  0  0  0
 15 18  1  0  0  0
 15 30  1  0  0  0
 16 19  2  0  0  0
 16 31  1  0  0  0
 17 18  2  0  0  0
 17 19  1  0  0  0
 18 32  1  0  0  0
 19 33  1  0  0  0
M  END
> <s_m_entry_id>
28345

> <s_m_entry_name>
dock_pv.506

> <s_m_Source_Path>
/home/csk/Desktop/cluster/DUD-E-result/rock1

> <s_m_Source_File>
dock_pv.maegz

> <i_m_Source_File_Index>
506

> <chembl_id>
CHEMBL2003482

> <chembl_pref_name>
None

> <i_lp_mmshare_version>
53161

> <r_lp_tautomer_probability>
0.5

> <s_lp_Force_Field>
OPLS_2005

> <r_lp_Energy>
37.295533

> <b_lp_Chiralities_Consistent>
1

> <s_lp_Variant>
CHEMBL3231_lig1264-1

> <s_i_glide_gridfile>
glide-grid_2etr

> <i_i_glide_lignum>
1759

> <i_i_glide_rotatable_bonds>
4

> <r_i_docking_score>
-7.35609702465026

> <r_i_glide_ligand_efficiency>
-0.387163001297382

> <r_i_glide_ligand_efficiency_sa>
-1.0331063899721

> <r_i_glide_ligand_efficiency_ln>
-1.86492859022623

> <r_i_glide_gscore>
-7.35609702465026

> <r_i_glide_lipo>
-2.80039673126853

> <r_i_glide_hbond>
-0.231482250372885

> <r_i_glide_metal>
0

> <r_i_glide_rewards>
-2.07075837882292

> <r_i_glide_evdw>
-31.5857028961182

> <r_i_glide_ecoul>
-6.67070531845093

> <r_i_glide_erotb>
0.472963424573768

> <r_i_glide_esite>
-0.146532146186147

> <r_i_glide_emodel>
-54.9223481032201

> <r_i_glide_energy>
-38.2564082145691

> <r_i_glide_einternal>
3.61506271362305

> <i_i_glide_confnum>
1

> <i_i_glide_posenum>
168

> <r_i_glide_eff_state_penalty>
0

> <s_user_duplicate_titles>
CHEMBL3231_lig1264

> <i_f3d_flags>
0

> <s_m_subgroup_title>
dock_pv

> <s_m_subgroupid>
dock_pv

> <b_m_subgroup_collapsed>
1

$$$$
CHEMBL3231_lig1508
                    3D
 Schrodinger Suite 2021-1.
 38 41  0  0  1  0            999 V2000
   51.5730  101.0287   28.5171 C   0  0  0  0  0  0
   50.8432  101.9285   27.7253 C   0  0  0  0  0  0
   50.2014  101.5600   26.5431 C   0  0  0  0  0  0
   51.6426   99.6888   28.1194 C   0  0  0  0  0  0
   50.9771   99.2766   26.9604 C   0  0  0  0  0  0
   50.2682  100.2194   26.1864 C   0  0  0  0  0  0
   50.0440   98.2050   25.2107 N   0  0  0  0  0  0
   50.8089   98.0543   26.2599 C   0  0  0  0  0  0
   52.2878  101.5138   29.7556 C   0  0  0  0  0  0
   52.0430  102.7371   30.2056 N   0  0  0  0  0  0
   53.2435  100.8467   30.5593 C   0  0  0  0  0  0
   53.6642  101.7814   31.4812 N   0  0  0  0  0  0
   52.8895  102.9252   31.2428 C   0  0  0  0  0  0
   53.0143  104.0336   31.9833 N   0  0  0  0  0  0
   53.9576  104.0236   32.9636 C   0  0  0  0  0  0
   54.7678  102.9263   33.2515 C   0  0  0  0  0  0
   54.6029  101.7734   32.4855 C   0  0  0  0  0  0
   53.4007   98.5227   31.4539 C   0  0  0  0  0  0
   54.3866   97.3465   31.4063 C   0  0  0  0  0  0
   51.9499   98.0542   31.2337 C   0  0  0  0  0  0
   49.7446   99.5117   25.1255 N   0  0  0  0  0  0
   53.8031   99.5893   30.5443 N   0  0  0  0  0  0
   50.7892  102.9690   28.0137 H   0  0  0  0  0  0
   49.6593  102.2840   25.9530 H   0  0  0  0  0  0
   52.2152   98.9733   28.6805 H   0  0  0  0  0  0
   51.2415   97.1032   26.5201 H   0  0  0  0  0  0
   54.0581  104.9443   33.5224 H   0  0  0  0  0  0
   55.5089  102.9697   34.0357 H   0  0  0  0  0  0
   55.1860  100.8716   32.6159 H   0  0  0  0  0  0
   53.4584   98.9388   32.4612 H   0  0  0  0  0  0
   54.0879   96.5540   32.0937 H   0  0  0  0  0  0
   54.4594   96.9131   30.4109 H   0  0  0  0  0  0
   55.3912   97.6592   31.6963 H   0  0  0  0  0  0
   51.6480   97.3609   32.0140 H   0  0  0  0  0  0
   51.2469   98.8882   31.2510 H   0  0  0  0  0  0
   51.8266   97.5276   30.2878 H   0  0  0  0  0  0
   49.1950   99.8647   24.3514 H   0  0  0  0  0  0
   54.7909   99.5236   30.3315 H   0  0  0  0  0  0
  1  2  2  0  0  0
  1  4  1  0  0  0
  1  9  1  0  0  0
  2  3  1  0  0  0
  2 23  1  0  0  0
  3  6  2  0  0  0
  3 24  1  0  0  0
  4  5  2  0  0  0
  4 25  1  0  0  0
  5  6  1  0  0  0
  5  8  1  0  0  0
  6 21  1  0  0  0
  7  8  2  0  0  0
  7 21  1  0  0  0
  8 26  1  0  0  0
  9 10  1  0  0  0
  9 11  2  0  0  0
 10 13  2  0  0  0
 11 12  1  0  0  0
 11 22  1  0  0  0
 12 13  1  0  0  0
 12 17  1  0  0  0
 13 14  1  0  0  0
 14 15  2  0  0  0
 15 16  1  0  0  0
 15 27  1  0  0  0
 16 17  2  0  0  0
 16 28  1  0  0  0
 17 29  1  0  0  0
 18 19  1  0  0  0
 18 20  1  0  0  0
 18 22  1  0  0  0
 18 30  1  0  0  0
 19 31  1  0  0  0
 19 32  1  0  0  0
 19 33  1  0  0  0
 20 34  1  0  0  0
 20 35  1  0  0  0
 20 36  1  0  0  0
 21 37  1  0  0  0
 22 38  1  0  0  0
M  END
> <s_m_entry_id>
28346

> <s_m_entry_name>
dock_pv.507

> <s_m_Source_Path>
/home/csk/Desktop/cluster/DUD-E-result/rock1

> <s_m_Source_File>
dock_pv.maegz

> <i_m_Source_File_Index>
507

> <chembl_id>
CHEMBL1682553

> <chembl_pref_name>
None

> <i_lp_mmshare_version>
53161

> <r_lp_tautomer_probability>
0.980392156862745

> <s_lp_Force_Field>
OPLS_2005

> <r_lp_Energy>
18.916809

> <b_lp_Chiralities_Consistent>
1

> <s_lp_Variant>
CHEMBL3231_lig1508-1

> <s_i_glide_gridfile>
glide-grid_2etr

> <i_i_glide_lignum>
2133

> <i_i_glide_rotatable_bonds>
3

> <r_i_docking_score>
-7.35368802570178

> <r_i_glide_ligand_efficiency>
-0.334258546622808

> <r_i_glide_ligand_efficiency_sa>
-0.936605593279786

> <r_i_glide_ligand_efficiency_ln>
-1.79750958576956

> <r_i_glide_gscore>
-7.35368802570178

> <r_i_glide_lipo>
-2.09179565642939

> <r_i_glide_hbond>
-0.408359795958552

> <r_i_glide_metal>
0

> <r_i_glide_rewards>
-2.55609032070372

> <r_i_glide_evdw>
-37.672248840332

> <r_i_glide_ecoul>
-4.2213921546936

> <r_i_glide_erotb>
0.299052428834395

> <r_i_glide_esite>
-0.0796734162238662

> <r_i_glide_emodel>
-59.609681792936

> <r_i_glide_energy>
-41.8936409950256

> <r_i_glide_einternal>
1.78736662864685

> <i_i_glide_confnum>
6

> <i_i_glide_posenum>
291

> <r_i_glide_eff_state_penalty>
0

> <s_user_duplicate_titles>
CHEMBL3231_lig1508,CHEMBL3231_lig1508

> <i_f3d_flags>
0

> <s_m_subgroup_title>
dock_pv

> <s_m_subgroupid>
dock_pv

> <b_m_subgroup_collapsed>
1

$$$$
CHEMBL3231_lig1129
                    3D
 Schrodinger Suite 2021-1.
 50 52  0  0  1  0            999 V2000
   55.1833  102.5022   32.7888 O   0  0  0  0  0  0
   53.3275  102.4687   35.6377 O   0  0  0  0  0  0
   52.0424  103.9030   31.3910 N   0  0  0  0  0  0
   50.0426   98.3031   25.2111 N   0  0  0  0  0  0
   56.0436  103.4798   36.2625 N   0  0  0  0  0  0
   52.6088  101.8513   30.2391 C   0  0  0  0  0  0
   54.0521  102.7003   32.0161 C   0  0  0  0  0  0
   53.7569  101.7379   31.0375 C   0  0  0  0  0  0
   51.7831  102.9563   30.4630 C   0  0  0  0  0  0
   53.1615  103.7793   32.1364 C   0  0  0  0  0  0
   52.2676  100.8440   29.2136 C   0  0  0  0  0  0
   51.0169  100.1021   27.1374 C   0  0  0  0  0  0
   51.4845  101.0799   28.1372 C   0  0  0  0  0  0
   55.5196  103.3865   33.8661 C   0  0  0  0  0  0
   55.7368  102.5752   35.1609 C   0  0  2  0  0  0
   50.8918  102.5360   35.8542 C   0  0  0  0  0  0
   51.0160   98.7222   27.3828 C   0  0  0  0  0  0
   50.5271  100.5631   25.9073 C   0  0  0  0  0  0
   54.5229  101.6943   35.5391 C   0  0  0  0  0  0
   52.1545  101.6769   35.8214 C   0  0  0  0  0  0
   50.5204   97.8647   26.4010 C   0  0  0  0  0  0
   50.0470   99.6393   24.9767 C   0  0  0  0  0  0
   50.9491  103.8974   36.1759 C   0  0  0  0  0  0
   49.6560  101.9412   35.5772 C   0  0  0  0  0  0
   49.7813  104.6568   36.2177 C   0  0  0  0  0  0
   48.4893  102.7018   35.6115 C   0  0  0  0  0  0
   48.5561  104.0552   35.9371 C   0  0  0  0  0  0
   55.1798  103.9405   36.5169 H   0  0  0  0  0  0
   56.2999  102.9247   37.0674 H   0  0  0  0  0  0
   54.4315  100.9039   30.9051 H   0  0  0  0  0  0
   50.8734  103.0997   29.9006 H   0  0  0  0  0  0
   53.2988  104.5985   32.8227 H   0  0  0  0  0  0
   52.6566   99.8499   29.3827 H   0  0  0  0  0  0
   51.1249  102.0858   27.9770 H   0  0  0  0  0  0
   56.4425  103.9015   33.5952 H   0  0  0  0  0  0
   54.7995  104.1722   34.0737 H   0  0  0  0  0  0
   56.5960  101.9187   35.0145 H   0  0  0  0  0  0
   51.3733   98.3157   28.3173 H   0  0  0  0  0  0
   50.5110  101.6183   25.6758 H   0  0  0  0  0  0
   54.4024  100.9199   34.7786 H   0  0  0  0  0  0
   54.7058  101.1784   36.4843 H   0  0  0  0  0  0
   52.0669  100.9577   35.0044 H   0  0  0  0  0  0
   52.2190  101.1193   36.7583 H   0  0  0  0  0  0
   50.5015   96.7962   26.5614 H   0  0  0  0  0  0
   49.6707   99.9617   24.0136 H   0  0  0  0  0  0
   51.8970  104.3688   36.3934 H   0  0  0  0  0  0
   49.5989  100.8898   35.3358 H   0  0  0  0  0  0
   49.8284  105.7071   36.4668 H   0  0  0  0  0  0
   47.5344  102.2426   35.3989 H   0  0  0  0  0  0
   47.6488  104.6413   35.9725 H   0  0  0  0  0  0
  1  7  1  0  0  0
  1 14  1  0  0  0
  2 19  1  0  0  0
  2 20  1  0  0  0
  3  9  2  0  0  0
  3 10  1  0  0  0
  4 21  2  0  0  0
  4 22  1  0  0  0
  5 15  1  0  0  0
  5 28  1  0  0  0
  5 29  1  0  0  0
  6  8  2  0  0  0
  6  9  1  0  0  0
  6 11  1  0  0  0
  7  8  1  0  0  0
  7 10  2  0  0  0
  8 30  1  0  0  0
  9 31  1  0  0  0
 10 32  1  0  0  0
 11 13  2  3  0  0
 11 33  1  0  0  0
 12 13  1  0  0  0
 12 17  2  0  0  0
 12 18  1  0  0  0
 13 34  1  0  0  0
 14 15  1  0  0  0
 14 35  1  0  0  0
 14 36  1  0  0  0
 15 19  1  0  0  0
 15 37  1  0  0  0
 16 20  1  0  0  0
 16 23  2  0  0  0
 16 24  1  0  0  0
 17 21  1  0  0  0
 17 38  1  0  0  0
 18 22  2  0  0  0
 18 39  1  0  0  0
 19 40  1  0  0  0
 19 41  1  0  0  0
 20 42  1  0  0  0
 20 43  1  0  0  0
 21 44  1  0  0  0
 22 45  1  0  0  0
 23 25  1  0  0  0
 23 46  1  0  0  0
 24 26  2  0  0  0
 24 47  1  0  0  0
 25 27  2  0  0  0
 25 48  1  0  0  0
 26 27  1  0  0  0
 26 49  1  0  0  0
 27 50  1  0  0  0
M  END
> <s_m_entry_id>
28347

> <s_m_entry_name>
dock_pv.508

> <s_m_Source_Path>
/home/csk/Desktop/cluster/DUD-E-result/rock1

> <s_m_Source_File>
dock_pv.maegz

> <i_m_Source_File_Index>
508

> <chembl_id>
CHEMBL1993781

> <chembl_pref_name>
None

> <i_lp_mmshare_version>
53161

> <r_lp_tautomer_probability>
1

> <s_lp_Force_Field>
OPLS_2005

> <r_lp_Energy>
27.921507

> <b_lp_Chiralities_Consistent>
1

> <s_lp_Variant>
CHEMBL3231_lig1129-1

> <s_i_glide_gridfile>
glide-grid_2etr

> <i_i_glide_lignum>
1565

> <i_i_glide_rotatable_bonds>
9

> <r_i_docking_score>
-7.35304348960818

> <r_i_glide_ligand_efficiency>
-0.272334944059562

> <r_i_glide_ligand_efficiency_sa>
-0.817004831281115

> <r_i_glide_ligand_efficiency_ln>
-1.71166729998466

> <r_i_glide_gscore>
-7.35304348960818

> <r_i_glide_lipo>
-3.30723306695062

> <r_i_glide_hbond>
-0.317535750229867

> <r_i_glide_metal>
0

> <r_i_glide_rewards>
-2.23092938201677

> <r_i_glide_evdw>
-43.2917861938477

> <r_i_glide_ecoul>
-3.38636302947998

> <r_i_glide_erotb>
1.17519847370346

> <r_i_glide_esite>
0

> <r_i_glide_emodel>
-64.7916142516765

> <r_i_glide_energy>
-46.6781492233276

> <r_i_glide_einternal>
7.09948539733887

> <i_i_glide_confnum>
26

> <i_i_glide_posenum>
291

> <r_i_glide_eff_state_penalty>
0

> <s_user_duplicate_titles>
CHEMBL3231_lig1129

> <i_f3d_flags>
0

> <s_m_subgroup_title>
dock_pv

> <s_m_subgroupid>
dock_pv

> <b_m_subgroup_collapsed>
1

$$$$
CHEMBL3231_lig1219
                    3D
 Schrodinger Suite 2021-1.
 26 28  0  0  1  0            999 V2000
   52.2497  100.0640   31.4720 C   0  0  0  0  0  0
   52.2999  101.4427   31.2554 C   0  0  0  0  0  0
   51.8852  102.0462   30.1132 N   0  0  0  0  0  0
   51.7849   99.2046   30.4680 C   0  0  0  0  0  0
   51.4093   99.8100   29.2377 C   0  0  0  0  0  0
   51.4583  101.2287   29.1512 C   0  0  0  0  0  0
   50.8429  101.7897   27.6116 S   0  0  0  0  0  0
   50.9653   99.2253   28.0284 C   0  0  0  0  0  0
   50.5879  100.1567   27.0273 C   0  0  0  0  0  0
   50.0985   99.6578   25.8098 C   0  0  0  0  0  0
   50.0431   98.3233   25.5827 N   0  0  0  0  0  0
   50.4430   97.5214   26.5996 C   0  0  0  0  0  0
   50.8878   97.9030   27.8287 N   0  0  0  0  0  0
   49.6433  100.5075   24.8109 N   0  0  0  0  0  0
   52.8335  102.3814   32.3210 C   0  0  0  0  0  0
   51.6933   97.7226   30.7992 C   0  0  0  0  0  0
   52.5751   99.6600   32.4201 H   0  0  0  0  0  0
   50.4146   96.4582   26.4108 H   0  0  0  0  0  0
   49.6657  101.5019   24.9785 H   0  0  0  0  0  0
   49.2923  100.1337   23.9339 H   0  0  0  0  0  0
   53.2331  101.8357   33.1763 H   0  0  0  0  0  0
   53.6388  102.9970   31.9168 H   0  0  0  0  0  0
   52.0441  103.0420   32.6793 H   0  0  0  0  0  0
   50.7873   97.2800   30.3868 H   0  0  0  0  0  0
   51.6563   97.5507   31.8753 H   0  0  0  0  0  0
   52.5546   97.1886   30.4111 H   0  0  0  0  0  0
  1  2  2  0  0  0
  1  4  1  0  0  0
  1 17  1  0  0  0
  2  3  1  0  0  0
  2 15  1  0  0  0
  3  6  2  0  0  0
  4  5  2  0  0  0
  4 16  1  0  0  0
  5  8  1  0  0  0
  5  6  1  0  0  0
  6  7  1  0  0  0
  7  9  1  0  0  0
  8  9  2  0  0  0
  8 13  1  0  0  0
  9 10  1  0  0  0
 10 11  2  0  0  0
 10 14  1  0  0  0
 11 12  1  0  0  0
 12 13  2  0  0  0
 12 18  1  0  0  0
 14 19  1  0  0  0
 14 20  1  0  0  0
 15 21  1  0  0  0
 15 22  1  0  0  0
 15 23  1  0  0  0
 16 24  1  0  0  0
 16 25  1  0  0  0
 16 26  1  0  0  0
M  END
> <s_m_entry_id>
28348

> <s_m_entry_name>
dock_pv.509

> <s_m_Source_Path>
/home/csk/Desktop/cluster/DUD-E-result/rock1

> <s_m_Source_File>
dock_pv.maegz

> <i_m_Source_File_Index>
509

> <chembl_id>
CHEMBL504950

> <chembl_pref_name>
None

> <i_lp_mmshare_version>
53161

> <r_lp_tautomer_probability>
1

> <s_lp_Force_Field>
OPLS_2005

> <r_lp_Energy>
7.837527

> <b_lp_Chiralities_Consistent>
1

> <s_lp_Variant>
CHEMBL3231_lig1219-1

> <s_i_glide_gridfile>
glide-grid_2etr

> <i_i_glide_lignum>
1692

> <i_i_glide_rotatable_bonds>
0

> <r_i_docking_score>
-7.35246679099282

> <r_i_glide_ligand_efficiency>
-0.459529174437051

> <r_i_glide_ligand_efficiency_sa>
-1.15794095875794

> <r_i_glide_ligand_efficiency_ln>
-1.94891819181065

> <r_i_glide_gscore>
-7.35246679099282

> <r_i_glide_lipo>
-1.62995745997926

> <r_i_glide_hbond>
-0.32

> <r_i_glide_metal>
0

> <r_i_glide_rewards>
-3.33784063985526

> <r_i_glide_evdw>
-30.0354423522949

> <r_i_glide_ecoul>
-3.75264382362366

> <r_i_glide_erotb>
0

> <r_i_glide_esite>
0

> <r_i_glide_emodel>
-48.8361531991414

> <r_i_glide_energy>
-33.7880861759186

> <r_i_glide_einternal>
0

> <i_i_glide_confnum>
1

> <i_i_glide_posenum>
371

> <r_i_glide_eff_state_penalty>
0

> <s_user_duplicate_titles>
CHEMBL3231_lig1219

> <i_f3d_flags>
0

> <s_m_subgroup_title>
dock_pv

> <s_m_subgroupid>
dock_pv

> <b_m_subgroup_collapsed>
1

$$$$
CHEMBL3231_lig1805
                    3D
 Schrodinger Suite 2021-1.
 38 41  0  0  1  0            999 V2000
   52.9992  102.8197   33.1151 C   0  0  0  0  0  0
   52.1315  102.2452   34.2703 C   0  0  0  0  0  0
   50.6634  102.7457   34.2840 C   0  0  0  0  0  0
   49.8669  102.1296   35.4546 C   0  0  0  0  0  0
   49.9436  100.7040   35.3924 O   0  0  0  0  0  0
   51.2734  100.1910   35.5024 C   0  0  0  0  0  0
   52.1196  100.7012   34.3221 C   0  0  0  0  0  0
   52.4281  102.5832   31.7922 N   0  0  0  0  0  0
   52.4952  101.4603   31.0099 C   0  0  0  0  0  0
   51.6802  101.7312   29.9146 C   0  0  0  0  0  0
   51.1921  102.9596   30.0393 N   0  0  0  0  0  0
   51.6438  103.5030   31.2251 N   0  0  0  0  0  0
   51.3238  100.8398   28.7661 C   0  0  0  0  0  0
   51.6009   99.4699   28.8299 C   0  0  0  0  0  0
   51.2445   98.5969   27.8020 C   0  0  0  0  0  0
   50.6038   99.1200   26.6718 C   0  0  0  0  0  0
   50.1794   98.4390   25.5641 N   0  0  0  0  0  0
   49.6430   99.4113   24.8109 N   0  0  0  0  0  0
   49.6741  100.6687   25.3444 C   0  0  0  0  0  0
   50.3226  100.5189   26.5930 C   0  0  0  0  0  0
   50.6866  101.3732   27.6389 C   0  0  0  0  0  0
   53.1381  103.8940   33.2447 H   0  0  0  0  0  0
   54.0014  102.3893   33.1289 H   0  0  0  0  0  0
   52.5814  102.5755   35.2100 H   0  0  0  0  0  0
   50.1702  102.4843   33.3458 H   0  0  0  0  0  0
   50.6380  103.8354   34.3297 H   0  0  0  0  0  0
   48.8171  102.4243   35.3936 H   0  0  0  0  0  0
   50.2353  102.4862   36.4194 H   0  0  0  0  0  0
   51.2449   99.1018   35.4855 H   0  0  0  0  0  0
   51.7123  100.4756   36.4616 H   0  0  0  0  0  0
   53.1395  100.3157   34.3881 H   0  0  0  0  0  0
   51.7200  100.2937   33.3919 H   0  0  0  0  0  0
   53.0746  100.5976   31.3096 H   0  0  0  0  0  0
   52.0889   99.0592   29.7018 H   0  0  0  0  0  0
   51.4583   97.5405   27.8783 H   0  0  0  0  0  0
   49.2434   99.2190   23.8996 H   0  0  0  0  0  0
   49.2432  101.5023   24.8111 H   0  0  0  0  0  0
   50.4653  102.4286   27.5726 H   0  0  0  0  0  0
  1  2  1  0  0  0
  1  8  1  0  0  0
  1 22  1  0  0  0
  1 23  1  0  0  0
  2  3  1  0  0  0
  2  7  1  0  0  0
  2 24  1  0  0  0
  3  4  1  0  0  0
  3 25  1  0  0  0
  3 26  1  0  0  0
  4  5  1  0  0  0
  4 27  1  0  0  0
  4 28  1  0  0  0
  5  6  1  0  0  0
  6  7  1  0  0  0
  6 29  1  0  0  0
  6 30  1  0  0  0
  7 31  1  0  0  0
  7 32  1  0  0  0
  8  9  1  0  0  0
  8 12  1  0  0  0
  9 10  2  0  0  0
  9 33  1  0  0  0
 10 11  1  0  0  0
 10 13  1  0  0  0
 11 12  2  0  0  0
 13 14  1  0  0  0
 13 21  2  0  0  0
 14 15  2  0  0  0
 14 34  1  0  0  0
 15 16  1  0  0  0
 15 35  1  0  0  0
 16 17  2  0  0  0
 16 20  1  0  0  0
 17 18  1  0  0  0
 18 36  1  0  0  0
 18 19  1  0  0  0
 19 20  2  0  0  0
 19 37  1  0  0  0
 20 21  1  0  0  0
 21 38  1  0  0  0
M  END
> <s_m_entry_id>
28349

> <s_m_entry_name>
dock_pv.510

> <s_m_Source_Path>
/home/csk/Desktop/cluster/DUD-E-result/rock1

> <s_m_Source_File>
dock_pv.maegz

> <i_m_Source_File_Index>
510

> <chembl_id>
CHEMBL1969843

> <chembl_pref_name>
None

> <i_lp_mmshare_version>
53161

> <r_lp_tautomer_probability>
0.0196078431372549

> <s_lp_Force_Field>
OPLS_2005

> <r_lp_Energy>
27.388841

> <b_lp_Chiralities_Consistent>
1

> <s_lp_Variant>
CHEMBL3231_lig1805-2

> <s_i_glide_gridfile>
glide-grid_2etr

> <i_i_glide_lignum>
2584

> <i_i_glide_rotatable_bonds>
3

> <r_i_docking_score>
-7.35173091341468

> <r_i_glide_ligand_efficiency>
-0.350082424448318

> <r_i_glide_ligand_efficiency_sa>
-0.965850863556397

> <r_i_glide_ligand_efficiency_ln>
-1.81770061277069

> <r_i_glide_gscore>
-7.35173091341468

> <r_i_glide_lipo>
-2.396614730541

> <r_i_glide_hbond>
-0.31022209341134

> <r_i_glide_metal>
0

> <r_i_glide_rewards>
-2.69397316666667

> <r_i_glide_evdw>
-35.2775115966797

> <r_i_glide_ecoul>
-4.6632285118103

> <r_i_glide_erotb>
0.676746918433735

> <r_i_glide_esite>
-0.164307984623877

> <r_i_glide_emodel>
-57.0649737581807

> <r_i_glide_energy>
-39.94074010849

> <r_i_glide_einternal>
2.33328175544739

> <i_i_glide_confnum>
11

> <i_i_glide_posenum>
73

> <r_i_glide_eff_state_penalty>
0

> <s_user_duplicate_titles>
CHEMBL3231_lig1805

> <i_f3d_flags>
0

> <s_m_subgroup_title>
dock_pv

> <s_m_subgroupid>
dock_pv

> <b_m_subgroup_collapsed>
1

$$$$
CHEMBL3231_lig1110
                    3D
 Schrodinger Suite 2021-1.
 50 52  0  0  1  0            999 V2000
   52.8642   99.6584   33.9801 O   0  0  0  0  0  0
   50.0425   98.3319   25.2098 O   0  0  0  0  0  0
   54.8602  103.5030   32.2502 N   0  0  0  0  0  0
   55.1768  103.4429   33.5535 N   0  0  0  0  0  0
   54.6071  102.1062   35.3748 N   0  0  0  0  0  0
   49.4789  100.4505   24.8110 N   0  0  0  0  0  0
   53.8260  101.6916   33.0323 C   0  0  0  0  0  0
   54.0125  102.4851   31.8706 C   0  0  0  0  0  0
   53.0278  100.5328   32.9263 C   0  0  0  0  0  0
   52.5549  101.0817   30.5848 C   0  0  0  0  0  0
   54.5577  102.4036   34.0443 C   0  0  0  0  0  0
   53.4103  102.1914   30.6423 C   0  0  0  0  0  0
   52.3484  100.3060   31.7299 C   0  0  0  0  0  0
   51.8934  100.7001   29.3015 C   0  0  0  0  0  0
   51.8212   99.3581   28.9171 C   0  0  0  0  0  0
   51.3445  101.6670   28.4540 C   0  0  0  0  0  0
   50.6781   99.9507   26.8671 C   0  0  0  0  0  0
   51.2291   98.9861   27.7169 C   0  0  0  0  0  0
   50.7420  101.3013   27.2515 C   0  0  0  0  0  0
   54.0178   98.9472   34.4609 C   0  0  0  0  0  0
   50.0434   99.5097   25.5666 C   0  0  0  0  0  0
   54.9207   98.2126   33.4298 C   0  0  0  0  0  0
   54.3985   96.8876   32.7973 C   0  0  0  0  0  0
   53.1579   97.1652   31.9387 C   0  0  0  0  0  0
   54.0644   95.8323   33.8765 C   0  0  0  0  0  0
   55.4928   96.3140   31.8705 C   0  0  0  0  0  0
   55.2368  104.2487   31.6683 H   0  0  0  0  0  0
   54.1285  101.3020   35.7545 H   0  0  0  0  0  0
   55.1719  102.6478   36.0116 H   0  0  0  0  0  0
   49.4681  101.4107   25.1123 H   0  0  0  0  0  0
   49.0832  100.2022   23.9092 H   0  0  0  0  0  0
   53.6055  102.7991   29.7699 H   0  0  0  0  0  0
   51.6739   99.4669   31.6789 H   0  0  0  0  0  0
   52.2426   98.5839   29.5350 H   0  0  0  0  0  0
   51.3867  102.7114   28.7246 H   0  0  0  0  0  0
   51.2061   97.9356   27.4576 H   0  0  0  0  0  0
   50.3363  102.0871   26.6330 H   0  0  0  0  0  0
   53.6706   98.2442   35.2164 H   0  0  0  0  0  0
   54.6529   99.6295   35.0168 H   0  0  0  0  0  0
   55.8612   97.9884   33.9361 H   0  0  0  0  0  0
   55.2070   98.9109   32.6414 H   0  0  0  0  0  0
   52.8431   96.3030   31.3598 H   0  0  0  0  0  0
   53.3875   97.9423   31.2155 H   0  0  0  0  0  0
   52.3076   97.4807   32.5409 H   0  0  0  0  0  0
   54.9226   95.6317   34.5194 H   0  0  0  0  0  0
   53.2415   96.1476   34.5166 H   0  0  0  0  0  0
   53.7656   94.8838   33.4284 H   0  0  0  0  0  0
   56.4515   96.2211   32.3833 H   0  0  0  0  0  0
   55.2413   95.3237   31.4901 H   0  0  0  0  0  0
   55.6430   96.9579   31.0030 H   0  0  0  0  0  0
  1  9  1  0  0  0
  1 20  1  0  0  0
  2 21  2  0  0  0
  3  4  1  0  0  0
  3  8  1  0  0  0
  3 27  1  0  0  0
  4 11  2  0  0  0
  5 11  1  0  0  0
  5 28  1  0  0  0
  5 29  1  0  0  0
  6 21  1  0  0  0
  6 30  1  0  0  0
  6 31  1  0  0  0
  7  8  2  0  0  0
  7  9  1  0  0  0
  7 11  1  0  0  0
  8 12  1  0  0  0
  9 13  2  0  0  0
 10 12  2  0  0  0
 10 13  1  0  0  0
 10 14  1  0  0  0
 12 32  1  0  0  0
 13 33  1  0  0  0
 14 15  2  0  0  0
 14 16  1  0  0  0
 15 18  1  0  0  0
 15 34  1  0  0  0
 16 19  2  0  0  0
 16 35  1  0  0  0
 17 18  2  0  0  0
 17 19  1  0  0  0
 17 21  1  0  0  0
 18 36  1  0  0  0
 19 37  1  0  0  0
 20 22  1  0  0  0
 20 38  1  0  0  0
 20 39  1  0  0  0
 22 23  1  0  0  0
 22 40  1  0  0  0
 22 41  1  0  0  0
 23 24  1  0  0  0
 23 25  1  0  0  0
 23 26  1  0  0  0
 24 42  1  0  0  0
 24 43  1  0  0  0
 24 44  1  0  0  0
 25 45  1  0  0  0
 25 46  1  0  0  0
 25 47  1  0  0  0
 26 48  1  0  0  0
 26 49  1  0  0  0
 26 50  1  0  0  0
M  END
> <s_m_entry_id>
28350

> <s_m_entry_name>
dock_pv.511

> <s_m_Source_Path>
/home/csk/Desktop/cluster/DUD-E-result/rock1

> <s_m_Source_File>
dock_pv.maegz

> <i_m_Source_File_Index>
511

> <chembl_id>
CHEMBL2001398

> <chembl_pref_name>
None

> <i_lp_mmshare_version>
53161

> <r_lp_tautomer_probability>
1

> <s_lp_Force_Field>
OPLS_2005

> <r_lp_Energy>
22.838013

> <b_lp_Chiralities_Consistent>
1

> <s_lp_Variant>
CHEMBL3231_lig1110-1

> <s_i_glide_gridfile>
glide-grid_2etr

> <i_i_glide_lignum>
1535

> <i_i_glide_rotatable_bonds>
6

> <r_i_docking_score>
-7.35123152148268

> <r_i_glide_ligand_efficiency>
-0.28273967390318

> <r_i_glide_ligand_efficiency_sa>
-0.837615171411276

> <r_i_glide_ligand_efficiency_ln>
-1.72641260146216

> <r_i_glide_gscore>
-7.35123152148268

> <r_i_glide_lipo>
-1.71031323078567

> <r_i_glide_hbond>
-0.790438338655672

> <r_i_glide_metal>
0

> <r_i_glide_rewards>
-1.86449133333333

> <r_i_glide_evdw>
-39.8310127258301

> <r_i_glide_ecoul>
-10.4875230789185

> <r_i_glide_erotb>
0.614612601450654

> <r_i_glide_esite>
-0.0359221220293863

> <r_i_glide_emodel>
-69.3319851364282

> <r_i_glide_energy>
-50.3185358047485

> <r_i_glide_einternal>
6.85172367095947

> <i_i_glide_confnum>
46

> <i_i_glide_posenum>
188

> <r_i_glide_eff_state_penalty>
0

> <s_user_duplicate_titles>
CHEMBL3231_lig1110

> <i_f3d_flags>
0

> <s_m_subgroup_title>
dock_pv

> <s_m_subgroupid>
dock_pv

> <b_m_subgroup_collapsed>
1

$$$$
CHEMBL3231_lig803
                    3D
 Schrodinger Suite 2021-1.
 62 65  0  0  1  0            999 V2000
   51.8741   97.9211   30.3987 C   0  0  0  0  0  0
   51.6004   98.5835   29.1644 O   0  0  0  0  0  0
   51.5752   99.9665   29.1198 C   0  0  0  0  0  0
   52.1076  100.7594   30.1528 C   0  0  0  0  0  0
   52.0028  102.1543   30.1238 C   0  0  0  0  0  0
   51.3344  102.7633   29.0628 C   0  0  0  0  0  0
   50.8443  101.9959   28.0147 C   0  0  0  0  0  0
   50.9832  100.6015   28.0064 C   0  0  0  0  0  0
   50.4928   99.8797   26.7813 C   0  0  0  0  0  0
   49.9018  100.4357   25.6509 C   0  0  0  0  0  0
   49.6560   99.4068   24.7928 N   0  0  0  0  0  0
   50.0428   98.2276   25.2708 N   0  0  0  0  0  0
   50.5379   98.5086   26.4533 C   0  0  0  0  0  0
   52.5747  103.0047   31.2197 C   0  0  0  0  0  0
   51.8973  103.9032   31.7196 O   0  0  0  0  0  0
   53.8468  102.7369   31.5603 N   0  0  0  0  0  0
   54.6072  103.4585   32.5801 C   0  0  0  0  0  0
   54.1700  103.1373   34.0033 C   0  0  0  0  0  0
   54.7272  102.0520   34.6830 C   0  0  0  0  0  0
   54.3384  101.7743   35.9910 C   0  0  0  0  0  0
   53.4018  102.5862   36.6300 C   0  0  0  0  0  0
   52.8430  103.6964   35.9766 C   0  0  0  0  0  0
   53.2498  103.9638   34.6564 C   0  0  0  0  0  0
   51.8403  104.5710   36.7018 C   0  0  0  0  0  0
   51.4779  104.3009   37.8507 O   0  0  0  0  0  0
   51.3814  105.6505   36.0382 N   0  0  0  0  0  0
   50.5499  106.6991   36.6344 C   0  0  0  0  0  0
   51.4280  107.7615   37.3320 C   0  0  0  0  0  0
   52.2293  108.6433   36.3498 C   0  0  0  0  0  0
   51.3476  109.2800   35.3626 N   0  0  1  0  0  0
   52.1277  110.1020   34.4405 C   0  0  0  0  0  0
   50.5477  108.3038   34.6150 C   0  0  0  0  0  0
   49.7064  107.4277   35.5640 C   0  0  0  0  0  0
   51.6429   96.8600   30.2999 H   0  0  0  0  0  0
   52.9260   98.0096   30.6741 H   0  0  0  0  0  0
   51.2566   98.3055   31.2121 H   0  0  0  0  0  0
   52.5983  100.2944   30.9943 H   0  0  0  0  0  0
   51.2304  103.8389   29.0193 H   0  0  0  0  0  0
   50.3790  102.5153   27.1921 H   0  0  0  0  0  0
   49.6414  101.4480   25.3790 H   0  0  0  0  0  0
   49.2388   99.5084   23.8721 H   0  0  0  0  0  0
   50.9408   97.7173   27.0671 H   0  0  0  0  0  0
   54.3412  102.0105   31.0602 H   0  0  0  0  0  0
   55.6635  103.2121   32.4625 H   0  0  0  0  0  0
   54.5348  104.5355   32.4113 H   0  0  0  0  0  0
   55.4555  101.4174   34.1976 H   0  0  0  0  0  0
   54.7653  100.9287   36.5109 H   0  0  0  0  0  0
   53.1207  102.3443   37.6455 H   0  0  0  0  0  0
   52.8510  104.8057   34.1075 H   0  0  0  0  0  0
   51.8393  105.8938   35.1730 H   0  0  0  0  0  0
   49.8679  106.2431   37.3564 H   0  0  0  0  0  0
   50.8430  108.3829   38.0020 H   0  0  0  0  0  0
   52.1304  107.2628   38.0015 H   0  0  0  0  0  0
   52.7594  109.4189   36.9051 H   0  0  0  0  0  0
   52.9935  108.0542   35.8379 H   0  0  0  0  0  0
   51.4742  110.6163   33.7358 H   0  0  0  0  0  0
   52.6886  110.8655   34.9813 H   0  0  0  0  0  0
   52.8369  109.5049   33.8643 H   0  0  0  0  0  0
   49.8929  108.8319   33.9202 H   0  0  0  0  0  0
   51.2076  107.6832   34.0114 H   0  0  0  0  0  0
   49.1638  106.6886   34.9736 H   0  0  0  0  0  0
   48.9228  108.0390   36.0110 H   0  0  0  0  0  0
  1  2  1  0  0  0
  1 34  1  0  0  0
  1 35  1  0  0  0
  1 36  1  0  0  0
  2  3  1  0  0  0
  3  4  2  0  0  0
  3  8  1  0  0  0
  4  5  1  0  0  0
  4 37  1  0  0  0
  5  6  2  0  0  0
  5 14  1  0  0  0
  6  7  1  0  0  0
  6 38  1  0  0  0
  7  8  2  0  0  0
  7 39  1  0  0  0
  8  9  1  0  0  0
  9 10  2  0  0  0
  9 13  1  0  0  0
 10 11  1  0  0  0
 10 40  1  0  0  0
 11 12  1  0  0  0
 11 41  1  0  0  0
 12 13  2  0  0  0
 13 42  1  0  0  0
 14 15  2  0  0  0
 14 16  1  0  0  0
 16 17  1  0  0  0
 16 43  1  0  0  0
 17 18  1  0  0  0
 17 44  1  0  0  0
 17 45  1  0  0  0
 18 19  2  0  0  0
 18 23  1  0  0  0
 19 20  1  0  0  0
 19 46  1  0  0  0
 20 21  2  0  0  0
 20 47  1  0  0  0
 21 22  1  0  0  0
 21 48  1  0  0  0
 22 23  2  0  0  0
 22 24  1  0  0  0
 23 49  1  0  0  0
 24 25  2  0  0  0
 24 26  1  0  0  0
 26 27  1  0  0  0
 26 50  1  0  0  0
 27 28  1  0  0  0
 27 33  1  0  0  0
 27 51  1  0  0  0
 28 29  1  0  0  0
 28 52  1  0  0  0
 28 53  1  0  0  0
 29 30  1  0  0  0
 29 54  1  0  0  0
 29 55  1  0  0  0
 30 31  1  0  0  0
 30 32  1  0  0  0
 31 56  1  0  0  0
 31 57  1  0  0  0
 31 58  1  0  0  0
 32 33  1  0  0  0
 32 59  1  0  0  0
 32 60  1  0  0  0
 33 61  1  0  0  0
 33 62  1  0  0  0
M  END
> <s_m_entry_id>
28351

> <s_m_entry_name>
dock_pv.512

> <s_m_Source_Path>
/home/csk/Desktop/cluster/DUD-E-result/rock1

> <s_m_Source_File>
dock_pv.maegz

> <i_m_Source_File_Index>
512

> <chembl_id>
CHEMBL3949136

> <chembl_pref_name>
None

> <i_lp_mmshare_version>
53161

> <r_lp_tautomer_probability>
0.5

> <s_lp_Force_Field>
OPLS_2005

> <r_lp_Energy>
35.048876

> <b_lp_Chiralities_Consistent>
1

> <s_lp_Variant>
CHEMBL3231_lig803-1

> <s_i_glide_gridfile>
glide-grid_2etr

> <i_i_glide_lignum>
1131

> <i_i_glide_rotatable_bonds>
9

> <r_i_docking_score>
-7.34890014993499

> <r_i_glide_ligand_efficiency>
-0.222693943937424

> <r_i_glide_ligand_efficiency_sa>
-0.714298469428936

> <r_i_glide_ligand_efficiency_ln>
-1.63435734277699

> <r_i_glide_gscore>
-7.34890014993499

> <r_i_glide_lipo>
-2.03347294529131

> <r_i_glide_hbond>
-0.637506997847211

> <r_i_glide_metal>
0

> <r_i_glide_rewards>
-1.25565339705509

> <r_i_glide_evdw>
-48.2962455749512

> <r_i_glide_ecoul>
-9.83547401428223

> <r_i_glide_erotb>
0.559918723642685

> <r_i_glide_esite>
-0.0920521524941702

> <r_i_glide_emodel>
-81.1629822021072

> <r_i_glide_energy>
-58.1317195892334

> <r_i_glide_einternal>
5.10371160507202

> <i_i_glide_confnum>
10

> <i_i_glide_posenum>
15

> <r_i_glide_eff_state_penalty>
0

> <s_user_duplicate_titles>
CHEMBL3231_lig803

> <i_f3d_flags>
0

> <s_m_subgroup_title>
dock_pv

> <s_m_subgroupid>
dock_pv

> <b_m_subgroup_collapsed>
1

$$$$
CHEMBL3231_lig1053 
                    3D
 Schrodinger Suite 2021-1.
 58 61  0  0  1  0            999 V2000
   49.0748  103.8966   36.3542 C   0  0  0  0  0  0
   48.7304  105.1908   35.9699 C   0  0  0  0  0  0
   49.6604  105.9907   35.3061 C   0  0  0  0  0  0
   50.9344  105.4977   35.0283 C   0  0  0  0  0  0
   50.3513  103.4064   36.0795 C   0  0  0  0  0  0
   51.3035  104.2045   35.4094 C   0  0  0  0  0  0
   52.7008  103.6544   35.1386 C   0  0  0  0  0  0
   52.6681  102.1096   35.0728 C   0  0  1  0  0  0
   51.9095  101.6023   36.3304 C   0  0  0  0  0  0
   50.5584  102.0778   36.4104 O   0  0  0  0  0  0
   52.0349  101.6138   33.7476 C   0  0  0  0  0  0
   50.8515  101.2632   33.7030 O   0  0  0  0  0  0
   52.8505  101.6058   32.6690 N   0  0  0  0  0  0
   52.5019  101.0742   31.4177 C   0  0  0  0  0  0
   52.1204   99.7296   31.2705 C   0  0  0  0  0  0
   51.6670   99.2892   30.0207 C   0  0  0  0  0  0
   51.6516  100.1349   28.9016 C   0  0  0  0  0  0
   52.1403  101.4404   29.0581 C   0  0  0  0  0  0
   52.5575  101.9102   30.3027 C   0  0  0  0  0  0
   52.1466   98.9097   32.3804 O   0  0  0  0  0  0
   52.5915   97.5602   32.2584 C   0  0  0  0  0  0
   54.1118   97.4239   32.0196 C   0  0  0  0  0  0
   54.5568   96.0232   32.0750 N   0  0  0  0  0  0
   55.9352   95.9016   31.6125 C   0  0  0  0  0  0
   54.4599   95.4312   33.4114 C   0  0  0  0  0  0
   51.1134   99.6593   27.5888 C   0  0  0  0  0  0
   51.1776   98.3040   27.2246 C   0  0  0  0  0  0
   50.6301   97.8892   26.0110 C   0  0  0  0  0  0
   50.0429   98.7423   25.1386 N   0  0  0  0  0  0
   49.9900  100.0531   25.4790 C   0  0  0  0  0  0
   50.4998  100.5431   26.6833 C   0  0  0  0  0  0
   49.2429  107.5882   34.8121 Cl  0  0  0  0  0  0
   48.3481  103.2628   36.8424 H   0  0  0  0  0  0
   47.7372  105.5619   36.1713 H   0  0  0  0  0  0
   51.6462  106.1304   34.5140 H   0  0  0  0  0  0
   53.1059  104.0932   34.2242 H   0  0  0  0  0  0
   53.3430  103.9702   35.9622 H   0  0  0  0  0  0
   53.6808  101.7024   35.0797 H   0  0  0  0  0  0
   52.4348  101.9565   37.2188 H   0  0  0  0  0  0
   51.9234  100.5125   36.3866 H   0  0  0  0  0  0
   53.7501  102.0582   32.7368 H   0  0  0  0  0  0
   51.2868   98.2845   29.9280 H   0  0  0  0  0  0
   52.1835  102.1124   28.2151 H   0  0  0  0  0  0
   52.8977  102.9312   30.4001 H   0  0  0  0  0  0
   52.3423   97.1034   33.2102 H   0  0  0  0  0  0
   52.0290   97.0189   31.5010 H   0  0  0  0  0  0
   54.3416   97.8389   31.0365 H   0  0  0  0  0  0
   54.6639   98.0266   32.7437 H   0  0  0  0  0  0
   56.2360   94.8544   31.5531 H   0  0  0  0  0  0
   56.0429   96.3196   30.6117 H   0  0  0  0  0  0
   56.6292   96.4072   32.2856 H   0  0  0  0  0  0
   54.8624   94.4160   33.4160 H   0  0  0  0  0  0
   55.0151   96.0121   34.1502 H   0  0  0  0  0  0
   53.4258   95.3510   33.7443 H   0  0  0  0  0  0
   51.6428   97.5708   27.8660 H   0  0  0  0  0  0
   50.6723   96.8491   25.7206 H   0  0  0  0  0  0
   49.5139  100.7129   24.7666 H   0  0  0  0  0  0
   50.4036  101.5948   26.9056 H   0  0  0  0  0  0
  1  5  1  0  0  0
  1  2  2  0  0  0
  1 33  1  0  0  0
  2  3  1  0  0  0
  2 34  1  0  0  0
  3  4  2  0  0  0
  3 32  1  0  0  0
  4  6  1  0  0  0
  4 35  1  0  0  0
  5  6  2  0  0  0
  5 10  1  0  0  0
  6  7  1  0  0  0
  7  8  1  0  0  0
  7 36  1  0  0  0
  7 37  1  0  0  0
  8  9  1  0  0  0
  8 11  1  0  0  0
  8 38  1  0  0  0
  9 10  1  0  0  0
  9 39  1  0  0  0
  9 40  1  0  0  0
 11 12  2  0  0  0
 11 13  1  0  0  0
 13 14  1  0  0  0
 13 41  1  0  0  0
 14 15  2  0  0  0
 14 19  1  0  0  0
 15 16  1  0  0  0
 15 20  1  0  0  0
 16 17  2  0  0  0
 16 42  1  0  0  0
 17 18  1  0  0  0
 17 26  1  0  0  0
 18 19  2  0  0  0
 18 43  1  0  0  0
 19 44  1  0  0  0
 20 21  1  0  0  0
 21 22  1  0  0  0
 21 45  1  0  0  0
 21 46  1  0  0  0
 22 23  1  0  0  0
 22 47  1  0  0  0
 22 48  1  0  0  0
 23 24  1  0  0  0
 23 25  1  0  0  0
 24 49  1  0  0  0
 24 50  1  0  0  0
 24 51  1  0  0  0
 25 52  1  0  0  0
 25 53  1  0  0  0
 25 54  1  0  0  0
 26 27  2  0  0  0
 26 31  1  0  0  0
 27 28  1  0  0  0
 27 55  1  0  0  0
 28 29  2  0  0  0
 28 56  1  0  0  0
 29 30  1  0  0  0
 30 31  2  0  0  0
 30 57  1  0  0  0
 31 58  1  0  0  0
M  END
> <s_m_entry_id>
28352

> <s_m_entry_name>
dock_pv.513

> <s_m_Source_Path>
/home/csk/Desktop/cluster/DUD-E-result/rock1

> <s_m_Source_File>
dock_pv.maegz

> <i_m_Source_File_Index>
513

> <chembl_id>
CHEMBL4559633

> <chembl_pref_name>
None

> <i_lp_mmshare_version>
53161

> <r_lp_tautomer_probability>
1

> <s_lp_Force_Field>
OPLS_2005

> <r_lp_Energy>
35.080802

> <b_lp_Chiralities_Consistent>
1

> <s_lp_Variant>
CHEMBL3231_lig1053 -2

> <s_i_glide_gridfile>
glide-grid_2etr

> <i_i_glide_lignum>
1470

> <i_i_glide_rotatable_bonds>
8

> <r_i_docking_score>
-7.34838739609789

> <r_i_glide_ligand_efficiency>
-0.229637106128059

> <r_i_glide_ligand_efficiency_sa>
-0.729052366834994

> <r_i_glide_ligand_efficiency_ln>
-1.64550424746141

> <r_i_glide_gscore>
-7.34838739609789

> <r_i_glide_lipo>
-2.92190214163643

> <r_i_glide_hbond>
-0.0520009886186402

> <r_i_glide_metal>
0

> <r_i_glide_rewards>
-1.71260013554982

> <r_i_glide_evdw>
-50.050968170166

> <r_i_glide_ecoul>
-5.53171825408936

> <r_i_glide_erotb>
0.687516047710037

> <r_i_glide_esite>
-0.0170940313813349

> <r_i_glide_emodel>
-77.0981197175849

> <r_i_glide_energy>
-55.5826864242554

> <r_i_glide_einternal>
9.56618785858154

> <i_i_glide_confnum>
69

> <i_i_glide_posenum>
86

> <r_i_glide_eff_state_penalty>
0

> <s_user_duplicate_titles>
CHEMBL3231_lig1053 

> <i_f3d_flags>
0

> <s_m_subgroup_title>
dock_pv

> <s_m_subgroupid>
dock_pv

> <b_m_subgroup_collapsed>
1

$$$$
CHEMBL3231_lig478
                    3D
 Schrodinger Suite 2021-1.
 43 47  0  0  1  0            999 V2000
   54.0413  104.1165   32.6945 C   0  0  0  0  0  0
   54.5272  103.2569   33.6688 C   0  0  0  0  0  0
   54.3861  101.8787   33.5331 C   0  0  0  0  0  0
   53.4013  103.6165   31.5666 C   0  0  0  0  0  0
   53.2320  102.2204   31.4035 C   0  0  0  0  0  0
   53.7501  101.3133   32.3871 C   0  0  0  0  0  0
   53.5162   99.9138   32.1256 C   0  0  0  0  0  0
   52.8022   99.5234   31.0404 N   0  0  0  0  0  0
   52.3647  100.4568   30.1626 C   0  0  0  0  0  0
   52.5583  101.7936   30.3002 N   0  0  0  0  0  0
   51.6694   99.9590   28.9219 C   0  0  0  0  0  0
   51.1995  100.8498   27.9383 C   0  0  0  0  0  0
   50.9380   98.0569   27.5455 C   0  0  0  0  0  0
   51.4912   98.5811   28.7093 C   0  0  0  0  0  0
   50.5278   98.9419   26.5496 C   0  0  0  0  0  0
   50.6250  100.3488   26.7593 C   0  0  0  0  0  0
   50.0424  100.8970   25.5897 C   0  0  0  0  0  0
   49.7124   99.8202   24.8107 N   0  0  0  0  0  0
   50.0179   98.6210   25.3252 N   0  0  0  0  0  0
   54.0152   98.8291   32.8644 N   0  0  0  0  0  0
   55.1228   98.8841   33.8387 C   0  0  0  0  0  0
   55.9156   97.5658   33.9915 C   0  0  0  0  0  0
   55.0413   96.4480   34.3161 N   0  0  0  0  0  0
   54.0979   96.2993   33.2167 C   0  0  0  0  0  0
   53.2433   97.5745   33.0441 C   0  0  0  0  0  0
   54.1619  105.1865   32.8115 H   0  0  0  0  0  0
   55.0122  103.6607   34.5449 H   0  0  0  0  0  0
   54.7477  101.2686   34.3405 H   0  0  0  0  0  0
   53.0355  104.2988   30.8134 H   0  0  0  0  0  0
   51.2949  101.9169   28.0745 H   0  0  0  0  0  0
   50.8432   96.9903   27.4128 H   0  0  0  0  0  0
   51.8123   97.8782   29.4607 H   0  0  0  0  0  0
   49.8335  101.8941   25.2304 H   0  0  0  0  0  0
   49.2812   99.9022   23.8951 H   0  0  0  0  0  0
   55.8382   99.6466   33.5344 H   0  0  0  0  0  0
   54.7230   99.1532   34.8164 H   0  0  0  0  0  0
   56.6754   97.6616   34.7685 H   0  0  0  0  0  0
   56.4641   97.3482   33.0718 H   0  0  0  0  0  0
   55.5946   95.6050   34.4070 H   0  0  0  0  0  0
   53.4619   95.4366   33.4199 H   0  0  0  0  0  0
   54.6277   96.0640   32.2905 H   0  0  0  0  0  0
   52.6380   97.6962   33.9429 H   0  0  0  0  0  0
   52.5347   97.4049   32.2323 H   0  0  0  0  0  0
  1  2  2  0  0  0
  1  4  1  0  0  0
  1 26  1  0  0  0
  2  3  1  0  0  0
  2 27  1  0  0  0
  3  6  2  0  0  0
  3 28  1  0  0  0
  4  5  2  0  0  0
  4 29  1  0  0  0
  5  6  1  0  0  0
  5 10  1  0  0  0
  6  7  1  0  0  0
  7  8  2  0  0  0
  7 20  1  0  0  0
  8  9  1  0  0  0
  9 10  2  0  0  0
  9 11  1  0  0  0
 11 14  1  0  0  0
 11 12  2  0  0  0
 12 30  1  0  0  0
 12 16  1  0  0  0
 13 15  1  0  0  0
 13 31  1  0  0  0
 13 14  2  0  0  0
 14 32  1  0  0  0
 15 19  2  0  0  0
 15 16  1  0  0  0
 16 17  2  0  0  0
 17 18  1  0  0  0
 17 33  1  0  0  0
 18 34  1  0  0  0
 18 19  1  0  0  0
 20 21  1  0  0  0
 20 25  1  0  0  0
 21 22  1  0  0  0
 21 35  1  0  0  0
 21 36  1  0  0  0
 22 23  1  0  0  0
 22 37  1  0  0  0
 22 38  1  0  0  0
 23 24  1  0  0  0
 23 39  1  0  0  0
 24 25  1  0  0  0
 24 40  1  0  0  0
 24 41  1  0  0  0
 25 42  1  0  0  0
 25 43  1  0  0  0
M  END
> <s_m_entry_id>
28355

> <s_m_entry_name>
dock_pv.516

> <s_m_Source_Path>
/home/csk/Desktop/cluster/DUD-E-result/rock1

> <s_m_Source_File>
dock_pv.maegz

> <i_m_Source_File_Index>
516

> <chembl_id>
CHEMBL3338840

> <chembl_pref_name>
None

> <i_lp_mmshare_version>
53161

> <r_lp_tautomer_probability>
0.0196078431372549

> <s_lp_Force_Field>
OPLS_2005

> <r_lp_Energy>
51.106816

> <b_lp_Chiralities_Consistent>
1

> <s_lp_Variant>
CHEMBL3231_lig478-2

> <s_i_glide_gridfile>
glide-grid_2etr

> <i_i_glide_lignum>
674

> <i_i_glide_rotatable_bonds>
2

> <r_i_docking_score>
-7.3438770765584

> <r_i_glide_ligand_efficiency>
-0.293755083062336

> <r_i_glide_ligand_efficiency_sa>
-0.858945072642852

> <r_i_glide_ligand_efficiency_ln>
-1.7407189453811

> <r_i_glide_gscore>
-7.3438770765584

> <r_i_glide_lipo>
-2.12938167971653

> <r_i_glide_hbond>
-0.330053057325779

> <r_i_glide_metal>
0

> <r_i_glide_rewards>
-2.51238233686032

> <r_i_glide_evdw>
-39.0427093505859

> <r_i_glide_ecoul>
-4.94204521179199

> <r_i_glide_erotb>
0.344600047061568

> <r_i_glide_esite>
-0.0232178004192486

> <r_i_glide_emodel>
-63.13745387406

> <r_i_glide_energy>
-43.9847545623779

> <r_i_glide_einternal>
0.171653911471367

> <i_i_glide_confnum>
4

> <i_i_glide_posenum>
28

> <r_i_glide_eff_state_penalty>
0

> <s_user_duplicate_titles>
CHEMBL3231_lig478

> <i_f3d_flags>
0

> <s_m_subgroup_title>
dock_pv

> <s_m_subgroupid>
dock_pv

> <b_m_subgroup_collapsed>
1

$$$$
CHEMBL3231_lig2079
                    3D
 Schrodinger Suite 2021-1.
 39 41  0  0  1  0            999 V2000
   51.9282  100.1281   28.8245 C   0  0  0  0  0  0
   51.8778  101.7930   29.3574 S   0  0  0  0  0  0
   52.7193  101.3946   30.8372 C   0  0  0  0  0  0
   53.1144  100.0694   30.8481 C   0  0  0  0  0  0
   52.6540   99.3586   29.7372 C   0  0  0  0  0  0
   52.9690  102.3241   31.8338 N   0  0  0  0  0  0
   51.9987  103.0419   32.4357 C   0  0  0  0  0  0
   52.4028  103.8174   33.7048 C   0  0  0  0  0  0
   50.8392  103.1028   32.0211 O   0  0  0  0  0  0
   51.2067  104.2135   34.5824 C   0  0  0  0  0  0
   50.8716  105.5610   34.7452 C   0  0  0  0  0  0
   49.7247  105.9430   35.4606 C   0  0  0  0  0  0
   48.9378  104.9500   36.0483 C   0  0  0  0  0  0
   49.2830  103.6033   35.9278 C   0  0  0  0  0  0
   50.4120  103.2369   35.1961 C   0  0  0  0  0  0
   51.2519   99.6888   27.5603 C   0  0  0  0  0  0
   51.0401   98.3192   27.3512 C   0  0  0  0  0  0
   50.4419   97.8932   26.1668 C   0  0  0  0  0  0
   50.0426   98.7473   25.1948 N   0  0  0  0  0  0
   50.2375  100.0731   25.4015 C   0  0  0  0  0  0
   50.8338  100.5809   26.5594 C   0  0  0  0  0  0
   49.2990  107.2480   35.6107 O   0  0  0  0  0  0
   50.0989  108.3027   35.0851 C   0  0  0  0  0  0
   53.6848   99.6194   31.6473 H   0  0  0  0  0  0
   52.8449   98.3042   29.6125 H   0  0  0  0  0  0
   53.8726  102.2772   32.2808 H   0  0  0  0  0  0
   52.9463  104.7093   33.3838 H   0  0  0  0  0  0
   53.0983  103.2248   34.3016 H   0  0  0  0  0  0
   51.5005  106.3037   34.2796 H   0  0  0  0  0  0
   48.0527  105.2266   36.6009 H   0  0  0  0  0  0
   48.6658  102.8440   36.3877 H   0  0  0  0  0  0
   50.6565  102.1899   35.0841 H   0  0  0  0  0  0
   51.3308   97.5830   28.0858 H   0  0  0  0  0  0
   50.2738   96.8400   25.9941 H   0  0  0  0  0  0
   49.9082  100.7311   24.6098 H   0  0  0  0  0  0
   50.9759  101.6460   26.6634 H   0  0  0  0  0  0
   49.6430  109.2601   35.3355 H   0  0  0  0  0  0
   51.1019  108.2958   35.5129 H   0  0  0  0  0  0
   50.1775  108.2487   33.9984 H   0  0  0  0  0  0
  1  2  1  0  0  0
  1  5  2  0  0  0
  1 16  1  0  0  0
  2  3  1  0  0  0
  3  4  2  0  0  0
  3  6  1  0  0  0
  4  5  1  0  0  0
  4 24  1  0  0  0
  5 25  1  0  0  0
  6  7  1  0  0  0
  6 26  1  0  0  0
  7  8  1  0  0  0
  7  9  2  0  0  0
  8 10  1  0  0  0
  8 27  1  0  0  0
  8 28  1  0  0  0
 10 11  2  0  0  0
 10 15  1  0  0  0
 11 12  1  0  0  0
 11 29  1  0  0  0
 12 13  2  0  0  0
 12 22  1  0  0  0
 13 14  1  0  0  0
 13 30  1  0  0  0
 14 15  2  0  0  0
 14 31  1  0  0  0
 15 32  1  0  0  0
 16 17  2  0  0  0
 16 21  1  0  0  0
 17 18  1  0  0  0
 17 33  1  0  0  0
 18 19  2  0  0  0
 18 34  1  0  0  0
 19 20  1  0  0  0
 20 21  2  0  0  0
 20 35  1  0  0  0
 21 36  1  0  0  0
 22 23  1  0  0  0
 23 37  1  0  0  0
 23 38  1  0  0  0
 23 39  1  0  0  0
M  END
> <s_m_entry_id>
28356

> <s_m_entry_name>
dock_pv.517

> <s_m_Source_Path>
/home/csk/Desktop/cluster/DUD-E-result/rock1

> <s_m_Source_File>
dock_pv.maegz

> <i_m_Source_File_Index>
517

> <chembl_id>
CHEMBL3581134

> <chembl_pref_name>
None

> <i_lp_mmshare_version>
53161

> <r_lp_tautomer_probability>
1

> <s_lp_Force_Field>
OPLS_2005

> <r_lp_Energy>
17.884792

> <b_lp_Chiralities_Consistent>
1

> <s_lp_Variant>
CHEMBL3231_lig2079-1

> <s_i_glide_gridfile>
glide-grid_2etr

> <i_i_glide_lignum>
3006

> <i_i_glide_rotatable_bonds>
6

> <r_i_docking_score>
-7.3423277990036

> <r_i_glide_ligand_efficiency>
-0.319231643434939

> <r_i_glide_ligand_efficiency_sa>
-0.907852328739518

> <r_i_glide_ligand_efficiency_ln>
-1.77544143834668

> <r_i_glide_gscore>
-7.3423277990036

> <r_i_glide_lipo>
-2.59254287496444

> <r_i_glide_hbond>
-0.174613758790306

> <r_i_glide_metal>
0

> <r_i_glide_rewards>
-2.31288579365047

> <r_i_glide_evdw>
-41.3016052246094

> <r_i_glide_ecoul>
-6.81589317321777

> <r_i_glide_erotb>
0.889784774420499

> <r_i_glide_esite>
-0.064605908805756

> <r_i_glide_emodel>
-68.2945568896661

> <r_i_glide_energy>
-48.1174983978271

> <r_i_glide_einternal>
5.17414045333862

> <i_i_glide_confnum>
16

> <i_i_glide_posenum>
158

> <r_i_glide_eff_state_penalty>
0

> <s_user_duplicate_titles>
CHEMBL3231_lig2079

> <i_f3d_flags>
0

> <s_m_subgroup_title>
dock_pv

> <s_m_subgroupid>
dock_pv

> <b_m_subgroup_collapsed>
1

$$$$
CHEMBL3231_lig1607
                    3D
 Schrodinger Suite 2021-1.
 50 53  0  0  1  0            999 V2000
   52.6333  103.3276   33.5005 O   0  0  0  0  0  0
   49.1817  101.3083   35.2119 N   0  0  0  0  0  0
   53.5939  101.2619   33.1864 N   0  0  0  0  0  0
   55.0600  101.7905   35.5411 N   0  0  0  0  0  0
   53.7005   99.4470   30.0112 N   0  0  0  0  0  0
   50.0488   98.1500   25.4772 N   0  0  0  0  0  0
   50.3561  102.8796   36.2423 C   0  0  0  0  0  0
   51.2216  101.7264   36.0113 C   0  0  0  0  0  0
   49.0608  102.5833   35.7188 C   0  0  0  0  0  0
   50.4587  100.8149   35.3667 C   0  0  0  0  0  0
   52.6888  101.5684   36.3060 C   0  0  0  0  0  0
   53.6929  102.3400   35.4068 C   0  0  2  0  0  0
   50.5346  104.1571   36.8242 C   0  0  0  0  0  0
   48.0000  103.5028   35.7694 C   0  0  0  0  0  0
   53.2724  102.3560   33.9110 C   0  0  0  0  0  0
   53.2647  100.9467   31.8586 C   0  0  0  0  0  0
   49.4761  105.0858   36.8887 C   0  0  0  0  0  0
   48.2103  104.7597   36.3632 C   0  0  0  0  0  0
   52.1340  101.2801   29.7281 C   0  0  0  0  0  0
   52.3473  101.6548   31.0603 C   0  0  0  0  0  0
   53.9026   99.8408   31.2918 C   0  0  0  0  0  0
   52.8430  100.1756   29.2556 C   0  0  0  0  0  0
   51.2388  102.0843   28.8742 C   0  0  0  0  0  0
   50.5678  101.7627   27.7457 C   0  0  0  0  0  0
   50.4237  100.4881   27.0088 C   0  0  0  0  0  0
   50.2272  100.5524   25.6253 C   0  0  0  0  0  0
   50.4431   99.2221   27.6087 C   0  0  0  0  0  0
   50.0431   99.3761   24.9016 C   0  0  0  0  0  0
   50.2624   98.0885   26.8143 C   0  0  0  0  0  0
   48.4496  100.7898   34.7515 H   0  0  0  0  0  0
   54.1862  100.6006   33.6692 H   0  0  0  0  0  0
   55.7441  102.3815   35.0858 H   0  0  0  0  0  0
   55.3457  101.7474   36.5090 H   0  0  0  0  0  0
   50.8174   99.8553   35.0244 H   0  0  0  0  0  0
   52.9115  100.5006   36.2718 H   0  0  0  0  0  0
   52.8435  101.8631   37.3439 H   0  0  0  0  0  0
   53.6988  103.3795   35.7408 H   0  0  0  0  0  0
   51.5027  104.4257   37.2202 H   0  0  0  0  0  0
   47.0327  103.2457   35.3615 H   0  0  0  0  0  0
   49.6455  106.0545   37.3358 H   0  0  0  0  0  0
   47.4017  105.4731   36.4083 H   0  0  0  0  0  0
   51.8117  102.5069   31.4463 H   0  0  0  0  0  0
   54.6203   99.2559   31.8504 H   0  0  0  0  0  0
   52.8090   99.9010   28.2144 H   0  0  0  0  0  0
   51.1380  103.1115   29.1944 H   0  0  0  0  0  0
   50.0167  102.5789   27.3006 H   0  0  0  0  0  0
   50.2040  101.5024   25.1210 H   0  0  0  0  0  0
   50.5681   99.1083   28.6736 H   0  0  0  0  0  0
   49.9029   99.4099   23.8327 H   0  0  0  0  0  0
   50.2775   97.1030   27.2514 H   0  0  0  0  0  0
  1 15  2  0  0  0
  2  9  1  0  0  0
  2 10  1  0  0  0
  2 30  1  0  0  0
  3 15  1  0  0  0
  3 16  1  0  0  0
  3 31  1  0  0  0
  4 12  1  0  0  0
  4 32  1  0  0  0
  4 33  1  0  0  0
  5 21  1  0  0  0
  5 22  2  0  0  0
  6 28  2  0  0  0
  6 29  1  0  0  0
  7  8  1  0  0  0
  7  9  1  0  0  0
  7 13  2  0  0  0
  8 10  2  0  0  0
  8 11  1  0  0  0
  9 14  2  0  0  0
 10 34  1  0  0  0
 11 12  1  0  0  0
 11 35  1  0  0  0
 11 36  1  0  0  0
 12 15  1  0  0  0
 12 37  1  0  0  0
 13 17  1  0  0  0
 13 38  1  0  0  0
 14 18  1  0  0  0
 14 39  1  0  0  0
 16 20  1  0  0  0
 16 21  2  0  0  0
 17 18  2  0  0  0
 17 40  1  0  0  0
 18 41  1  0  0  0
 19 20  2  0  0  0
 19 22  1  0  0  0
 19 23  1  0  0  0
 20 42  1  0  0  0
 21 43  1  0  0  0
 22 44  1  0  0  0
 23 24  2  3  0  0
 23 45  1  0  0  0
 24 25  1  0  0  0
 24 46  1  0  0  0
 25 26  2  0  0  0
 25 27  1  0  0  0
 26 28  1  0  0  0
 26 47  1  0  0  0
 27 29  2  0  0  0
 27 48  1  0  0  0
 28 49  1  0  0  0
 29 50  1  0  0  0
M  END
> <s_m_entry_id>
28357

> <s_m_entry_name>
dock_pv.518

> <s_m_Source_Path>
/home/csk/Desktop/cluster/DUD-E-result/rock1

> <s_m_Source_File>
dock_pv.maegz

> <i_m_Source_File_Index>
518

> <chembl_id>
CHEMBL1983945

> <chembl_pref_name>
None

> <i_lp_mmshare_version>
53161

> <r_lp_tautomer_probability>
1

> <s_lp_Force_Field>
OPLS_2005

> <r_lp_Energy>
18.377596

> <b_lp_Chiralities_Consistent>
1

> <s_lp_Variant>
CHEMBL3231_lig1607-2

> <s_i_glide_gridfile>
glide-grid_2etr

> <i_i_glide_lignum>
2283

> <i_i_glide_rotatable_bonds>
7

> <r_i_docking_score>
-7.34088003670667

> <r_i_glide_ligand_efficiency>
-0.253133794369196

> <r_i_glide_ligand_efficiency_sa>
-0.777707214717258

> <r_i_glide_ligand_efficiency_ln>
-1.68087537974944

> <r_i_glide_gscore>
-7.34088003670667

> <r_i_glide_lipo>
-4.01618508938192

> <r_i_glide_hbond>
-0.117437830591782

> <r_i_glide_metal>
0

> <r_i_glide_rewards>
-1.57044881690908

> <r_i_glide_evdw>
-46.5479583740234

> <r_i_glide_ecoul>
-0.591928660869598

> <r_i_glide_erotb>
0.792986291842066

> <r_i_glide_esite>
-0.0136073738343474

> <r_i_glide_emodel>
-66.3008958134379

> <r_i_glide_energy>
-47.139887034893

> <r_i_glide_einternal>
5.22824144363403

> <i_i_glide_confnum>
66

> <i_i_glide_posenum>
120

> <r_i_glide_eff_state_penalty>
0

> <s_user_duplicate_titles>
CHEMBL3231_lig1607,CHEMBL3231_lig1607

> <i_f3d_flags>
0

> <s_m_subgroup_title>
dock_pv

> <s_m_subgroupid>
dock_pv

> <b_m_subgroup_collapsed>
1

$$$$
CHEMBL3231_lig966 
                    3D
 Schrodinger Suite 2021-1.
 49 51  0  0  1  0            999 V2000
   50.1413   99.9125   24.9303 C   0  0  0  0  0  0
   50.0428   98.5636   24.9573 N   0  0  0  0  0  0
   50.4032   97.9193   26.0917 C   0  0  0  0  0  0
   50.8534   98.5905   27.2267 C   0  0  0  0  0  0
   50.9622   99.9899   27.2034 C   0  0  0  0  0  0
   50.6016  100.6532   26.0173 C   0  0  0  0  0  0
   51.4297  100.7463   28.4008 C   0  0  0  0  0  0
   52.3877  100.2077   29.2674 C   0  0  0  0  0  0
   52.7955  100.9007   30.4032 C   0  0  0  0  0  0
   52.2580  102.1645   30.6982 C   0  0  0  0  0  0
   51.3205  102.7136   29.8125 C   0  0  0  0  0  0
   50.9056  102.0103   28.6869 C   0  0  0  0  0  0
   52.6396  102.9350   31.9462 C   0  0  0  0  0  0
   53.5695  102.3817   32.7523 N   0  0  0  0  0  0
   52.0641  103.9916   32.2083 O   0  0  0  0  0  0
   54.1076  102.9240   34.0130 C   0  0  1  0  0  0
   53.0515  103.5295   34.9560 C   0  0  0  0  0  0
   53.2192  104.8285   35.4505 C   0  0  0  0  0  0
   52.2452  105.4049   36.2657 C   0  0  0  0  0  0
   51.0932  104.6901   36.5899 C   0  0  0  0  0  0
   50.9004  103.3911   36.1109 C   0  0  0  0  0  0
   51.8932  102.8158   35.2970 C   0  0  0  0  0  0
   49.7213  102.7697   36.4728 O   0  0  0  0  0  0
   49.4662  101.4500   36.0133 C   0  0  0  0  0  0
   54.9505  101.8298   34.7239 C   0  0  0  0  0  0
   55.7541  102.2749   35.9651 C   0  0  0  0  0  0
   56.8426  103.1038   35.6112 O   0  0  0  0  0  0
   49.8461  100.3986   24.0112 H   0  0  0  0  0  0
   50.3195   96.8407   26.0867 H   0  0  0  0  0  0
   51.1076   98.0246   28.1120 H   0  0  0  0  0  0
   50.6715  101.7283   25.9356 H   0  0  0  0  0  0
   52.8272   99.2400   29.0699 H   0  0  0  0  0  0
   53.5250  100.4299   31.0483 H   0  0  0  0  0  0
   50.8935  103.6876   29.9926 H   0  0  0  0  0  0
   50.1635  102.4600   28.0428 H   0  0  0  0  0  0
   54.1116  101.6322   32.3519 H   0  0  0  0  0  0
   54.7901  103.7240   33.7101 H   0  0  0  0  0  0
   54.0989  105.4023   35.1924 H   0  0  0  0  0  0
   52.3789  106.4129   36.6330 H   0  0  0  0  0  0
   50.3389  105.1483   37.2130 H   0  0  0  0  0  0
   51.7734  101.8156   34.9061 H   0  0  0  0  0  0
   48.5073  101.1154   36.4092 H   0  0  0  0  0  0
   49.4145  101.4011   34.9253 H   0  0  0  0  0  0
   50.2251  100.7501   36.3685 H   0  0  0  0  0  0
   54.2816  101.0227   35.0285 H   0  0  0  0  0  0
   55.6422  101.3702   34.0177 H   0  0  0  0  0  0
   55.1192  102.8464   36.6449 H   0  0  0  0  0  0
   56.1104  101.4132   36.5304 H   0  0  0  0  0  0
   57.5860  102.5243   35.3722 H   0  0  0  0  0  0
  1  2  2  0  0  0
  1  6  1  0  0  0
  1 28  1  0  0  0
  2  3  1  0  0  0
  3  4  2  0  0  0
  3 29  1  0  0  0
  4  5  1  0  0  0
  4 30  1  0  0  0
  5  6  2  0  0  0
  5  7  1  0  0  0
  6 31  1  0  0  0
  7  8  2  0  0  0
  7 12  1  0  0  0
  8  9  1  0  0  0
  8 32  1  0  0  0
  9 10  2  0  0  0
  9 33  1  0  0  0
 10 11  1  0  0  0
 10 13  1  0  0  0
 11 12  2  0  0  0
 11 34  1  0  0  0
 12 35  1  0  0  0
 13 14  1  0  0  0
 13 15  2  0  0  0
 14 16  1  0  0  0
 14 36  1  0  0  0
 16 17  1  0  0  0
 16 25  1  0  0  0
 16 37  1  0  0  0
 17 18  2  0  0  0
 17 22  1  0  0  0
 18 19  1  0  0  0
 18 38  1  0  0  0
 19 20  2  0  0  0
 19 39  1  0  0  0
 20 21  1  0  0  0
 20 40  1  0  0  0
 21 22  2  0  0  0
 21 23  1  0  0  0
 22 41  1  0  0  0
 23 24  1  0  0  0
 24 42  1  0  0  0
 24 43  1  0  0  0
 24 44  1  0  0  0
 25 26  1  0  0  0
 25 45  1  0  0  0
 25 46  1  0  0  0
 26 27  1  0  0  0
 26 47  1  0  0  0
 26 48  1  0  0  0
 27 49  1  0  0  0
M  END
> <s_m_entry_id>
28358

> <s_m_entry_name>
dock_pv.519

> <s_m_Source_Path>
/home/csk/Desktop/cluster/DUD-E-result/rock1

> <s_m_Source_File>
dock_pv.maegz

> <i_m_Source_File_Index>
519

> <chembl_id>
CHEMBL4469316

> <chembl_pref_name>
None

> <i_lp_mmshare_version>
53161

> <r_lp_tautomer_probability>
1

> <s_lp_Force_Field>
OPLS_2005

> <r_lp_Energy>
18.007865

> <b_lp_Chiralities_Consistent>
1

> <s_lp_Variant>
CHEMBL3231_lig966 -1

> <s_i_glide_gridfile>
glide-grid_2etr

> <i_i_glide_lignum>
1380

> <i_i_glide_rotatable_bonds>
9

> <r_i_docking_score>
-7.34029389963023

> <r_i_glide_ligand_efficiency>
-0.271862737023342

> <r_i_glide_ligand_efficiency_sa>
-0.81558821017401

> <r_i_glide_ligand_efficiency_ln>
-1.70869940563121

> <r_i_glide_gscore>
-7.34029389963023

> <r_i_glide_lipo>
-2.60150927620503

> <r_i_glide_hbond>
-0.39445586049596

> <r_i_glide_metal>
0

> <r_i_glide_rewards>
-2.29633372598028

> <r_i_glide_evdw>
-40.9154891967773

> <r_i_glide_ecoul>
-6.49809169769287

> <r_i_glide_erotb>
1.02332072062909

> <r_i_glide_esite>
-0.0508275430852405

> <r_i_glide_emodel>
-69.7210081543485

> <r_i_glide_energy>
-47.4135808944702

> <r_i_glide_einternal>
2.79920196533203

> <i_i_glide_confnum>
83

> <i_i_glide_posenum>
116

> <r_i_glide_eff_state_penalty>
0

> <s_user_duplicate_titles>
CHEMBL3231_lig966 

> <i_f3d_flags>
0

> <s_m_subgroup_title>
dock_pv

> <s_m_subgroupid>
dock_pv

> <b_m_subgroup_collapsed>
1

$$$$
CHEMBL3231_lig2123
                    3D
 Schrodinger Suite 2021-1.
 52 55  0  0  1  0            999 V2000
   54.8414   93.5638   33.2481 O   0  0  0  0  0  0
   55.2738   94.8727   33.7496 S   0  0  0  0  0  0
   55.8067   95.0706   35.1013 O   0  0  0  0  0  0
   53.8459   95.8985   33.6460 N   0  0  0  0  0  0
   50.8439   97.5030   27.3828 C   0  0  0  0  0  0
   50.4422   97.3117   26.0616 C   0  0  0  0  0  0
   50.0429   98.3104   25.2313 N   0  0  0  0  0  0
   50.9737   98.7768   27.8986 C   0  0  0  0  0  0
   50.6530   99.8416   27.0584 C   0  0  0  0  0  0
   50.1675   99.5326   25.7566 C   0  0  0  0  0  0
   49.8634  100.7241   25.1560 N   0  0  0  0  0  0
   50.1973  101.7540   26.0110 C   0  0  0  0  0  0
   50.7168  101.2591   27.1869 C   0  0  0  0  0  0
   51.2409  101.9572   28.3312 C   0  0  0  0  0  0
   52.2767  101.4403   28.9673 N   0  0  0  0  0  0
   52.5998  102.1124   30.0417 C   0  0  0  0  0  0
   51.6432  103.5030   30.3243 S   0  0  0  0  0  0
   50.7497  103.1382   28.8782 C   0  0  0  0  0  0
   53.5685  101.8020   30.9755 N   0  0  0  0  0  0
   54.1285  100.5880   31.1376 C   0  0  0  0  0  0
   55.1004  100.4551   32.3179 C   0  0  0  0  0  0
   53.8932   99.6107   30.4213 O   0  0  0  0  0  0
   54.5664   99.4959   33.3752 C   0  0  0  0  0  0
   54.3979   98.1492   33.0536 C   0  0  0  0  0  0
   53.9390   97.2416   34.0002 C   0  0  0  0  0  0
   53.6280   97.6783   35.2884 C   0  0  0  0  0  0
   53.7761   99.0276   35.6181 C   0  0  0  0  0  0
   54.2475   99.9349   34.6651 C   0  0  0  0  0  0
   56.4725   95.6255   32.4874 C   0  0  0  0  0  0
   55.8743   95.5362   31.0706 C   0  0  0  0  0  0
   56.3331   94.3031   30.2836 C   0  0  0  0  0  0
   53.0706   95.5812   33.0778 H   0  0  0  0  0  0
   51.1576   96.7024   28.0190 H   0  0  0  0  0  0
   50.4424   96.3132   25.6501 H   0  0  0  0  0  0
   51.3432   98.9358   28.9019 H   0  0  0  0  0  0
   49.4807  100.8629   24.2301 H   0  0  0  0  0  0
   50.0461  102.7814   25.7138 H   0  0  0  0  0  0
   49.9269  103.7483   28.5366 H   0  0  0  0  0  0
   53.8196  102.5291   31.6279 H   0  0  0  0  0  0
   55.3115  101.4299   32.7607 H   0  0  0  0  0  0
   56.0538  100.0791   31.9425 H   0  0  0  0  0  0
   54.6485   97.8058   32.0608 H   0  0  0  0  0  0
   53.2920   96.9716   36.0328 H   0  0  0  0  0  0
   53.5415   99.3670   36.6165 H   0  0  0  0  0  0
   54.3738  100.9737   34.9342 H   0  0  0  0  0  0
   57.4094   95.0740   32.5681 H   0  0  0  0  0  0
   56.6753   96.6525   32.7895 H   0  0  0  0  0  0
   56.0431   96.4440   30.4951 H   0  0  0  0  0  0
   54.8039   95.5063   31.1723 H   0  0  0  0  0  0
   55.6425   94.0451   29.4851 H   0  0  0  0  0  0
   56.4457   93.4450   30.9416 H   0  0  0  0  0  0
   57.2856   94.4560   29.7950 H   0  0  0  0  0  0
  1  2  2  0  0  0
  2  3  2  0  0  0
  2  4  1  0  0  0
  2 29  1  0  0  0
  4 25  1  0  0  0
  4 32  1  0  0  0
  5  6  2  0  0  0
  5  8  1  0  0  0
  5 33  1  0  0  0
  6  7  1  0  0  0
  6 34  1  0  0  0
  7 10  2  0  0  0
  8  9  2  0  0  0
  8 35  1  0  0  0
  9 10  1  0  0  0
  9 13  1  0  0  0
 10 11  1  0  0  0
 11 12  1  0  0  0
 11 36  1  0  0  0
 12 13  2  0  0  0
 12 37  1  0  0  0
 13 14  1  0  0  0
 14 15  1  0  0  0
 14 18  2  0  0  0
 15 16  2  0  0  0
 16 17  1  0  0  0
 16 19  1  0  0  0
 17 18  1  0  0  0
 18 38  1  0  0  0
 19 20  1  0  0  0
 19 39  1  0  0  0
 20 21  1  0  0  0
 20 22  2  0  0  0
 21 23  1  0  0  0
 21 40  1  0  0  0
 21 41  1  0  0  0
 23 24  2  0  0  0
 23 28  1  0  0  0
 24 25  1  0  0  0
 24 42  1  0  0  0
 25 26  2  0  0  0
 26 27  1  0  0  0
 26 43  1  0  0  0
 27 28  2  0  0  0
 27 44  1  0  0  0
 28 45  1  0  0  0
 29 30  1  0  0  0
 29 46  1  0  0  0
 29 47  1  0  0  0
 30 31  1  0  0  0
 30 48  1  0  0  0
 30 49  1  0  0  0
 31 50  1  0  0  0
 31 51  1  0  0  0
 31 52  1  0  0  0
M  END
> <s_m_entry_id>
28359

> <s_m_entry_name>
dock_pv.520

> <s_m_Source_Path>
/home/csk/Desktop/cluster/DUD-E-result/rock1

> <s_m_Source_File>
dock_pv.maegz

> <i_m_Source_File_Index>
520

> <chembl_id>
CHEMBL4241305

> <chembl_pref_name>
None

> <i_lp_mmshare_version>
53161

> <r_lp_tautomer_probability>
0.998998924059464

> <s_lp_Force_Field>
OPLS_2005

> <r_lp_Energy>
6.180377

> <b_lp_Chiralities_Consistent>
1

> <s_lp_Variant>
CHEMBL3231_lig2123-1

> <s_i_glide_gridfile>
glide-grid_2etr

> <i_i_glide_lignum>
3051

> <i_i_glide_rotatable_bonds>
9

> <r_i_docking_score>
-7.34010698520422

> <r_i_glide_ligand_efficiency>
-0.236777644684007

> <r_i_glide_ligand_efficiency_sa>
-0.743808711077733

> <r_i_glide_ligand_efficiency_ln>
-1.6554190724275

> <r_i_glide_gscore>
-7.34010698520422

> <r_i_glide_lipo>
-2.14352502879176

> <r_i_glide_hbond>
-0.520997214013799

> <r_i_glide_metal>
0

> <r_i_glide_rewards>
-1.69459491041007

> <r_i_glide_evdw>
-43.5764846801758

> <r_i_glide_ecoul>
-9.03419303894043

> <r_i_glide_erotb>
0.77444031011174

> <r_i_glide_esite>
-0.221476952250471

> <r_i_glide_emodel>
-69.9255584511904

> <r_i_glide_energy>
-52.6106777191162

> <r_i_glide_einternal>
12.4328536987305

> <i_i_glide_confnum>
38

> <i_i_glide_posenum>
42

> <r_i_glide_eff_state_penalty>
0

> <s_user_duplicate_titles>
CHEMBL3231_lig2123

> <i_f3d_flags>
0

> <s_m_subgroup_title>
dock_pv

> <s_m_subgroupid>
dock_pv

> <b_m_subgroup_collapsed>
1

$$$$
CHEMBL3231_lig529
                    3D
 Schrodinger Suite 2021-1.
 69 73  0  0  1  0            999 V2000
   52.2062  101.5396   33.4627 C   0  0  1  0  0  0
   52.6345  102.1713   32.1151 C   0  0  0  0  0  0
   53.8104  102.8372   32.0441 C   0  0  0  0  0  0
   54.6643  102.8697   33.1032 N   0  0  0  0  0  0
   54.4856  102.2240   34.2797 C   0  0  0  0  0  0
   53.4300  101.3662   34.2953 N   0  0  0  0  0  0
   55.1353  102.4890   35.2858 O   0  0  0  0  0  0
   54.3795  103.5033   30.7991 C   0  0  0  0  0  0
   51.7223  102.1309   30.9963 C   0  0  0  0  0  0
   51.9973  101.1247   30.1372 N   0  0  0  0  0  0
   50.8372  102.9776   30.8554 O   0  0  0  0  0  0
   51.4170  100.8743   28.8788 C   0  0  0  0  0  0
   51.3730   99.5441   28.4501 C   0  0  0  0  0  0
   50.4430  101.6513   26.7664 C   0  0  0  0  0  0
   50.9567  101.9020   28.0411 C   0  0  0  0  0  0
   50.3816  100.3167   26.3613 C   0  0  0  0  0  0
   50.8342   99.2567   27.1843 C   0  0  0  0  0  0
   50.5845   98.0840   26.4095 C   0  0  0  0  0  0
   50.0431   98.3746   25.2537 N   0  0  0  0  0  0
   49.9261   99.7145   25.2031 N   0  0  0  0  0  0
   51.0921  102.2601   34.2345 C   0  0  0  0  0  0
   51.1062  103.6521   34.3790 C   0  0  0  0  0  0
   50.0885  104.3149   35.0750 C   0  0  0  0  0  0
   49.0206  103.5697   35.5991 C   0  0  0  0  0  0
   49.0082  102.1826   35.4770 C   0  0  0  0  0  0
   50.0442  101.5301   34.8107 C   0  0  0  0  0  0
   47.9816  104.1845   36.2115 F   0  0  0  0  0  0
   50.1558  105.8357   35.2368 C   0  0  0  0  0  0
   50.4443  106.2744   36.6894 C   0  0  0  0  0  0
   51.3506  107.2193   36.9869 N   0  0  0  0  0  0
   49.8075  105.7695   37.6109 O   0  0  0  0  0  0
   52.2675  107.9753   36.1293 C   0  0  0  0  0  0
   52.2302  109.4805   36.4300 C   0  0  0  0  0  0
   51.6206  110.3799   35.5305 C   0  0  0  0  0  0
   51.6369  111.7529   35.7929 C   0  0  0  0  0  0
   52.2473  112.2444   36.9408 C   0  0  0  0  0  0
   52.8528  111.3676   37.8335 C   0  0  0  0  0  0
   52.8575  109.9914   37.5882 C   0  0  0  0  0  0
   50.9205  109.8967   34.2702 C   0  0  0  0  0  0
   53.5520  109.0847   38.5970 C   0  0  0  0  0  0
   51.8095  100.5395   33.2687 H   0  0  0  0  0  0
   55.5372  103.3691   33.0273 H   0  0  0  0  0  0
   53.3277  100.8672   35.1641 H   0  0  0  0  0  0
   54.0726  103.0136   29.8762 H   0  0  0  0  0  0
   54.0429  104.5398   30.7530 H   0  0  0  0  0  0
   55.4686  103.5029   30.8112 H   0  0  0  0  0  0
   52.6729  100.4414   30.4467 H   0  0  0  0  0  0
   51.7352   98.7442   29.0795 H   0  0  0  0  0  0
   50.0975  102.4572   26.1351 H   0  0  0  0  0  0
   51.0204  102.9294   28.3649 H   0  0  0  0  0  0
   50.7908   97.0601   26.6828 H   0  0  0  0  0  0
   49.5337  100.1597   24.3828 H   0  0  0  0  0  0
   51.9262  104.2174   33.9581 H   0  0  0  0  0  0
   48.1908  101.6164   35.8963 H   0  0  0  0  0  0
   50.0138  100.4530   34.7253 H   0  0  0  0  0  0
   49.2011  106.2662   34.9369 H   0  0  0  0  0  0
   50.8851  106.2272   34.5338 H   0  0  0  0  0  0
   51.4491  107.4096   37.9720 H   0  0  0  0  0  0
   52.1102  107.7949   35.0715 H   0  0  0  0  0  0
   53.2781  107.6011   36.2912 H   0  0  0  0  0  0
   51.1697  112.4470   35.1092 H   0  0  0  0  0  0
   52.2522  113.3064   37.1385 H   0  0  0  0  0  0
   53.3289  111.7663   38.7172 H   0  0  0  0  0  0
   50.1573  109.1577   34.5154 H   0  0  0  0  0  0
   50.4429  110.7024   33.7189 H   0  0  0  0  0  0
   51.6464  109.4275   33.6108 H   0  0  0  0  0  0
   52.8522  108.3573   39.0066 H   0  0  0  0  0  0
   53.9744  109.6440   39.4323 H   0  0  0  0  0  0
   54.3635  108.5342   38.1219 H   0  0  0  0  0  0
  1  2  1  0  0  0
  1  6  1  0  0  0
  1 21  1  0  0  0
  1 41  1  0  0  0
  2  3  2  0  0  0
  2  9  1  0  0  0
  3  4  1  0  0  0
  3  8  1  0  0  0
  4  5  1  0  0  0
  4 42  1  0  0  0
  5  6  1  0  0  0
  5  7  2  0  0  0
  6 43  1  0  0  0
  8 44  1  0  0  0
  8 45  1  0  0  0
  8 46  1  0  0  0
  9 10  1  0  0  0
  9 11  2  0  0  0
 10 12  1  0  0  0
 10 47  1  0  0  0
 12 13  2  0  0  0
 12 15  1  0  0  0
 13 17  1  0  0  0
 13 48  1  0  0  0
 14 16  1  0  0  0
 14 15  2  0  0  0
 14 49  1  0  0  0
 15 50  1  0  0  0
 16 17  2  0  0  0
 16 20  1  0  0  0
 17 18  1  0  0  0
 18 19  2  0  0  0
 18 51  1  0  0  0
 19 20  1  0  0  0
 20 52  1  0  0  0
 21 22  2  0  0  0
 21 26  1  0  0  0
 22 23  1  0  0  0
 22 53  1  0  0  0
 23 24  2  0  0  0
 23 28  1  0  0  0
 24 25  1  0  0  0
 24 27  1  0  0  0
 25 26  2  0  0  0
 25 54  1  0  0  0
 26 55  1  0  0  0
 28 29  1  0  0  0
 28 56  1  0  0  0
 28 57  1  0  0  0
 29 30  1  0  0  0
 29 31  2  0  0  0
 30 32  1  0  0  0
 30 58  1  0  0  0
 32 33  1  0  0  0
 32 59  1  0  0  0
 32 60  1  0  0  0
 33 34  2  0  0  0
 33 38  1  0  0  0
 34 35  1  0  0  0
 34 39  1  0  0  0
 35 36  2  0  0  0
 35 61  1  0  0  0
 36 37  1  0  0  0
 36 62  1  0  0  0
 37 38  2  0  0  0
 37 63  1  0  0  0
 38 40  1  0  0  0
 39 64  1  0  0  0
 39 65  1  0  0  0
 39 66  1  0  0  0
 40 67  1  0  0  0
 40 68  1  0  0  0
 40 69  1  0  0  0
M  END
> <s_m_entry_id>
28360

> <s_m_entry_name>
dock_pv.521

> <s_m_Source_Path>
/home/csk/Desktop/cluster/DUD-E-result/rock1

> <s_m_Source_File>
dock_pv.maegz

> <i_m_Source_File_Index>
521

> <chembl_id>
CHEMBL3808499

> <chembl_pref_name>
None

> <i_lp_mmshare_version>
53161

> <r_lp_tautomer_probability>
0.980392156860701

> <s_lp_Force_Field>
OPLS_2005

> <r_lp_Energy>
47.722804

> <b_lp_Chiralities_Consistent>
1

> <s_lp_Variant>
CHEMBL3231_lig529-2

> <s_i_glide_gridfile>
glide-grid_2etr

> <i_i_glide_lignum>
794

> <i_i_glide_rotatable_bonds>
9

> <r_i_docking_score>
-7.33830618403497

> <r_i_glide_ligand_efficiency>
-0.183457654600874

> <r_i_glide_ligand_efficiency_sa>
-0.627416352430945

> <r_i_glide_ligand_efficiency_ln>
-1.56504475234408

> <r_i_glide_gscore>
-7.33830618403497

> <r_i_glide_lipo>
-2.82459122457506

> <r_i_glide_hbond>
-0.426032403994989

> <r_i_glide_metal>
0

> <r_i_glide_rewards>
-0.0781421067430881

> <r_i_glide_evdw>
-60.5291976928711

> <r_i_glide_ecoul>
-10.5136318206787

> <r_i_glide_erotb>
0.636741711801219

> <r_i_glide_esite>
-0.0427775027776863

> <r_i_glide_emodel>
-90.4716706627078

> <r_i_glide_energy>
-71.0428295135498

> <r_i_glide_einternal>
14.3216638565063

> <i_i_glide_confnum>
60

> <i_i_glide_posenum>
379

> <r_i_glide_eff_state_penalty>
0

> <s_user_duplicate_titles>
CHEMBL3231_lig529

> <i_f3d_flags>
0

> <s_m_subgroup_title>
dock_pv

> <s_m_subgroupid>
dock_pv

> <b_m_subgroup_collapsed>
1

$$$$
CHEMBL3231_lig1799
                    3D
 Schrodinger Suite 2021-1.
 48 50  0  0  1  0            999 V2000
   52.0430  104.3030   32.0040 O   0  0  0  0  0  0
   50.1107  106.3473   36.0535 O   0  0  0  0  0  0
   53.2621  102.6036   32.8580 N   0  0  0  0  0  0
   50.0430   98.3421   25.2110 N   0  0  0  0  0  0
   51.4378  100.7495   28.4920 C   0  0  0  0  0  0
   50.9877   99.8826   27.3714 C   0  0  0  0  0  0
   52.1833  102.3410   30.6817 C   0  0  0  0  0  0
   52.5150  103.1751   31.8933 C   0  0  0  0  0  0
   50.7487   98.4994   27.5235 C   0  0  0  0  0  0
   52.3179  103.5241   34.9877 C   0  0  0  0  0  0
   52.6035  100.4712   29.2110 C   0  0  0  0  0  0
   50.6830  101.8695   28.8387 C   0  0  0  0  0  0
   53.5805  103.2077   34.1601 C   0  0  2  0  0  0
   52.9762  101.2527   30.2991 C   0  0  0  0  0  0
   51.0519  102.6592   29.9190 C   0  0  0  0  0  0
   50.7342  100.4651   26.1200 C   0  0  0  0  0  0
   51.8334  104.8328   35.1417 C   0  0  0  0  0  0
   50.6637  105.0931   35.8777 C   0  0  0  0  0  0
   50.3009   97.7776   26.4122 C   0  0  0  0  0  0
   51.6250  102.4741   35.6025 C   0  0  0  0  0  0
   50.2588   99.6720   25.0778 C   0  0  0  0  0  0
   49.9924  104.0238   36.4731 C   0  0  0  0  0  0
   50.4682  102.7210   36.3396 C   0  0  0  0  0  0
   50.9107   97.7652   28.8507 C   0  0  0  0  0  0
   54.5771  104.3825   34.0113 C   0  0  0  0  0  0
   50.7691  107.4794   35.4913 C   0  0  0  0  0  0
   53.5720  101.6551   32.7156 H   0  0  0  0  0  0
   53.2358   99.6431   28.9285 H   0  0  0  0  0  0
   49.7907  102.1140   28.2831 H   0  0  0  0  0  0
   54.1186  102.4412   34.7217 H   0  0  0  0  0  0
   53.8841  100.9995   30.8294 H   0  0  0  0  0  0
   50.4296  103.5030   30.1686 H   0  0  0  0  0  0
   50.8932  101.5220   25.9604 H   0  0  0  0  0  0
   52.3538  105.6440   34.6559 H   0  0  0  0  0  0
   50.1118   96.7160   26.4752 H   0  0  0  0  0  0
   51.9783  101.4581   35.5000 H   0  0  0  0  0  0
   50.0430  100.1004   24.1086 H   0  0  0  0  0  0
   49.0918  104.2065   37.0406 H   0  0  0  0  0  0
   49.9386  101.9026   36.8060 H   0  0  0  0  0  0
   51.0312   96.7030   28.6878 H   0  0  0  0  0  0
   51.7950   98.0611   29.4056 H   0  0  0  0  0  0
   50.0467   97.9025   29.4953 H   0  0  0  0  0  0
   54.8597  104.7879   34.9827 H   0  0  0  0  0  0
   55.4916  104.0552   33.5144 H   0  0  0  0  0  0
   54.1717  105.1984   33.4112 H   0  0  0  0  0  0
   50.2038  108.3805   35.7291 H   0  0  0  0  0  0
   51.7732  107.6031   35.9000 H   0  0  0  0  0  0
   50.8354  107.4100   34.4047 H   0  0  0  0  0  0
  1  8  2  0  0  0
  2 18  1  0  0  0
  2 26  1  0  0  0
  3  8  1  0  0  0
  3 13  1  0  0  0
  3 27  1  0  0  0
  4 19  1  0  0  0
  4 21  2  0  0  0
  5  6  1  0  0  0
  5 11  2  0  0  0
  5 12  1  0  0  0
  6  9  1  0  0  0
  6 16  2  0  0  0
  7  8  1  0  0  0
  7 14  2  0  0  0
  7 15  1  0  0  0
  9 19  2  0  0  0
  9 24  1  0  0  0
 10 13  1  0  0  0
 10 17  2  0  0  0
 10 20  1  0  0  0
 11 14  1  0  0  0
 11 28  1  0  0  0
 12 15  2  0  0  0
 12 29  1  0  0  0
 13 25  1  0  0  0
 13 30  1  0  0  0
 14 31  1  0  0  0
 15 32  1  0  0  0
 16 21  1  0  0  0
 16 33  1  0  0  0
 17 18  1  0  0  0
 17 34  1  0  0  0
 18 22  2  0  0  0
 19 35  1  0  0  0
 20 23  2  0  0  0
 20 36  1  0  0  0
 21 37  1  0  0  0
 22 23  1  0  0  0
 22 38  1  0  0  0
 23 39  1  0  0  0
 24 40  1  0  0  0
 24 41  1  0  0  0
 24 42  1  0  0  0
 25 43  1  0  0  0
 25 44  1  0  0  0
 25 45  1  0  0  0
 26 46  1  0  0  0
 26 47  1  0  0  0
 26 48  1  0  0  0
M  END
> <s_m_entry_id>
28361

> <s_m_entry_name>
dock_pv.522

> <s_m_Source_Path>
/home/csk/Desktop/cluster/DUD-E-result/rock1

> <s_m_Source_File>
dock_pv.maegz

> <i_m_Source_File_Index>
522

> <chembl_id>
CHEMBL1970217

> <chembl_pref_name>
None

> <i_lp_mmshare_version>
53161

> <r_lp_tautomer_probability>
1

> <s_lp_Force_Field>
OPLS_2005

> <r_lp_Energy>
18.301112

> <b_lp_Chiralities_Consistent>
1

> <s_lp_Variant>
CHEMBL3231_lig1799-1

> <s_i_glide_gridfile>
glide-grid_2etr

> <i_i_glide_lignum>
2576

> <i_i_glide_rotatable_bonds>
6

> <r_i_docking_score>
-7.33715744722238

> <r_i_glide_ligand_efficiency>
-0.282198363354707

> <r_i_glide_ligand_efficiency_sa>
-0.836011541041378

> <r_i_glide_ligand_efficiency_ln>
-1.72310735130293

> <r_i_glide_gscore>
-7.33715744722238

> <r_i_glide_lipo>
-2.69537918618232

> <r_i_glide_hbond>
-0.283278167352692

> <r_i_glide_metal>
0

> <r_i_glide_rewards>
-2.47211403133138

> <r_i_glide_evdw>
-39.2795257568359

> <r_i_glide_ecoul>
-4.36769151687622

> <r_i_glide_erotb>
0.792108022378983

> <r_i_glide_esite>
-0.0593640693617389

> <r_i_glide_emodel>
-61.1329273193146

> <r_i_glide_energy>
-43.6472172737122

> <r_i_glide_einternal>
6.78171730041504

> <i_i_glide_confnum>
76

> <i_i_glide_posenum>
386

> <r_i_glide_eff_state_penalty>
0

> <s_user_duplicate_titles>
CHEMBL3231_lig1799

> <i_f3d_flags>
0

> <s_m_subgroup_title>
dock_pv

> <s_m_subgroupid>
dock_pv

> <b_m_subgroup_collapsed>
1

$$$$
CHEMBL3231_lig1571
                    3D
 Schrodinger Suite 2021-1.
 42 44  0  0  1  0            999 V2000
   51.6431  103.9035   32.2743 O   0  0  0  0  0  0
   56.1627  103.6962   35.1254 O   0  0  0  0  0  0
   53.7533  103.0838   32.3285 N   0  0  0  0  0  0
   50.0432   98.2670   25.2105 N   0  0  0  0  0  0
   52.2202  102.3824   30.5656 C   0  0  0  0  0  0
   51.4358  100.7875   28.3958 C   0  0  0  0  0  0
   52.5242  103.1965   31.7938 C   0  0  0  0  0  0
   50.9753   99.9164   27.2819 C   0  0  0  0  0  0
   54.2488  103.7882   33.5258 C   0  0  1  0  0  0
   52.8376  101.1469   30.3429 C   0  0  0  0  0  0
   51.2408  102.8306   29.6725 C   0  0  0  0  0  0
   52.4430  100.3599   29.2675 C   0  0  0  0  0  0
   50.8487  102.0382   28.6027 C   0  0  0  0  0  0
   53.2715  103.7640   34.7157 C   0  0  0  0  0  0
   50.5816  100.4609   26.0501 C   0  0  0  0  0  0
   50.9020   98.5246   27.4446 C   0  0  0  0  0  0
   52.7443  104.9678   35.1989 C   0  0  0  0  0  0
   52.8836  102.5505   35.2971 C   0  0  0  0  0  0
   55.6430  103.2314   33.8922 C   0  0  0  0  0  0
   50.1172   99.6100   25.0492 C   0  0  0  0  0  0
   50.4430   97.7417   26.3910 C   0  0  0  0  0  0
   51.8269  104.9581   36.2457 C   0  0  0  0  0  0
   51.9670  102.5407   36.3463 C   0  0  0  0  0  0
   51.4395  103.7452   36.8121 C   0  0  0  0  0  0
   56.8777  103.1033   35.3800 H   0  0  0  0  0  0
   54.4620  102.6622   31.7448 H   0  0  0  0  0  0
   54.3924  104.8330   33.2341 H   0  0  0  0  0  0
   53.5986  100.7674   31.0118 H   0  0  0  0  0  0
   50.7553  103.7839   29.8107 H   0  0  0  0  0  0
   52.9236   99.4035   29.1247 H   0  0  0  0  0  0
   50.0687  102.3963   27.9460 H   0  0  0  0  0  0
   50.6271  101.5246   25.8672 H   0  0  0  0  0  0
   51.1897   98.0518   28.3723 H   0  0  0  0  0  0
   53.0270  105.9092   34.7493 H   0  0  0  0  0  0
   53.2812  101.6171   34.9231 H   0  0  0  0  0  0
   55.6183  102.1422   33.9350 H   0  0  0  0  0  0
   56.3489  103.5025   33.1051 H   0  0  0  0  0  0
   49.7973  100.0003   24.0938 H   0  0  0  0  0  0
   50.3860   96.6678   26.4812 H   0  0  0  0  0  0
   51.4154  105.8888   36.6109 H   0  0  0  0  0  0
   51.6611  101.6032   36.7893 H   0  0  0  0  0  0
   50.7198  103.7400   37.6174 H   0  0  0  0  0  0
  1  7  2  0  0  0
  2 19  1  0  0  0
  2 25  1  0  0  0
  3  7  1  0  0  0
  3  9  1  0  0  0
  3 26  1  0  0  0
  4 20  2  0  0  0
  4 21  1  0  0  0
  5  7  1  0  0  0
  5 10  2  0  0  0
  5 11  1  0  0  0
  6  8  1  0  0  0
  6 12  2  0  0  0
  6 13  1  0  0  0
  8 15  2  0  0  0
  8 16  1  0  0  0
  9 14  1  0  0  0
  9 19  1  0  0  0
  9 27  1  0  0  0
 10 12  1  0  0  0
 10 28  1  0  0  0
 11 13  2  0  0  0
 11 29  1  0  0  0
 12 30  1  0  0  0
 13 31  1  0  0  0
 14 17  2  0  0  0
 14 18  1  0  0  0
 15 20  1  0  0  0
 15 32  1  0  0  0
 16 21  2  0  0  0
 16 33  1  0  0  0
 17 22  1  0  0  0
 17 34  1  0  0  0
 18 23  2  0  0  0
 18 35  1  0  0  0
 19 36  1  0  0  0
 19 37  1  0  0  0
 20 38  1  0  0  0
 21 39  1  0  0  0
 22 24  2  0  0  0
 22 40  1  0  0  0
 23 24  1  0  0  0
 23 41  1  0  0  0
 24 42  1  0  0  0
M  END
> <s_m_entry_id>
28362

> <s_m_entry_name>
dock_pv.523

> <s_m_Source_Path>
/home/csk/Desktop/cluster/DUD-E-result/rock1

> <s_m_Source_File>
dock_pv.maegz

> <i_m_Source_File_Index>
523

> <chembl_id>
CHEMBL1974288

> <chembl_pref_name>
None

> <i_lp_mmshare_version>
53161

> <r_lp_tautomer_probability>
1

> <s_lp_Force_Field>
OPLS_2005

> <r_lp_Energy>
14.781449

> <b_lp_Chiralities_Consistent>
1

> <s_lp_Variant>
CHEMBL3231_lig1571-2

> <s_i_glide_gridfile>
glide-grid_2etr

> <i_i_glide_lignum>
2229

> <i_i_glide_rotatable_bonds>
7

> <r_i_docking_score>
-7.33701566494681

> <r_i_glide_ligand_efficiency>
-0.305708986039451

> <r_i_glide_ligand_efficiency_sa>
-0.881817306574868

> <r_i_glide_ligand_efficiency_ln>
-1.75608452233268

> <r_i_glide_gscore>
-7.33701566494681

> <r_i_glide_lipo>
-2.30602132546922

> <r_i_glide_hbond>
-0.355203737073495

> <r_i_glide_metal>
0

> <r_i_glide_rewards>
-2.59672390333353

> <r_i_glide_evdw>
-37.3955726623535

> <r_i_glide_ecoul>
-7.03775548934937

> <r_i_glide_erotb>
0.919698610005527

> <r_i_glide_esite>
-0.0733233525560119

> <r_i_glide_emodel>
-64.1516883566937

> <r_i_glide_energy>
-44.4333281517029

> <r_i_glide_einternal>
2.99536275863647

> <i_i_glide_confnum>
31

> <i_i_glide_posenum>
385

> <r_i_glide_eff_state_penalty>
0

> <s_user_duplicate_titles>
CHEMBL3231_lig1571

> <i_f3d_flags>
0

> <s_m_subgroup_title>
dock_pv

> <s_m_subgroupid>
dock_pv

> <b_m_subgroup_collapsed>
1

$$$$
CHEMBL3231_lig84
                    3D
 Schrodinger Suite 2021-1.
 55 59  0  0  1  0            999 V2000
   54.1163  103.6371   33.5597 C   0  0  0  0  0  0
   53.8793  102.4505   33.9962 N   0  0  0  0  0  0
   53.5289  101.3037   33.1128 C   0  0  1  0  0  0
   53.4927  101.6980   31.5966 C   0  0  0  0  0  0
   53.7200  102.9841   31.2327 C   0  0  0  0  0  0
   54.0256  103.9025   32.2013 N   0  0  0  0  0  0
   53.7377  103.5522   29.8168 C   0  0  0  0  0  0
   54.4011  100.0725   33.4663 C   0  0  0  0  0  0
   53.1716  100.6959   30.6020 C   0  0  0  0  0  0
   53.9632   99.8055   30.2954 O   0  0  0  0  0  0
   51.9519  100.8521   30.0463 N   0  0  0  0  0  0
   51.4733  100.1318   28.9420 C   0  0  0  0  0  0
   51.3465   98.7341   28.9530 C   0  0  0  0  0  0
   50.8921   98.0481   27.8284 C   0  0  0  0  0  0
   51.0612  100.8780   27.8343 C   0  0  0  0  0  0
   50.5677  100.2001   26.7109 C   0  0  0  0  0  0
   50.5042   98.7748   26.6978 C   0  0  0  0  0  0
   50.0389   98.2780   25.5090 N   0  0  0  0  0  0
   49.7681   99.3909   24.8107 N   0  0  0  0  0  0
   50.0435  100.5669   25.4514 C   0  0  0  0  0  0
   54.4920  104.7365   34.4886 C   0  0  0  0  0  0
   54.5115  104.5365   35.8825 C   0  0  0  0  0  0
   54.8752  105.5841   36.7313 C   0  0  0  0  0  0
   55.2373  106.8096   36.2558 N   0  0  0  0  0  0
   55.1982  107.0129   34.9163 C   0  0  0  0  0  0
   54.8439  106.0121   34.0117 C   0  0  0  0  0  0
   53.9422   98.7763   33.1757 C   0  0  0  0  0  0
   54.7290   97.6585   33.4592 C   0  0  0  0  0  0
   55.9780   97.8120   34.0550 C   0  0  0  0  0  0
   56.4309   99.0852   34.3912 C   0  0  0  0  0  0
   55.6428  100.2028   34.1157 C   0  0  0  0  0  0
   52.7041   98.5861   32.6625 F   0  0  0  0  0  0
   56.9537   96.4307   34.3969 Cl  0  0  0  0  0  0
   54.8959  105.3517   38.0936 O   0  0  0  0  0  0
   55.2471  106.4130   38.9814 C   0  0  0  0  0  0
   51.6456   98.0196   30.0619 F   0  0  0  0  0  0
   52.5198  101.0154   33.4119 H   0  0  0  0  0  0
   54.3060  104.8229   31.8905 H   0  0  0  0  0  0
   54.4422  102.9832   29.2103 H   0  0  0  0  0  0
   52.7524  103.4804   29.3606 H   0  0  0  0  0  0
   54.0444  104.6003   29.7813 H   0  0  0  0  0  0
   51.3908  101.6194   30.3746 H   0  0  0  0  0  0
   50.8433   96.9720   27.8366 H   0  0  0  0  0  0
   51.1231  101.9558   27.8384 H   0  0  0  0  0  0
   49.3733   99.3509   23.8773 H   0  0  0  0  0  0
   49.8351  101.5030   24.9651 H   0  0  0  0  0  0
   54.2442  103.5835   36.3180 H   0  0  0  0  0  0
   55.4722  108.0013   34.5681 H   0  0  0  0  0  0
   54.8429  106.2568   32.9578 H   0  0  0  0  0  0
   54.3655   96.6713   33.2166 H   0  0  0  0  0  0
   57.3990   99.2160   34.8583 H   0  0  0  0  0  0
   56.0410  101.1727   34.3820 H   0  0  0  0  0  0
   55.1970  106.0576   40.0097 H   0  0  0  0  0  0
   56.2623  106.7667   38.7990 H   0  0  0  0  0  0
   54.5562  107.2544   38.8875 H   0  0  0  0  0  0
  1  6  1  0  0  0
  1 21  1  0  0  0
  1  2  2  0  0  0
  2  3  1  0  0  0
  3  4  1  0  0  0
  3  8  1  0  0  0
  3 37  1  0  0  0
  4  9  1  0  0  0
  4  5  2  0  0  0
  5  6  1  0  0  0
  5  7  1  0  0  0
  6 38  1  0  0  0
  7 39  1  0  0  0
  7 40  1  0  0  0
  7 41  1  0  0  0
  8 27  2  0  0  0
  8 31  1  0  0  0
  9 10  2  0  0  0
  9 11  1  0  0  0
 11 42  1  0  0  0
 11 12  1  0  0  0
 12 13  1  0  0  0
 12 15  2  0  0  0
 13 14  2  0  0  0
 13 36  1  0  0  0
 14 17  1  0  0  0
 14 43  1  0  0  0
 15 44  1  0  0  0
 15 16  1  0  0  0
 16 17  1  0  0  0
 16 20  2  0  0  0
 17 18  2  0  0  0
 18 19  1  0  0  0
 19 45  1  0  0  0
 19 20  1  0  0  0
 20 46  1  0  0  0
 21 22  2  0  0  0
 21 26  1  0  0  0
 22 23  1  0  0  0
 22 47  1  0  0  0
 23 24  2  0  0  0
 23 34  1  0  0  0
 24 25  1  0  0  0
 25 26  2  0  0  0
 25 48  1  0  0  0
 26 49  1  0  0  0
 27 28  1  0  0  0
 27 32  1  0  0  0
 28 29  2  0  0  0
 28 50  1  0  0  0
 29 30  1  0  0  0
 29 33  1  0  0  0
 30 31  2  0  0  0
 30 51  1  0  0  0
 31 52  1  0  0  0
 34 35  1  0  0  0
 35 53  1  0  0  0
 35 54  1  0  0  0
 35 55  1  0  0  0
M  END
> <s_m_entry_id>
28363

> <s_m_entry_name>
dock_pv.524

> <s_m_Source_Path>
/home/csk/Desktop/cluster/DUD-E-result/rock1

> <s_m_Source_File>
dock_pv.maegz

> <i_m_Source_File_Index>
524

> <chembl_id>
CHEMBL485612

> <chembl_pref_name>
None

> <i_lp_mmshare_version>
53161

> <r_lp_tautomer_probability>
0.0196078431372549

> <s_lp_Force_Field>
OPLS_2005

> <r_lp_Energy>
45.320186

> <b_lp_Chiralities_Consistent>
1

> <s_lp_Variant>
CHEMBL3231_lig84-4

> <s_i_glide_gridfile>
glide-grid_2etr

> <i_i_glide_lignum>
135

> <i_i_glide_rotatable_bonds>
6

> <r_i_docking_score>
-7.33500128849549

> <r_i_glide_ligand_efficiency>
-0.203750035791541

> <r_i_glide_ligand_efficiency_sa>
-0.67276779433972

> <r_i_glide_ligand_efficiency_ln>
-1.60029911231613

> <r_i_glide_gscore>
-7.33500128849549

> <r_i_glide_lipo>
-2.004707327759

> <r_i_glide_hbond>
-0.700620801529367

> <r_i_glide_metal>
0

> <r_i_glide_rewards>
-1.44952542450294

> <r_i_glide_evdw>
-48.9451599121094

> <r_i_glide_ecoul>
-6.90722417831421

> <r_i_glide_erotb>
0.395318289244378

> <r_i_glide_esite>
-0.0921244015959527

> <r_i_glide_emodel>
-78.8814020543785

> <r_i_glide_energy>
-55.8523840904236

> <r_i_glide_einternal>
4.17788362503052

> <i_i_glide_confnum>
16

> <i_i_glide_posenum>
45

> <r_i_glide_eff_state_penalty>
0

> <s_user_duplicate_titles>
CHEMBL3231_lig84,513873

> <i_f3d_flags>
0

> <s_m_subgroup_title>
dock_pv

> <s_m_subgroupid>
dock_pv

> <b_m_subgroup_collapsed>
1

$$$$
CHEMBL3231_lig299
                    3D
 Schrodinger Suite 2021-1.
 31 33  0  0  1  0            999 V2000
   52.8605   98.3597   32.7840 C   0  0  0  0  0  0
   52.8901   99.5296   33.4813 N   0  0  0  0  0  0
   52.5303  100.6388   32.8011 C   0  0  0  0  0  0
   52.1253  100.6845   31.5117 N   0  0  0  0  0  0
   52.0823   99.5071   30.8231 C   0  0  0  0  0  0
   52.4559   98.3066   31.4504 C   0  0  0  0  0  0
   51.6431   99.5717   29.3875 C   0  0  0  0  0  0
   51.2451   98.4006   28.7181 C   0  0  0  0  0  0
   51.1792  100.9102   27.3794 C   0  0  0  0  0  0
   51.6119  100.7982   28.6998 C   0  0  0  0  0  0
   50.7823   99.7482   26.7112 C   0  0  0  0  0  0
   50.8311   98.5101   27.3886 C   0  0  0  0  0  0
   50.3945   97.5741   26.4715 N   0  0  0  0  0  0
   50.0450   98.1389   25.3024 N   0  0  0  0  0  0
   50.2769   99.4172   25.4170 C   0  0  0  0  0  0
   50.0430  100.3029   24.4124 N   0  0  0  0  0  0
   52.5991  101.8387   33.4885 N   0  0  0  0  0  0
   53.2438   97.1812   33.3959 O   0  0  0  0  0  0
   53.7167   97.2048   34.7393 C   0  0  0  0  0  0
   52.4572   97.3537   30.9475 H   0  0  0  0  0  0
   51.2304   97.4436   29.2119 H   0  0  0  0  0  0
   51.1492  101.8704   26.8880 H   0  0  0  0  0  0
   51.9311  101.7025   29.1976 H   0  0  0  0  0  0
   50.3091   96.5777   26.6048 H   0  0  0  0  0  0
   50.2376  101.2860   24.5203 H   0  0  0  0  0  0
   49.5844  100.0273   23.5460 H   0  0  0  0  0  0
   53.0692  101.8115   34.3822 H   0  0  0  0  0  0
   52.5725  102.6906   32.9495 H   0  0  0  0  0  0
   53.9702   96.1911   35.0538 H   0  0  0  0  0  0
   54.6153   97.8148   34.8337 H   0  0  0  0  0  0
   52.9595   97.5832   35.4282 H   0  0  0  0  0  0
  1  6  1  0  0  0
  1  2  2  0  0  0
  1 18  1  0  0  0
  2  3  1  0  0  0
  3  4  2  0  0  0
  3 17  1  0  0  0
  4  5  1  0  0  0
  5  7  1  0  0  0
  5  6  2  0  0  0
  6 20  1  0  0  0
  7 10  1  0  0  0
  7  8  2  0  0  0
  8 12  1  0  0  0
  8 21  1  0  0  0
  9 10  2  0  0  0
  9 11  1  0  0  0
  9 22  1  0  0  0
 10 23  1  0  0  0
 11 12  2  0  0  0
 11 15  1  0  0  0
 12 13  1  0  0  0
 13 14  1  0  0  0
 13 24  1  0  0  0
 14 15  2  0  0  0
 15 16  1  0  0  0
 16 25  1  0  0  0
 16 26  1  0  0  0
 17 27  1  0  0  0
 17 28  1  0  0  0
 18 19  1  0  0  0
 19 29  1  0  0  0
 19 30  1  0  0  0
 19 31  1  0  0  0
M  END
> <s_m_entry_id>
28364

> <s_m_entry_name>
dock_pv.525

> <s_m_Source_Path>
/home/csk/Desktop/cluster/DUD-E-result/rock1

> <s_m_Source_File>
dock_pv.maegz

> <i_m_Source_File_Index>
525

> <chembl_id>
CHEMBL1765759

> <chembl_pref_name>
None

> <i_lp_mmshare_version>
53161

> <r_lp_tautomer_probability>
0.999999917912647

> <s_lp_Force_Field>
OPLS_2005

> <r_lp_Energy>
0.661166

> <b_lp_Chiralities_Consistent>
1

> <s_lp_Variant>
CHEMBL3231_lig299-1

> <s_i_glide_gridfile>
glide-grid_2etr

> <i_i_glide_lignum>
447

> <i_i_glide_rotatable_bonds>
2

> <r_i_docking_score>
-7.33148910345723

> <r_i_glide_ligand_efficiency>
-0.38586784755038

> <r_i_glide_ligand_efficiency_sa>
-1.02965039958164

> <r_i_glide_ligand_efficiency_ln>
-1.85868995367411

> <r_i_glide_gscore>
-7.33148910345723

> <r_i_glide_lipo>
-2.04366695125803

> <r_i_glide_hbond>
-0.541694010138807

> <r_i_glide_metal>
0

> <r_i_glide_rewards>
-2.80683346026189

> <r_i_glide_evdw>
-32.6031646728516

> <r_i_glide_ecoul>
-3.2407431602478

> <r_i_glide_erotb>
0.187848045989796

> <r_i_glide_esite>
-0.0108730201085461

> <r_i_glide_emodel>
-51.9661640478803

> <r_i_glide_energy>
-35.8439078330994

> <r_i_glide_einternal>
0.605580687522888

> <i_i_glide_confnum>
2

> <i_i_glide_posenum>
167

> <r_i_glide_eff_state_penalty>
0

> <s_user_duplicate_titles>
CHEMBL3231_lig299

> <i_f3d_flags>
0

> <s_m_subgroup_title>
dock_pv

> <s_m_subgroupid>
dock_pv

> <b_m_subgroup_collapsed>
1

$$$$
CHEMBL3231_lig689
                    3D
 Schrodinger Suite 2021-1.
 47 49  0  0  1  0            999 V2000
   56.6360   94.1900   31.4227 C   0  0  0  0  0  0
   55.5244   93.9758   32.2876 O   0  0  0  0  0  0
   55.1164   95.0029   33.1138 C   0  0  0  0  0  0
   54.1013   94.7049   34.0286 C   0  0  0  0  0  0
   53.6420   95.6708   34.9219 C   0  0  0  0  0  0
   54.1820   96.9561   34.9008 C   0  0  0  0  0  0
   55.1856   97.2832   33.9834 C   0  0  0  0  0  0
   55.8042   98.6804   33.9800 C   0  0  0  0  0  0
   54.8080   99.8466   33.7957 C   0  0  0  0  0  0
   54.0580   99.7768   32.5419 N   0  0  0  0  0  0
   53.0679  100.6221   32.1991 C   0  0  0  0  0  0
   52.6817  101.5394   32.9276 O   0  0  0  0  0  0
   52.4497  100.4090   30.8377 C   0  0  0  0  0  0
   52.3592   99.1328   30.2690 C   0  0  0  0  0  0
   51.7985   98.9639   29.0082 C   0  0  0  0  0  0
   51.3109  100.0536   28.2723 C   0  0  0  0  0  0
   51.3604  101.3410   28.8454 C   0  0  0  0  0  0
   50.8275  102.3987   28.1259 O   0  0  0  0  0  0
   50.8600  103.7158   28.6635 C   0  0  0  0  0  0
   51.9366  101.4999   30.1208 C   0  0  0  0  0  0
   50.7734   99.7722   26.8969 C   0  0  0  0  0  0
   50.4832  100.6560   25.8618 C   0  0  0  0  0  0
   50.0396   99.8992   24.8148 N   0  0  0  0  0  0
   50.0315   98.5974   25.0913 N   0  0  0  0  0  0
   50.4562   98.5233   26.3278 C   0  0  0  0  0  0
   55.6522   96.3026   33.0980 C   0  0  0  0  0  0
   56.8540   93.2771   30.8672 H   0  0  0  0  0  0
   56.4329   94.9775   30.6953 H   0  0  0  0  0  0
   57.5322   94.4455   31.9911 H   0  0  0  0  0  0
   53.6744   93.7137   34.0468 H   0  0  0  0  0  0
   52.8670   95.4231   35.6309 H   0  0  0  0  0  0
   53.8280   97.6911   35.6064 H   0  0  0  0  0  0
   56.3476   98.8110   34.9151 H   0  0  0  0  0  0
   56.5738   98.7452   33.2103 H   0  0  0  0  0  0
   54.0644   99.7870   34.5913 H   0  0  0  0  0  0
   55.3177  100.8068   33.9038 H   0  0  0  0  0  0
   54.3884   99.1154   31.8543 H   0  0  0  0  0  0
   52.7204   98.2591   30.7946 H   0  0  0  0  0  0
   51.7641   97.9641   28.6075 H   0  0  0  0  0  0
   50.3840  104.4011   27.9636 H   0  0  0  0  0  0
   50.3173  103.7772   29.6069 H   0  0  0  0  0  0
   51.8846  104.0620   28.8128 H   0  0  0  0  0  0
   52.0034  102.4787   30.5682 H   0  0  0  0  0  0
   50.5510  101.7324   25.7797 H   0  0  0  0  0  0
   49.7330  100.2578   23.9177 H   0  0  0  0  0  0
   50.5429   97.5647   26.8164 H   0  0  0  0  0  0
   56.4431   96.5669   32.4065 H   0  0  0  0  0  0
  1  2  1  0  0  0
  1 27  1  0  0  0
  1 28  1  0  0  0
  1 29  1  0  0  0
  2  3  1  0  0  0
  3  4  2  0  0  0
  3 26  1  0  0  0
  4  5  1  0  0  0
  4 30  1  0  0  0
  5  6  2  0  0  0
  5 31  1  0  0  0
  6  7  1  0  0  0
  6 32  1  0  0  0
  7  8  1  0  0  0
  7 26  2  0  0  0
  8  9  1  0  0  0
  8 33  1  0  0  0
  8 34  1  0  0  0
  9 10  1  0  0  0
  9 35  1  0  0  0
  9 36  1  0  0  0
 10 11  1  0  0  0
 10 37  1  0  0  0
 11 12  2  0  0  0
 11 13  1  0  0  0
 13 14  2  0  0  0
 13 20  1  0  0  0
 14 15  1  0  0  0
 14 38  1  0  0  0
 15 16  2  0  0  0
 15 39  1  0  0  0
 16 17  1  0  0  0
 16 21  1  0  0  0
 17 18  1  0  0  0
 17 20  2  0  0  0
 18 19  1  0  0  0
 19 40  1  0  0  0
 19 41  1  0  0  0
 19 42  1  0  0  0
 20 43  1  0  0  0
 21 22  2  0  0  0
 21 25  1  0  0  0
 22 23  1  0  0  0
 22 44  1  0  0  0
 23 24  1  0  0  0
 23 45  1  0  0  0
 24 25  2  0  0  0
 25 46  1  0  0  0
 26 47  1  0  0  0
M  END
> <s_m_entry_id>
28366

> <s_m_entry_name>
dock_pv.527

> <s_m_Source_Path>
/home/csk/Desktop/cluster/DUD-E-result/rock1

> <s_m_Source_File>
dock_pv.maegz

> <i_m_Source_File_Index>
527

> <chembl_id>
CHEMBL3965912

> <chembl_pref_name>
None

> <i_lp_mmshare_version>
53161

> <r_lp_tautomer_probability>
0.5

> <s_lp_Force_Field>
OPLS_2005

> <r_lp_Energy>
24.319653

> <b_lp_Chiralities_Consistent>
1

> <s_lp_Variant>
CHEMBL3231_lig689-1

> <s_i_glide_gridfile>
glide-grid_2etr

> <i_i_glide_lignum>
983

> <i_i_glide_rotatable_bonds>
8

> <r_i_docking_score>
-7.33036941825704

> <r_i_glide_ligand_efficiency>
-0.281937285317579

> <r_i_glide_ligand_efficiency_sa>
-0.835238098383678

> <r_i_glide_ligand_efficiency_ln>
-1.72151320497376

> <r_i_glide_gscore>
-7.33036941825704

> <r_i_glide_lipo>
-2.34030900341019

> <r_i_glide_hbond>
-0.520484360539961

> <r_i_glide_metal>
0

> <r_i_glide_rewards>
-2.05621044383911

> <r_i_glide_evdw>
-44.8413887023926

> <r_i_glide_ecoul>
-5.20758390426636

> <r_i_glide_erotb>
0.648715347840463

> <r_i_glide_esite>
-0.0388739375486587

> <r_i_glide_emodel>
-69.7283328009867

> <r_i_glide_energy>
-50.0489726066589

> <r_i_glide_einternal>
6.68347263336182

> <i_i_glide_confnum>
41

> <i_i_glide_posenum>
270

> <r_i_glide_eff_state_penalty>
0

> <s_user_duplicate_titles>
CHEMBL3231_lig689

> <i_f3d_flags>
0

> <s_m_subgroup_title>
dock_pv

> <s_m_subgroupid>
dock_pv

> <b_m_subgroup_collapsed>
1

$$$$
CHEMBL3231_lig890
                    3D
 Schrodinger Suite 2021-1.
 36 39  0  0  1  0            999 V2000
   52.9505  100.0068   31.1951 N   0  0  0  0  0  0
   53.2250  100.8783   32.1096 C   0  0  0  0  0  0
   52.7876  102.1868   32.0028 N   0  0  0  0  0  0
   52.0242  102.7376   31.0116 C   0  0  0  0  0  0
   52.2225  100.4294   30.1178 C   0  0  0  0  0  0
   51.7546  101.7408   29.9837 C   0  0  0  0  0  0
   50.8430  101.9761   28.5313 S   0  0  0  0  0  0
   51.1059  100.3140   28.0687 C   0  0  0  0  0  0
   51.8539   99.6329   29.0310 C   0  0  0  0  0  0
   50.5923   99.7854   26.8229 C   0  0  0  0  0  0
   51.6431  103.9027   31.0702 O   0  0  0  0  0  0
   53.9773  100.4853   33.3754 C   0  0  0  0  0  0
   53.0973   99.9792   34.4383 N   0  0  0  0  0  0
   53.8460   99.3480   35.5177 C   0  0  0  0  0  0
   52.8690   99.2528   36.6911 C   0  0  0  0  0  0
   51.8249  100.3320   36.3940 C   0  0  0  0  0  0
   52.3527  101.0180   35.1389 C   0  0  0  0  0  0
   50.5397   98.4429   26.4149 C   0  0  0  0  0  0
   50.0427   98.2887   25.2110 N   0  0  0  0  0  0
   49.7409   99.5284   24.8114 N   0  0  0  0  0  0
   50.0423  100.4734   25.7532 C   0  0  0  0  0  0
   53.0295  102.8278   32.7406 H   0  0  0  0  0  0
   52.1259   98.5913   28.9540 H   0  0  0  0  0  0
   54.5712  101.3242   33.7442 H   0  0  0  0  0  0
   54.7144   99.7176   33.1265 H   0  0  0  0  0  0
   54.7536   99.8983   35.7743 H   0  0  0  0  0  0
   54.1834   98.3668   35.1856 H   0  0  0  0  0  0
   53.3756   99.4325   37.6402 H   0  0  0  0  0  0
   52.4173   98.2620   36.7488 H   0  0  0  0  0  0
   50.8401   99.9044   36.2063 H   0  0  0  0  0  0
   51.7178  101.0424   37.2107 H   0  0  0  0  0  0
   51.5467  101.3746   34.4962 H   0  0  0  0  0  0
   52.9686  101.8935   35.3576 H   0  0  0  0  0  0
   50.8745   97.5943   26.9937 H   0  0  0  0  0  0
   49.3290   99.7216   23.9024 H   0  0  0  0  0  0
   49.8465  101.5203   25.5892 H   0  0  0  0  0  0
  1  5  1  0  0  0
  1  2  2  0  0  0
  2  3  1  0  0  0
  2 12  1  0  0  0
  3  4  1  0  0  0
  3 22  1  0  0  0
  4  6  1  0  0  0
  4 11  2  0  0  0
  5  6  2  0  0  0
  5  9  1  0  0  0
  6  7  1  0  0  0
  7  8  1  0  0  0
  8  9  2  0  0  0
  8 10  1  0  0  0
  9 23  1  0  0  0
 10 21  2  0  0  0
 10 18  1  0  0  0
 12 13  1  0  0  0
 12 24  1  0  0  0
 12 25  1  0  0  0
 13 14  1  0  0  0
 13 17  1  0  0  0
 14 15  1  0  0  0
 14 26  1  0  0  0
 14 27  1  0  0  0
 15 16  1  0  0  0
 15 28  1  0  0  0
 15 29  1  0  0  0
 16 17  1  0  0  0
 16 30  1  0  0  0
 16 31  1  0  0  0
 17 32  1  0  0  0
 17 33  1  0  0  0
 18 34  1  0  0  0
 18 19  2  0  0  0
 19 20  1  0  0  0
 20 35  1  0  0  0
 20 21  1  0  0  0
 21 36  1  0  0  0
M  END
> <s_m_entry_id>
28367

> <s_m_entry_name>
dock_pv.528

> <s_m_Source_Path>
/home/csk/Desktop/cluster/DUD-E-result/rock1

> <s_m_Source_File>
dock_pv.maegz

> <i_m_Source_File_Index>
528

> <chembl_id>
CHEMBL4098392

> <chembl_pref_name>
None

> <i_lp_mmshare_version>
53161

> <r_lp_tautomer_probability>
0.5

> <s_lp_Force_Field>
OPLS_2005

> <r_lp_Energy>
38.707395

> <b_lp_Chiralities_Consistent>
1

> <s_lp_Variant>
CHEMBL3231_lig890-1

> <s_i_glide_gridfile>
glide-grid_2etr

> <i_i_glide_lignum>
1273

> <i_i_glide_rotatable_bonds>
3

> <r_i_docking_score>
-7.32963167639701

> <r_i_glide_ligand_efficiency>
-0.349030079828429

> <r_i_glide_ligand_efficiency_sa>
-0.962947524545647

> <r_i_glide_ligand_efficiency_ln>
-1.81223662107379

> <r_i_glide_gscore>
-7.32963167639701

> <r_i_glide_lipo>
-1.92526550680894

> <r_i_glide_hbond>
-0.695016633403193

> <r_i_glide_metal>
0

> <r_i_glide_rewards>
-2.36925027557199

> <r_i_glide_evdw>
-34.7479858398438

> <r_i_glide_ecoul>
-6.59997606277466

> <r_i_glide_erotb>
0.425349575159158

> <r_i_glide_esite>
-0.0380531343636523

> <r_i_glide_emodel>
-59.5830517010205

> <r_i_glide_energy>
-41.3479619026184

> <r_i_glide_einternal>
1.71954786777496

> <i_i_glide_confnum>
16

> <i_i_glide_posenum>
380

> <r_i_glide_eff_state_penalty>
0

> <s_user_duplicate_titles>
CHEMBL3231_lig890

> <i_f3d_flags>
0

> <s_m_subgroup_title>
dock_pv

> <s_m_subgroupid>
dock_pv

> <b_m_subgroup_collapsed>
1

$$$$
CHEMBL3231_lig768
                    3D
 Schrodinger Suite 2021-1.
 40 42  0  0  1  0            999 V2000
   52.4053   98.2174   31.3296 C   0  0  0  0  0  0
   52.3786   99.6407   31.3745 O   0  0  0  0  0  0
   51.9758  100.3716   30.2660 C   0  0  0  0  0  0
   51.5647   99.7606   29.0673 C   0  0  0  0  0  0
   51.0836  100.5171   27.9933 C   0  0  0  0  0  0
   51.0434  101.9041   28.1102 C   0  0  0  0  0  0
   51.4727  102.5304   29.2708 C   0  0  0  0  0  0
   51.9327  101.7798   30.3593 C   0  0  0  0  0  0
   52.3087  102.5261   31.6144 C   0  0  0  0  0  0
   51.6464  103.5031   31.9659 O   0  0  0  0  0  0
   53.3767  102.0694   32.2881 N   0  0  0  0  0  0
   53.8600  102.5894   33.5641 C   0  0  0  0  0  0
   53.7089  101.5873   34.7068 C   0  0  0  0  0  0
   52.4639  101.0122   35.0131 C   0  0  0  0  0  0
   51.3529  101.3438   34.3157 F   0  0  0  0  0  0
   52.3479  100.0935   36.0540 C   0  0  0  0  0  0
   53.4646   99.7435   36.8080 C   0  0  0  0  0  0
   54.7009  100.3206   36.5264 C   0  0  0  0  0  0
   54.8212  101.2404   35.4853 C   0  0  0  0  0  0
   56.0289  101.8006   35.2404 F   0  0  0  0  0  0
   50.5800   99.8742   26.7481 C   0  0  0  0  0  0
   50.6030   98.5186   26.3786 C   0  0  0  0  0  0
   50.0435   98.2887   25.2123 N   0  0  0  0  0  0
   49.6451   99.4902   24.7995 N   0  0  0  0  0  0
   49.9563  100.4859   25.6735 C   0  0  0  0  0  0
   52.7401   97.8318   32.2946 H   0  0  0  0  0  0
   51.4157   97.7994   31.1368 H   0  0  0  0  0  0
   53.1077   97.8603   30.5732 H   0  0  0  0  0  0
   51.5841   98.6871   28.9708 H   0  0  0  0  0  0
   50.6728  102.5142   27.3011 H   0  0  0  0  0  0
   51.4312  103.6100   29.3190 H   0  0  0  0  0  0
   53.8667  101.2733   31.9066 H   0  0  0  0  0  0
   53.3268  103.4959   33.8576 H   0  0  0  0  0  0
   54.8996  102.8891   33.4284 H   0  0  0  0  0  0
   51.3864   99.6568   36.2776 H   0  0  0  0  0  0
   53.3710   99.0336   37.6154 H   0  0  0  0  0  0
   55.5707  100.0604   37.1126 H   0  0  0  0  0  0
   51.0238   97.7109   26.9597 H   0  0  0  0  0  0
   49.1893   99.6267   23.9006 H   0  0  0  0  0  0
   49.6953  101.5102   25.4574 H   0  0  0  0  0  0
  1  2  1  0  0  0
  1 26  1  0  0  0
  1 27  1  0  0  0
  1 28  1  0  0  0
  2  3  1  0  0  0
  3  4  2  0  0  0
  3  8  1  0  0  0
  4  5  1  0  0  0
  4 29  1  0  0  0
  5  6  2  0  0  0
  5 21  1  0  0  0
  6  7  1  0  0  0
  6 30  1  0  0  0
  7  8  2  0  0  0
  7 31  1  0  0  0
  8  9  1  0  0  0
  9 10  2  0  0  0
  9 11  1  0  0  0
 11 12  1  0  0  0
 11 32  1  0  0  0
 12 13  1  0  0  0
 12 33  1  0  0  0
 12 34  1  0  0  0
 13 14  2  0  0  0
 13 19  1  0  0  0
 14 15  1  0  0  0
 14 16  1  0  0  0
 16 17  2  0  0  0
 16 35  1  0  0  0
 17 18  1  0  0  0
 17 36  1  0  0  0
 18 19  2  0  0  0
 18 37  1  0  0  0
 19 20  1  0  0  0
 21 22  1  0  0  0
 21 25  2  0  0  0
 22 23  2  0  0  0
 22 38  1  0  0  0
 23 24  1  0  0  0
 24 25  1  0  0  0
 24 39  1  0  0  0
 25 40  1  0  0  0
M  END
> <s_m_entry_id>
28368

> <s_m_entry_name>
dock_pv.529

> <s_m_Source_Path>
/home/csk/Desktop/cluster/DUD-E-result/rock1

> <s_m_Source_File>
dock_pv.maegz

> <i_m_Source_File_Index>
529

> <chembl_id>
CHEMBL3939886

> <chembl_pref_name>
None

> <i_lp_mmshare_version>
53161

> <r_lp_tautomer_probability>
0.5

> <s_lp_Force_Field>
OPLS_2005

> <r_lp_Energy>
22.443178

> <b_lp_Chiralities_Consistent>
1

> <s_lp_Variant>
CHEMBL3231_lig768-1

> <s_i_glide_gridfile>
glide-grid_2etr

> <i_i_glide_lignum>
1088

> <i_i_glide_rotatable_bonds>
6

> <r_i_docking_score>
-7.32811465858327

> <r_i_glide_ligand_efficiency>
-0.293124586343331

> <r_i_glide_ligand_efficiency_sa>
-0.857101489054573

> <r_i_glide_ligand_efficiency_ln>
-1.73698277995945

> <r_i_glide_gscore>
-7.32811465858327

> <r_i_glide_lipo>
-2.06880184961835

> <r_i_glide_hbond>
-0.63564366881161

> <r_i_glide_metal>
0

> <r_i_glide_rewards>
-2.14454339864475

> <r_i_glide_evdw>
-36.3730583190918

> <r_i_glide_ecoul>
-6.70989179611206

> <r_i_glide_erotb>
0.450703638126891

> <r_i_glide_esite>
-0.104692694264043

> <r_i_glide_emodel>
-61.409175518839

> <r_i_glide_energy>
-43.0829501152039

> <r_i_glide_einternal>
3.76268625259399

> <i_i_glide_confnum>
10

> <i_i_glide_posenum>
28

> <r_i_glide_eff_state_penalty>
0

> <s_user_duplicate_titles>
CHEMBL3231_lig768

> <i_f3d_flags>
0

> <s_m_subgroup_title>
dock_pv

> <s_m_subgroupid>
dock_pv

> <b_m_subgroup_collapsed>
1

$$$$
CHEMBL3231_lig923 
                    3D
 Schrodinger Suite 2021-1.
 33 36  0  0  1  0            999 V2000
   52.6973   99.9303   31.3445 N   0  0  0  0  0  0
   52.9877  100.6941   32.3482 C   0  0  0  0  0  0
   52.6280  102.0295   32.3444 N   0  0  0  0  0  0
   51.9479  102.7189   31.3754 C   0  0  0  0  0  0
   52.0535  100.4963   30.2818 C   0  0  0  0  0  0
   51.6676  101.8373   30.2505 C   0  0  0  0  0  0
   50.8436  102.2552   28.7894 S   0  0  0  0  0  0
   51.0343  100.6269   28.1778 C   0  0  0  0  0  0
   51.7069   99.8287   29.1076 C   0  0  0  0  0  0
   50.5309  100.2497   26.8584 C   0  0  0  0  0  0
   50.1098  101.1032   25.8552 C   0  0  0  0  0  0
   49.7328  100.3081   24.8111 N   0  0  0  0  0  0
   49.8948   99.0140   25.0693 N   0  0  0  0  0  0
   50.3495   98.9641   26.3013 C   0  0  0  0  0  0
   51.6437  103.9010   31.5187 O   0  0  0  0  0  0
   50.6021   97.6188   26.9196 C   0  0  0  0  0  0
   53.7268  100.1677   33.5877 C   0  0  1  0  0  0
   53.8865   98.7121   33.7240 N   0  0  2  0  0  0
   55.3099   98.8245   33.4033 C   0  0  0  0  0  0
   55.2424  100.3283   33.5796 C   0  0  0  0  0  0
   52.8841  102.5903   33.1424 H   0  0  0  0  0  0
   51.9446   98.7883   28.9551 H   0  0  0  0  0  0
   50.0416  102.1801   25.8081 H   0  0  0  0  0  0
   49.3703  100.6287   23.9197 H   0  0  0  0  0  0
   51.6569   97.5032   27.1530 H   0  0  0  0  0  0
   50.0485   97.5037   27.8516 H   0  0  0  0  0  0
   50.3246   96.7840   26.2748 H   0  0  0  0  0  0
   53.2653  100.5875   34.4827 H   0  0  0  0  0  0
   53.3146   98.1174   33.1378 H   0  0  0  0  0  0
   55.5406   98.5466   32.3720 H   0  0  0  0  0  0
   55.9636   98.3035   34.1064 H   0  0  0  0  0  0
   55.6434  100.9102   32.7465 H   0  0  0  0  0  0
   55.6601  100.6856   34.5225 H   0  0  0  0  0  0
  1  5  1  0  0  0
  1  2  2  0  0  0
  2  3  1  0  0  0
  2 17  1  0  0  0
  3  4  1  0  0  0
  3 21  1  0  0  0
  4  6  1  0  0  0
  4 15  2  0  0  0
  5  6  2  0  0  0
  5  9  1  0  0  0
  6  7  1  0  0  0
  7  8  1  0  0  0
  8  9  2  0  0  0
  8 10  1  0  0  0
  9 22  1  0  0  0
 10 11  2  0  0  0
 10 14  1  0  0  0
 11 12  1  0  0  0
 11 23  1  0  0  0
 12 13  1  0  0  0
 12 24  1  0  0  0
 13 14  2  0  0  0
 14 16  1  0  0  0
 16 25  1  0  0  0
 16 26  1  0  0  0
 16 27  1  0  0  0
 17 18  1  0  0  0
 17 20  1  0  0  0
 17 28  1  0  0  0
 18 19  1  0  0  0
 18 29  1  0  0  0
 19 20  1  0  0  0
 19 30  1  0  0  0
 19 31  1  0  0  0
 20 32  1  0  0  0
 20 33  1  0  0  0
M  END
> <s_m_entry_id>
28370

> <s_m_entry_name>
dock_pv.531

> <s_m_Source_Path>
/home/csk/Desktop/cluster/DUD-E-result/rock1

> <s_m_Source_File>
dock_pv.maegz

> <i_m_Source_File_Index>
531

> <chembl_id>
CHEMBL4457256

> <chembl_pref_name>
None

> <i_lp_mmshare_version>
53161

> <r_lp_tautomer_probability>
0.5

> <s_lp_Force_Field>
OPLS_2005

> <r_lp_Energy>
26.151294

> <b_lp_Chiralities_Consistent>
1

> <s_lp_Variant>
CHEMBL3231_lig923 -1

> <s_i_glide_gridfile>
glide-grid_2etr

> <i_i_glide_lignum>
1321

> <i_i_glide_rotatable_bonds>
2

> <r_i_docking_score>
-7.32746727258547

> <r_i_glide_ligand_efficiency>
-0.366373363629273

> <r_i_glide_ligand_efficiency_sa>
-0.994490311493356

> <r_i_glide_ligand_efficiency_ln>
-1.83382338228284

> <r_i_glide_gscore>
-7.32746727258547

> <r_i_glide_lipo>
-1.96519133733662

> <r_i_glide_hbond>
-0.41223087429828

> <r_i_glide_metal>
0

> <r_i_glide_rewards>
-2.70913878690872

> <r_i_glide_evdw>
-33.9655113220215

> <r_i_glide_ecoul>
-6.35092782974243

> <r_i_glide_erotb>
0.440255137440015

> <r_i_glide_esite>
-0.0302466709194164

> <r_i_glide_emodel>
-59.0938765087067

> <r_i_glide_energy>
-40.3164391517639

> <r_i_glide_einternal>
0.144397661089897

> <i_i_glide_confnum>
14

> <i_i_glide_posenum>
5

> <r_i_glide_eff_state_penalty>
0

> <s_user_duplicate_titles>
CHEMBL3231_lig923 

> <i_f3d_flags>
0

> <s_m_subgroup_title>
dock_pv

> <s_m_subgroupid>
dock_pv

> <b_m_subgroup_collapsed>
1

$$$$
CHEMBL3231_lig730
                    3D
 Schrodinger Suite 2021-1.
 44 46  0  0  1  0            999 V2000
   56.4938   99.5027   33.2111 O   0  0  0  0  0  0
   56.1062   98.2928   33.8338 C   0  0  0  0  0  0
   54.5773   98.2086   34.0391 C   0  0  1  0  0  0
   53.8490   98.4924   32.7931 N   0  0  0  0  0  0
   52.6697   99.1240   32.6929 C   0  0  0  0  0  0
   52.0453   99.6009   33.6403 O   0  0  0  0  0  0
   52.1429   99.2120   31.2934 C   0  0  0  0  0  0
   51.6981   98.0626   30.6428 C   0  0  0  0  0  0
   51.2432   98.1388   29.3323 C   0  0  0  0  0  0
   51.2431   99.3521   28.6302 C   0  0  0  0  0  0
   51.6725  100.5272   29.2860 C   0  0  0  0  0  0
   51.6490  101.7214   28.5797 O   0  0  0  0  0  0
   51.9741  102.9575   29.2153 C   0  0  0  0  0  0
   51.1345  103.2601   30.2082 F   0  0  0  0  0  0
   53.2455  103.0182   29.6094 F   0  0  0  0  0  0
   52.1114  100.4383   30.6216 C   0  0  0  0  0  0
   50.7440   99.3204   27.2108 C   0  0  0  0  0  0
   50.3795  100.3679   26.3682 C   0  0  0  0  0  0
   49.9728   99.8000   25.1911 N   0  0  0  0  0  0
   50.0430   98.4693   25.2104 N   0  0  0  0  0  0
   50.5119   98.1881   26.4017 C   0  0  0  0  0  0
   54.2144   96.8555   34.6527 C   0  0  0  0  0  0
   54.0785   96.7400   36.0402 C   0  0  0  0  0  0
   53.7978   95.5016   36.6104 C   0  0  0  0  0  0
   53.6429   94.3831   35.7940 C   0  0  0  0  0  0
   53.7523   94.4911   34.4113 C   0  0  0  0  0  0
   54.0429   95.7265   33.8402 C   0  0  0  0  0  0
   57.1365   99.2672   32.5227 H   0  0  0  0  0  0
   56.6343   98.2054   34.7836 H   0  0  0  0  0  0
   56.4472   97.4664   33.2107 H   0  0  0  0  0  0
   54.3274   98.9923   34.7591 H   0  0  0  0  0  0
   54.3078   98.2065   31.9416 H   0  0  0  0  0  0
   51.7011   97.1043   31.1472 H   0  0  0  0  0  0
   50.8949   97.2275   28.8703 H   0  0  0  0  0  0
   51.8549  103.7561   28.4812 H   0  0  0  0  0  0
   52.4608  101.3137   31.1467 H   0  0  0  0  0  0
   50.3645  101.4400   26.4964 H   0  0  0  0  0  0
   49.6394  100.3037   24.3796 H   0  0  0  0  0  0
   50.6846   97.1588   26.6807 H   0  0  0  0  0  0
   54.2089   97.6007   36.6789 H   0  0  0  0  0  0
   53.7030   95.4067   37.6815 H   0  0  0  0  0  0
   53.4310   93.4201   36.2343 H   0  0  0  0  0  0
   53.6202   93.6186   33.7871 H   0  0  0  0  0  0
   54.1427   95.7992   32.7675 H   0  0  0  0  0  0
  1  2  1  0  0  0
  1 28  1  0  0  0
  2  3  1  0  0  0
  2 29  1  0  0  0
  2 30  1  0  0  0
  3  4  1  0  0  0
  3 22  1  0  0  0
  3 31  1  0  0  0
  4  5  1  0  0  0
  4 32  1  0  0  0
  5  6  2  0  0  0
  5  7  1  0  0  0
  7  8  2  0  0  0
  7 16  1  0  0  0
  8  9  1  0  0  0
  8 33  1  0  0  0
  9 10  2  0  0  0
  9 34  1  0  0  0
 10 11  1  0  0  0
 10 17  1  0  0  0
 11 12  1  0  0  0
 11 16  2  0  0  0
 12 13  1  0  0  0
 13 14  1  0  0  0
 13 15  1  0  0  0
 13 35  1  0  0  0
 16 36  1  0  0  0
 17 18  2  0  0  0
 17 21  1  0  0  0
 18 19  1  0  0  0
 18 37  1  0  0  0
 19 20  1  0  0  0
 19 38  1  0  0  0
 20 21  2  0  0  0
 21 39  1  0  0  0
 22 23  2  0  0  0
 22 27  1  0  0  0
 23 24  1  0  0  0
 23 40  1  0  0  0
 24 25  2  0  0  0
 24 41  1  0  0  0
 25 26  1  0  0  0
 25 42  1  0  0  0
 26 27  2  0  0  0
 26 43  1  0  0  0
 27 44  1  0  0  0
M  END
> <s_m_entry_id>
28371

> <s_m_entry_name>
dock_pv.532

> <s_m_Source_Path>
/home/csk/Desktop/cluster/DUD-E-result/rock1

> <s_m_Source_File>
dock_pv.maegz

> <i_m_Source_File_Index>
532

> <chembl_id>
CHEMBL4107796

> <chembl_pref_name>
None

> <i_lp_mmshare_version>
53161

> <r_lp_tautomer_probability>
0.5

> <s_lp_Force_Field>
OPLS_2005

> <r_lp_Energy>
19.903417

> <b_lp_Chiralities_Consistent>
1

> <s_lp_Variant>
CHEMBL3231_lig730-1

> <s_i_glide_gridfile>
glide-grid_2etr

> <i_i_glide_lignum>
1038

> <i_i_glide_rotatable_bonds>
9

> <r_i_docking_score>
-7.32629585612922

> <r_i_glide_ligand_efficiency>
-0.271344290967749

> <r_i_glide_ligand_efficiency_sa>
-0.814032872008941

> <r_i_glide_ligand_efficiency_ln>
-1.70544089187996

> <r_i_glide_gscore>
-7.32629585612922

> <r_i_glide_lipo>
-2.50243347155075

> <r_i_glide_hbond>
-0.315384077055495

> <r_i_glide_metal>
0

> <r_i_glide_rewards>
-2.09278264842352

> <r_i_glide_evdw>
-41.7852363586426

> <r_i_glide_ecoul>
-7.04591178894043

> <r_i_glide_erotb>
0.831786279519812

> <r_i_glide_esite>
-0.101333352346067

> <r_i_glide_emodel>
-66.6864137296115

> <r_i_glide_energy>
-48.831148147583

> <r_i_glide_einternal>
9.48102378845215

> <i_i_glide_confnum>
20

> <i_i_glide_posenum>
167

> <r_i_glide_eff_state_penalty>
0

> <s_user_duplicate_titles>
CHEMBL3231_lig730

> <i_f3d_flags>
0

> <s_m_subgroup_title>
dock_pv

> <s_m_subgroupid>
dock_pv

> <b_m_subgroup_collapsed>
1

$$$$
CHEMBL3231_lig935
                    3D
 Schrodinger Suite 2021-1.
 37 41  0  0  1  0            999 V2000
   53.1121  100.0796   31.1503 N   0  0  0  0  0  0
   53.3966  100.8452   32.1520 C   0  0  0  0  0  0
   52.9020  102.1358   32.2202 N   0  0  0  0  0  0
   52.0697  102.7685   31.3326 C   0  0  0  0  0  0
   52.3260  100.5957   30.1629 C   0  0  0  0  0  0
   51.8038  101.8895   30.2012 C   0  0  0  0  0  0
   50.8430  102.2532   28.8093 S   0  0  0  0  0  0
   51.1482  100.6636   28.1441 C   0  0  0  0  0  0
   51.9543   99.9155   29.0041 C   0  0  0  0  0  0
   50.6103  100.2643   26.8455 C   0  0  0  0  0  0
   50.1712  101.1031   25.8398 C   0  0  0  0  0  0
   49.7809  100.2947   24.8111 N   0  0  0  0  0  0
   49.9395   99.0030   25.0892 N   0  0  0  0  0  0
   50.4141   98.9708   26.3162 C   0  0  0  0  0  0
   51.6436  103.9029   31.5379 O   0  0  0  0  0  0
   50.6725   97.6347   26.9580 C   0  0  0  0  0  0
   54.2775  100.3293   33.2896 C   0  0  1  0  0  0
   53.6336   99.3476   34.1694 N   0  0  2  0  0  0
   54.7370   99.0502   35.0788 C   0  0  0  0  0  0
   55.7951   99.9587   34.4685 C   0  0  1  0  0  0
   55.6427   99.7042   32.9657 C   0  0  0  0  0  0
   55.0411  101.2734   34.2341 C   0  0  0  0  0  0
   53.1591  102.6906   33.0207 H   0  0  0  0  0  0
   52.2764   98.9054   28.8103 H   0  0  0  0  0  0
   50.1040  102.1784   25.7805 H   0  0  0  0  0  0
   49.4109  100.6050   23.9192 H   0  0  0  0  0  0
   51.7329   97.5031   27.1557 H   0  0  0  0  0  0
   50.1562   97.5407   27.9121 H   0  0  0  0  0  0
   50.3566   96.7909   26.3424 H   0  0  0  0  0  0
   53.4166   98.5283   33.6151 H   0  0  0  0  0  0
   55.0226   97.9959   35.0448 H   0  0  0  0  0  0
   54.4942   99.3245   36.1062 H   0  0  0  0  0  0
   56.7706   99.9381   34.9573 H   0  0  0  0  0  0
   55.6442   98.6628   32.6359 H   0  0  0  0  0  0
   56.3139  100.2720   32.3136 H   0  0  0  0  0  0
   55.6366  102.0746   33.7831 H   0  0  0  0  0  0
   54.4791  101.6765   35.0808 H   0  0  0  0  0  0
  1  5  1  0  0  0
  1  2  2  0  0  0
  2  3  1  0  0  0
  2 17  1  0  0  0
  3  4  1  0  0  0
  3 23  1  0  0  0
  4  6  1  0  0  0
  4 15  2  0  0  0
  5  6  2  0  0  0
  5  9  1  0  0  0
  6  7  1  0  0  0
  7  8  1  0  0  0
  8  9  2  0  0  0
  8 10  1  0  0  0
  9 24  1  0  0  0
 10 11  2  0  0  0
 10 14  1  0  0  0
 11 12  1  0  0  0
 11 25  1  0  0  0
 12 13  1  0  0  0
 12 26  1  0  0  0
 13 14  2  0  0  0
 14 16  1  0  0  0
 16 27  1  0  0  0
 16 28  1  0  0  0
 16 29  1  0  0  0
 17 18  1  0  0  0
 17 21  1  0  0  0
 17 22  1  0  0  0
 18 19  1  0  0  0
 18 30  1  0  0  0
 19 20  1  0  0  0
 19 31  1  0  0  0
 19 32  1  0  0  0
 20 21  1  0  0  0
 20 22  1  0  0  0
 20 33  1  0  0  0
 21 34  1  0  0  0
 21 35  1  0  0  0
 22 36  1  0  0  0
 22 37  1  0  0  0
M  END
> <s_m_entry_id>
28372

> <s_m_entry_name>
dock_pv.533

> <s_m_Source_Path>
/home/csk/Desktop/cluster/DUD-E-result/rock1

> <s_m_Source_File>
dock_pv.maegz

> <i_m_Source_File_Index>
533

> <chembl_id>
CHEMBL4436649

> <chembl_pref_name>
None

> <i_lp_mmshare_version>
53161

> <r_lp_tautomer_probability>
0.5

> <s_lp_Force_Field>
OPLS_2005

> <r_lp_Energy>
61.727616

> <b_lp_Chiralities_Consistent>
1

> <s_lp_Variant>
CHEMBL3231_lig935-1

> <s_i_glide_gridfile>
glide-grid_2etr

> <i_i_glide_lignum>
1345

> <i_i_glide_rotatable_bonds>
2

> <r_i_docking_score>
-7.32530586877809

> <r_i_glide_ligand_efficiency>
-0.332968448580822

> <r_i_glide_ligand_efficiency_sa>
-0.932990687829465

> <r_i_glide_ligand_efficiency_ln>
-1.79057195135308

> <r_i_glide_gscore>
-7.32530586877809

> <r_i_glide_lipo>
-1.96698513962698

> <r_i_glide_hbond>
-0.411171428626519

> <r_i_glide_metal>
0

> <r_i_glide_rewards>
-2.50908598484848

> <r_i_glide_evdw>
-35.9090347290039

> <r_i_glide_ecoul>
-6.55973815917969

> <r_i_glide_erotb>
0.37825005299595

> <r_i_glide_esite>
-0.0369009083449112

> <r_i_glide_emodel>
-60.7979377716876

> <r_i_glide_energy>
-42.4687728881836

> <r_i_glide_einternal>
2.06284070014954

> <i_i_glide_confnum>
5

> <i_i_glide_posenum>
368

> <r_i_glide_eff_state_penalty>
0

> <s_user_duplicate_titles>
CHEMBL3231_lig935

> <i_f3d_flags>
0

> <s_m_subgroup_title>
dock_pv

> <s_m_subgroupid>
dock_pv

> <b_m_subgroup_collapsed>
1

$$$$
CHEMBL3231_lig1657
                    3D
 Schrodinger Suite 2021-1.
 45 48  0  0  1  0            999 V2000
   53.4833  100.4664   31.6294 N   0  0  0  0  0  0
   53.7168  102.6715   32.6763 C   0  0  0  0  0  0
   52.5922  100.9610   30.6339 C   0  0  0  0  0  0
   54.0447  101.3607   32.5350 C   0  0  0  0  0  0
   52.6157  103.2120   31.8387 C   0  0  0  0  0  0
   52.1791  102.3096   30.7171 C   0  0  0  0  0  0
   53.8513   99.1022   31.7605 C   0  0  0  0  0  0
   54.4744  103.4676   33.6424 C   0  0  0  0  0  0
   52.1096  100.1685   29.5794 C   0  0  0  0  0  0
   53.6275   98.3786   32.9569 C   0  0  0  0  0  0
   51.2998  102.8114   29.7480 C   0  0  0  0  0  0
   51.2666  100.6849   28.5867 C   0  0  0  0  0  0
   54.5018   98.4569   30.7007 C   0  0  0  0  0  0
   52.0669  104.3030   32.0021 O   0  0  0  0  0  0
   54.0850   97.0603   33.0722 C   0  0  0  0  0  0
   50.8523  102.0140   28.7043 C   0  0  0  0  0  0
   55.2389  102.9797   34.4719 O   0  0  0  0  0  0
   50.0429   98.3029   25.2108 N   0  0  0  0  0  0
   50.8409   99.8549   27.4211 C   0  0  0  0  0  0
   54.3257  104.7923   33.6112 N   0  0  0  0  0  0
   54.7422   96.4438   32.0111 C   0  0  0  0  0  0
   54.9092   97.1298   30.8136 C   0  0  0  0  0  0
   55.2422   95.1752   32.1428 O   0  0  0  0  0  0
   52.8726   98.9788   34.1384 C   0  0  0  0  0  0
   50.3295   97.7265   26.3997 C   0  0  0  0  0  0
   50.1605   99.6473   25.1096 C   0  0  0  0  0  0
   50.7155   98.4590   27.5207 C   0  0  0  0  0  0
   50.5643  100.4474   26.1763 C   0  0  0  0  0  0
   54.8625  100.9351   33.1085 H   0  0  0  0  0  0
   52.4125   99.1391   29.5010 H   0  0  0  0  0  0
   50.9687  103.8391   29.7748 H   0  0  0  0  0  0
   54.7204   98.9935   29.7883 H   0  0  0  0  0  0
   53.9336   96.5127   33.9905 H   0  0  0  0  0  0
   50.1848  102.4507   27.9762 H   0  0  0  0  0  0
   54.8407  105.3651   34.2572 H   0  0  0  0  0  0
   53.7054  105.2323   32.9403 H   0  0  0  0  0  0
   55.4308   96.6556   29.9949 H   0  0  0  0  0  0
   55.4282   94.9352   33.0534 H   0  0  0  0  0  0
   53.5328   99.6038   34.7407 H   0  0  0  0  0  0
   52.0396   99.5915   33.7919 H   0  0  0  0  0  0
   52.4442   98.2071   34.7779 H   0  0  0  0  0  0
   50.2395   96.6514   26.4349 H   0  0  0  0  0  0
   49.9343  100.0806   24.1449 H   0  0  0  0  0  0
   50.9087   97.9387   28.4472 H   0  0  0  0  0  0
   50.6619  101.5118   26.0241 H   0  0  0  0  0  0
  1  3  1  0  0  0
  1  4  1  0  0  0
  1  7  1  0  0  0
  2  4  2  0  0  0
  2  5  1  0  0  0
  2  8  1  0  0  0
  3  6  1  0  0  0
  3  9  2  0  0  0
  4 29  1  0  0  0
  5 14  2  0  0  0
  5  6  1  0  0  0
  6 11  2  0  0  0
  7 10  1  0  0  0
  7 13  2  0  0  0
  8 17  2  0  0  0
  8 20  1  0  0  0
  9 12  1  0  0  0
  9 30  1  0  0  0
 10 15  2  0  0  0
 10 24  1  0  0  0
 11 16  1  0  0  0
 11 31  1  0  0  0
 12 16  2  0  0  0
 12 19  1  0  0  0
 13 22  1  0  0  0
 13 32  1  0  0  0
 15 21  1  0  0  0
 15 33  1  0  0  0
 16 34  1  0  0  0
 18 26  2  0  0  0
 18 25  1  0  0  0
 19 27  1  0  0  0
 19 28  2  0  0  0
 20 35  1  0  0  0
 20 36  1  0  0  0
 21 22  2  0  0  0
 21 23  1  0  0  0
 22 37  1  0  0  0
 23 38  1  0  0  0
 24 39  1  0  0  0
 24 40  1  0  0  0
 24 41  1  0  0  0
 25 27  2  0  0  0
 25 42  1  0  0  0
 26 28  1  0  0  0
 26 43  1  0  0  0
 27 44  1  0  0  0
 28 45  1  0  0  0
M  END
> <s_m_entry_id>
28374

> <s_m_entry_name>
dock_pv.535

> <s_m_Source_Path>
/home/csk/Desktop/cluster/DUD-E-result/rock1

> <s_m_Source_File>
dock_pv.maegz

> <i_m_Source_File_Index>
535

> <chembl_id>
CHEMBL340921

> <chembl_pref_name>
None

> <i_lp_mmshare_version>
53161

> <r_lp_tautomer_probability>
1

> <s_lp_Force_Field>
OPLS_2005

> <r_lp_Energy>
31.066828

> <b_lp_Chiralities_Consistent>
1

> <s_lp_Variant>
CHEMBL3231_lig1657-1

> <s_i_glide_gridfile>
glide-grid_2etr

> <i_i_glide_lignum>
2364

> <i_i_glide_rotatable_bonds>
4

> <r_i_docking_score>
-7.32186199904882

> <r_i_glide_ligand_efficiency>
-0.261495071394601

> <r_i_glide_ligand_efficiency_sa>
-0.794053049114702

> <r_i_glide_ligand_efficiency_ln>
-1.69010072859019

> <r_i_glide_gscore>
-7.32186199904882

> <r_i_glide_lipo>
-2.18538164531542

> <r_i_glide_hbond>
-0.307222950414197

> <r_i_glide_metal>
0

> <r_i_glide_rewards>
-2.26104964681662

> <r_i_glide_evdw>
-46.2239456176758

> <r_i_glide_ecoul>
-3.01599454879761

> <r_i_glide_erotb>
0.279890571371809

> <r_i_glide_esite>
-0.0845018646709639

> <r_i_glide_emodel>
-69.193993226746

> <r_i_glide_energy>
-49.2399401664734

> <r_i_glide_einternal>
1.52083718776703

> <i_i_glide_confnum>
9

> <i_i_glide_posenum>
65

> <r_i_glide_eff_state_penalty>
0

> <s_user_duplicate_titles>
CHEMBL3231_lig1657

> <i_f3d_flags>
0

> <s_m_subgroup_title>
dock_pv

> <s_m_subgroupid>
dock_pv

> <b_m_subgroup_collapsed>
1

$$$$
CHEMBL3231_lig970 
                    3D
 Schrodinger Suite 2021-1.
 55 57  0  0  1  0            999 V2000
   50.4421   98.0408   25.9383 C   0  0  0  0  0  0
   50.0427   98.7035   24.8268 N   0  0  0  0  0  0
   50.0657  100.0584   24.8468 C   0  0  0  0  0  0
   50.4925  100.7867   25.9546 C   0  0  0  0  0  0
   50.8944  100.1050   27.1123 C   0  0  0  0  0  0
   50.8561   98.7033   27.0905 C   0  0  0  0  0  0
   51.3304  100.8380   28.3311 C   0  0  0  0  0  0
   50.7788  102.0820   28.6512 C   0  0  0  0  0  0
   51.1357  102.7355   29.8232 C   0  0  0  0  0  0
   52.0425  102.1541   30.7151 C   0  0  0  0  0  0
   52.6304  100.9259   30.3734 C   0  0  0  0  0  0
   52.2800  100.2836   29.1937 C   0  0  0  0  0  0
   52.3254  102.8244   32.0404 C   0  0  0  0  0  0
   53.3173  102.2892   32.7669 N   0  0  0  0  0  0
   51.6430  103.7734   32.4287 O   0  0  0  0  0  0
   53.6612  102.5909   34.1593 C   0  0  1  0  0  0
   53.4736  101.3779   35.0801 C   0  0  0  0  0  0
   53.2485  101.5931   36.4434 C   0  0  0  0  0  0
   53.0547  100.5175   37.3055 C   0  0  0  0  0  0
   53.0834   99.2165   36.8112 C   0  0  0  0  0  0
   53.3034   98.9668   35.4580 C   0  0  0  0  0  0
   53.4893  100.0586   34.5952 C   0  0  0  0  0  0
   53.3176   97.6409   35.0712 O   0  0  0  0  0  0
   53.6811   97.2952   33.7356 C   0  0  0  0  0  0
   55.1086  103.1222   34.2467 C   0  0  0  0  0  0
   55.3763  104.3889   33.4132 C   0  0  0  0  0  0
   54.7458  105.5034   34.0110 O   0  0  0  0  0  0
   50.4427   96.6919   25.9277 F   0  0  0  0  0  0
   53.9774   95.7891   33.6700 C   0  0  0  0  0  0
   55.2044   95.3697   34.4973 C   0  0  0  0  0  0
   49.7325  100.5664   23.9559 H   0  0  0  0  0  0
   50.5040  101.8652   25.9063 H   0  0  0  0  0  0
   51.1418   98.1196   27.9520 H   0  0  0  0  0  0
   50.0453  102.5401   28.0047 H   0  0  0  0  0  0
   50.6773  103.6880   30.0354 H   0  0  0  0  0  0
   53.3425  100.4319   31.0188 H   0  0  0  0  0  0
   52.7463   99.3368   28.9664 H   0  0  0  0  0  0
   53.9342  101.6417   32.3040 H   0  0  0  0  0  0
   52.9955  103.3723   34.5364 H   0  0  0  0  0  0
   53.2266  102.5963   36.8405 H   0  0  0  0  0  0
   52.8806  100.6863   38.3585 H   0  0  0  0  0  0
   52.9315   98.3892   37.4895 H   0  0  0  0  0  0
   53.6543   99.8834   33.5461 H   0  0  0  0  0  0
   54.5671   97.8410   33.4052 H   0  0  0  0  0  0
   52.8626   97.5475   33.0604 H   0  0  0  0  0  0
   55.3855  103.3181   35.2840 H   0  0  0  0  0  0
   55.7792  102.3333   33.9125 H   0  0  0  0  0  0
   56.4430  104.5547   33.2646 H   0  0  0  0  0  0
   54.9589  104.2819   32.4119 H   0  0  0  0  0  0
   54.3304  106.0380   33.3197 H   0  0  0  0  0  0
   54.1343   95.5032   32.6293 H   0  0  0  0  0  0
   53.1056   95.2307   34.0110 H   0  0  0  0  0  0
   55.3851   94.2979   34.4125 H   0  0  0  0  0  0
   55.0701   95.5948   35.5557 H   0  0  0  0  0  0
   56.1074   95.8813   34.1587 H   0  0  0  0  0  0
  1  2  2  0  0  0
  1  6  1  0  0  0
  1 28  1  0  0  0
  2  3  1  0  0  0
  3  4  2  0  0  0
  3 31  1  0  0  0
  4  5  1  0  0  0
  4 32  1  0  0  0
  5  6  2  0  0  0
  5  7  1  0  0  0
  6 33  1  0  0  0
  7  8  2  0  0  0
  7 12  1  0  0  0
  8  9  1  0  0  0
  8 34  1  0  0  0
  9 10  2  0  0  0
  9 35  1  0  0  0
 10 11  1  0  0  0
 10 13  1  0  0  0
 11 12  2  0  0  0
 11 36  1  0  0  0
 12 37  1  0  0  0
 13 14  1  0  0  0
 13 15  2  0  0  0
 14 16  1  0  0  0
 14 38  1  0  0  0
 16 17  1  0  0  0
 16 25  1  0  0  0
 16 39  1  0  0  0
 17 18  2  0  0  0
 17 22  1  0  0  0
 18 19  1  0  0  0
 18 40  1  0  0  0
 19 20  2  0  0  0
 19 41  1  0  0  0
 20 21  1  0  0  0
 20 42  1  0  0  0
 21 22  2  0  0  0
 21 23  1  0  0  0
 22 43  1  0  0  0
 23 24  1  0  0  0
 24 29  1  0  0  0
 24 44  1  0  0  0
 24 45  1  0  0  0
 25 26  1  0  0  0
 25 46  1  0  0  0
 25 47  1  0  0  0
 26 27  1  0  0  0
 26 48  1  0  0  0
 26 49  1  0  0  0
 27 50  1  0  0  0
 29 30  1  0  0  0
 29 51  1  0  0  0
 29 52  1  0  0  0
 30 53  1  0  0  0
 30 54  1  0  0  0
 30 55  1  0  0  0
M  END
> <s_m_entry_id>
28375

> <s_m_entry_name>
dock_pv.536

> <s_m_Source_Path>
/home/csk/Desktop/cluster/DUD-E-result/rock1

> <s_m_Source_File>
dock_pv.maegz

> <i_m_Source_File_Index>
536

> <chembl_id>
CHEMBL4590232

> <chembl_pref_name>
None

> <i_lp_mmshare_version>
53161

> <r_lp_tautomer_probability>
1

> <s_lp_Force_Field>
OPLS_2005

> <r_lp_Energy>
16.567545

> <b_lp_Chiralities_Consistent>
1

> <s_lp_Variant>
CHEMBL3231_lig970 -1

> <s_i_glide_gridfile>
glide-grid_2etr

> <i_i_glide_lignum>
1384

> <i_i_glide_rotatable_bonds>
11

> <r_i_docking_score>
-7.31861133475838

> <r_i_glide_ligand_efficiency>
-0.243953711158613

> <r_i_glide_ligand_efficiency_sa>
-0.758020900400727

> <r_i_glide_ligand_efficiency_ln>
-1.66286823791448

> <r_i_glide_gscore>
-7.31861133475838

> <r_i_glide_lipo>
-2.37886894214685

> <r_i_glide_hbond>
-0.308726948562311

> <r_i_glide_metal>
0

> <r_i_glide_rewards>
-2.28243191963701

> <r_i_glide_evdw>
-41.6101379394531

> <r_i_glide_ecoul>
-8.52361106872559

> <r_i_glide_erotb>
1.0616762442787

> <r_i_glide_esite>
-0.0512112114094133

> <r_i_glide_emodel>
-70.7621269174418

> <r_i_glide_energy>
-50.1337490081787

> <r_i_glide_einternal>
5.6343150138855

> <i_i_glide_confnum>
33

> <i_i_glide_posenum>
27

> <r_i_glide_eff_state_penalty>
0

> <s_user_duplicate_titles>
CHEMBL3231_lig970 

> <i_f3d_flags>
0

> <s_m_subgroup_title>
dock_pv

> <s_m_subgroupid>
dock_pv

> <b_m_subgroup_collapsed>
1

$$$$
CHEMBL3231_lig1207
                    3D
 Schrodinger Suite 2021-1.
 45 47  0  0  1  0            999 V2000
   52.5182   99.0097   29.2915 F   0  0  0  0  0  0
   52.0428  104.3014   32.0096 O   0  0  0  0  0  0
   48.0043  104.0537   35.6279 O   0  0  0  0  0  0
   52.4610  102.3809   33.1247 N   0  0  0  0  0  0
   50.0430   98.7031   24.8358 N   0  0  0  0  0  0
   51.2205  100.8297   28.4062 C   0  0  0  0  0  0
   51.8561  102.2855   30.7599 C   0  0  0  0  0  0
   52.0246  100.2628   29.4143 C   0  0  0  0  0  0
   50.8382  100.0839   27.1659 C   0  0  0  0  0  0
   52.1554  103.0770   32.0123 C   0  0  0  0  0  0
   52.3307  100.9766   30.5735 C   0  0  0  0  0  0
   50.7662  102.1440   28.5931 C   0  0  0  0  0  0
   51.0892  102.8627   29.7407 C   0  0  0  0  0  0
   52.7634  102.9703   34.4374 C   0  0  1  0  0  0
   51.6791  103.9019   35.0021 C   0  0  0  0  0  0
   50.6907  100.7495   25.9363 C   0  0  0  0  0  0
   50.5792   98.7043   27.1904 C   0  0  0  0  0  0
   50.3374  103.5004   35.0535 C   0  0  0  0  0  0
   49.3464  104.3595   35.5628 C   0  0  0  0  0  0
   52.0262  105.1810   35.4538 C   0  0  0  0  0  0
   50.2789  100.0365   24.8113 C   0  0  0  0  0  0
   50.2054   98.0548   26.0153 C   0  0  0  0  0  0
   49.7200  105.6264   36.0170 C   0  0  0  0  0  0
   51.0509  106.0379   35.9607 C   0  0  0  0  0  0
   53.1088  101.8635   35.4500 C   0  0  0  0  0  0
   47.5518  102.8077   35.1116 C   0  0  0  0  0  0
   52.7067  101.4100   33.0130 H   0  0  0  0  0  0
   52.9521  100.4945   31.3153 H   0  0  0  0  0  0
   50.1468  102.6204   27.8461 H   0  0  0  0  0  0
   50.7230  103.8758   29.8267 H   0  0  0  0  0  0
   53.6739  103.5596   34.2960 H   0  0  0  0  0  0
   50.8783  101.8101   25.8518 H   0  0  0  0  0  0
   50.6562   98.1345   28.1046 H   0  0  0  0  0  0
   50.0840  102.5161   34.6923 H   0  0  0  0  0  0
   53.0516  105.5216   35.4050 H   0  0  0  0  0  0
   50.1237  100.5306   23.8616 H   0  0  0  0  0  0
   50.0227   96.9906   26.0131 H   0  0  0  0  0  0
   48.9692  106.2977   36.4073 H   0  0  0  0  0  0
   51.3269  107.0274   36.3000 H   0  0  0  0  0  0
   53.4396  102.2891   36.3980 H   0  0  0  0  0  0
   52.2486  101.2237   35.6552 H   0  0  0  0  0  0
   53.9161  101.2268   35.0837 H   0  0  0  0  0  0
   46.4681  102.7601   35.2098 H   0  0  0  0  0  0
   47.7904  102.7035   34.0503 H   0  0  0  0  0  0
   47.9771  101.9661   35.6627 H   0  0  0  0  0  0
  1  8  1  0  0  0
  2 10  2  0  0  0
  3 19  1  0  0  0
  3 26  1  0  0  0
  4 10  1  0  0  0
  4 14  1  0  0  0
  4 27  1  0  0  0
  5 21  2  0  0  0
  5 22  1  0  0  0
  6  8  1  0  0  0
  6  9  1  0  0  0
  6 12  2  0  0  0
  7 10  1  0  0  0
  7 11  1  0  0  0
  7 13  2  0  0  0
  8 11  2  0  0  0
  9 16  2  0  0  0
  9 17  1  0  0  0
 11 28  1  0  0  0
 12 13  1  0  0  0
 12 29  1  0  0  0
 13 30  1  0  0  0
 14 15  1  0  0  0
 14 25  1  0  0  0
 14 31  1  0  0  0
 15 18  2  0  0  0
 15 20  1  0  0  0
 16 21  1  0  0  0
 16 32  1  0  0  0
 17 22  2  0  0  0
 17 33  1  0  0  0
 18 19  1  0  0  0
 18 34  1  0  0  0
 19 23  2  0  0  0
 20 24  2  0  0  0
 20 35  1  0  0  0
 21 36  1  0  0  0
 22 37  1  0  0  0
 23 24  1  0  0  0
 23 38  1  0  0  0
 24 39  1  0  0  0
 25 40  1  0  0  0
 25 41  1  0  0  0
 25 42  1  0  0  0
 26 43  1  0  0  0
 26 44  1  0  0  0
 26 45  1  0  0  0
M  END
> <s_m_entry_id>
28377

> <s_m_entry_name>
dock_pv.538

> <s_m_Source_Path>
/home/csk/Desktop/cluster/DUD-E-result/rock1

> <s_m_Source_File>
dock_pv.maegz

> <i_m_Source_File_Index>
538

> <chembl_id>
CHEMBL2004934

> <chembl_pref_name>
None

> <i_lp_mmshare_version>
53161

> <r_lp_tautomer_probability>
1

> <s_lp_Force_Field>
OPLS_2005

> <r_lp_Energy>
17.178473

> <b_lp_Chiralities_Consistent>
1

> <s_lp_Variant>
CHEMBL3231_lig1207-2

> <s_i_glide_gridfile>
glide-grid_2etr

> <i_i_glide_lignum>
1675

> <i_i_glide_rotatable_bonds>
6

> <r_i_docking_score>
-7.31739642063634

> <r_i_glide_ligand_efficiency>
-0.281438323870628

> <r_i_glide_ligand_efficiency_sa>
-0.833759927060407

> <r_i_glide_ligand_efficiency_ln>
-1.71846653905042

> <r_i_glide_gscore>
-7.31739642063634

> <r_i_glide_lipo>
-2.78640165418499

> <r_i_glide_hbond>
-0.255373653337715

> <r_i_glide_metal>
0

> <r_i_glide_rewards>
-2.51461824827368

> <r_i_glide_evdw>
-42.0273933410645

> <r_i_glide_ecoul>
-2.50336694717407

> <r_i_glide_erotb>
0.776254448547296

> <r_i_glide_esite>
-0.0603826042579163

> <r_i_glide_emodel>
-64.1710609983015

> <r_i_glide_energy>
-44.5307602882385

> <r_i_glide_einternal>
1.16271471977234

> <i_i_glide_confnum>
16

> <i_i_glide_posenum>
103

> <r_i_glide_eff_state_penalty>
0

> <s_user_duplicate_titles>
CHEMBL3231_lig1207

> <i_f3d_flags>
0

> <s_m_subgroup_title>
dock_pv

> <s_m_subgroupid>
dock_pv

> <b_m_subgroup_collapsed>
1

$$$$
CHEMBL3231_lig521
                    3D
 Schrodinger Suite 2021-1.
 62 66  0  0  1  0            999 V2000
   53.5290  101.3173   33.5437 C   0  0  2  0  0  0
   53.3664  101.6423   32.0214 C   0  0  0  0  0  0
   54.0075  102.7580   31.5545 C   0  0  0  0  0  0
   54.8225  103.5031   32.3504 N   0  0  0  0  0  0
   55.1177  103.2722   33.6448 C   0  0  0  0  0  0
   54.6703  102.0805   34.1067 N   0  0  0  0  0  0
   55.6429  104.1084   34.3756 O   0  0  0  0  0  0
   53.9441  103.3607   30.1483 C   0  0  0  0  0  0
   52.4247  100.8129   31.2508 C   0  0  0  0  0  0
   52.4715  100.9503   29.9120 N   0  0  0  0  0  0
   51.6433  100.0303   31.7953 O   0  0  0  0  0  0
   51.7494  100.2548   28.9356 C   0  0  0  0  0  0
   51.2217  101.0050   27.8850 C   0  0  0  0  0  0
   51.0813   98.1727   27.8702 C   0  0  0  0  0  0
   51.6509   98.8598   28.9425 C   0  0  0  0  0  0
   50.5844   98.9054   26.7824 C   0  0  0  0  0  0
   50.6214  100.3316   26.8119 C   0  0  0  0  0  0
   49.9675  100.7117   25.6200 C   0  0  0  0  0  0
   49.6641   99.5404   24.9764 N   0  0  0  0  0  0
   50.0405   98.4225   25.6211 N   0  0  0  0  0  0
   53.5628   99.8549   34.0055 C   0  0  0  0  0  0
   54.1632   98.8655   33.2195 C   0  0  0  0  0  0
   54.2027   97.5291   33.6362 C   0  0  0  0  0  0
   53.6431   97.1937   34.8829 C   0  0  0  0  0  0
   53.0536   98.1787   35.6744 C   0  0  0  0  0  0
   52.9984   99.4987   35.2325 C   0  0  0  0  0  0
   53.6435   95.9191   35.3435 F   0  0  0  0  0  0
   54.8660   96.5150   32.7376 C   0  0  0  0  0  0
   55.5329   95.5372   33.3685 N   0  0  0  0  0  0
   54.8469   96.6470   31.5136 O   0  0  0  0  0  0
   56.6395   94.7557   32.8167 C   0  0  0  0  0  0
   58.0346   95.1443   33.3785 C   0  0  0  0  0  0
   58.0444   96.0437   34.6188 C   0  0  0  0  0  0
   58.0367   97.3838   34.3958 N   0  0  0  0  0  0
   58.0421   98.2147   35.4666 C   0  0  0  0  0  0
   58.0526   97.7490   36.7824 C   0  0  0  0  0  0
   58.0564   96.3689   37.0004 C   0  0  0  0  0  0
   58.0527   95.5009   35.9066 C   0  0  0  0  0  0
   52.6451  101.7605   34.0096 H   0  0  0  0  0  0
   55.2632  104.3331   31.9669 H   0  0  0  0  0  0
   54.9726  101.8361   35.0369 H   0  0  0  0  0  0
   52.9150  103.5288   29.8316 H   0  0  0  0  0  0
   54.4411  104.3271   30.0709 H   0  0  0  0  0  0
   54.4430  102.7070   29.4329 H   0  0  0  0  0  0
   53.0578  101.6955   29.5705 H   0  0  0  0  0  0
   51.2861  102.0836   27.8862 H   0  0  0  0  0  0
   51.0492   97.0980   27.8720 H   0  0  0  0  0  0
   52.0743   98.2938   29.7616 H   0  0  0  0  0  0
   49.6917  101.6677   25.2110 H   0  0  0  0  0  0
   49.2014   99.5030   24.0766 H   0  0  0  0  0  0
   54.6172   99.1465   32.2793 H   0  0  0  0  0  0
   52.6381   97.9172   36.6354 H   0  0  0  0  0  0
   52.5394  100.2476   35.8600 H   0  0  0  0  0  0
   55.3477   95.4052   34.3524 H   0  0  0  0  0  0
   56.6853   94.8765   31.7317 H   0  0  0  0  0  0
   56.4613   93.6864   32.9183 H   0  0  0  0  0  0
   58.6182   95.6247   32.5943 H   0  0  0  0  0  0
   58.5972   94.2360   33.5984 H   0  0  0  0  0  0
   58.0426   99.2736   35.2527 H   0  0  0  0  0  0
   58.0593   98.4406   37.6127 H   0  0  0  0  0  0
   58.0629   95.9742   38.0058 H   0  0  0  0  0  0
   58.0479   94.4289   36.0504 H   0  0  0  0  0  0
  1  2  1  0  0  0
  1  6  1  0  0  0
  1 21  1  0  0  0
  1 39  1  0  0  0
  2  3  2  0  0  0
  2  9  1  0  0  0
  3  4  1  0  0  0
  3  8  1  0  0  0
  4  5  1  0  0  0
  4 40  1  0  0  0
  5  6  1  0  0  0
  5  7  2  0  0  0
  6 41  1  0  0  0
  8 42  1  0  0  0
  8 43  1  0  0  0
  8 44  1  0  0  0
  9 10  1  0  0  0
  9 11  2  0  0  0
 10 45  1  0  0  0
 10 12  1  0  0  0
 12 15  1  0  0  0
 12 13  2  0  0  0
 13 46  1  0  0  0
 13 17  1  0  0  0
 14 16  1  0  0  0
 14 47  1  0  0  0
 14 15  2  0  0  0
 15 48  1  0  0  0
 16 20  2  0  0  0
 16 17  1  0  0  0
 17 18  2  0  0  0
 18 19  1  0  0  0
 18 49  1  0  0  0
 19 50  1  0  0  0
 19 20  1  0  0  0
 21 22  2  0  0  0
 21 26  1  0  0  0
 22 23  1  0  0  0
 22 51  1  0  0  0
 23 24  2  0  0  0
 23 28  1  0  0  0
 24 25  1  0  0  0
 24 27  1  0  0  0
 25 26  2  0  0  0
 25 52  1  0  0  0
 26 53  1  0  0  0
 28 29  1  0  0  0
 28 30  2  0  0  0
 29 31  1  0  0  0
 29 54  1  0  0  0
 31 32  1  0  0  0
 31 55  1  0  0  0
 31 56  1  0  0  0
 32 33  1  0  0  0
 32 57  1  0  0  0
 32 58  1  0  0  0
 33 34  2  0  0  0
 33 38  1  0  0  0
 34 35  1  0  0  0
 35 36  2  0  0  0
 35 59  1  0  0  0
 36 37  1  0  0  0
 36 60  1  0  0  0
 37 38  2  0  0  0
 37 61  1  0  0  0
 38 62  1  0  0  0
M  END
> <s_m_entry_id>
28379

> <s_m_entry_name>
dock_pv.540

> <s_m_Source_Path>
/home/csk/Desktop/cluster/DUD-E-result/rock1

> <s_m_Source_File>
dock_pv.maegz

> <i_m_Source_File_Index>
540

> <chembl_id>
CHEMBL3810107

> <chembl_pref_name>
None

> <i_lp_mmshare_version>
53161

> <r_lp_tautomer_probability>
0.019607843137214

> <s_lp_Force_Field>
OPLS_2005

> <r_lp_Energy>
57.53035

> <b_lp_Chiralities_Consistent>
1

> <s_lp_Variant>
CHEMBL3231_lig521-3

> <s_i_glide_gridfile>
glide-grid_2etr

> <i_i_glide_lignum>
763

> <i_i_glide_rotatable_bonds>
9

> <r_i_docking_score>
-7.31368050826778

> <r_i_glide_ligand_efficiency>
-0.192465276533363

> <r_i_glide_ligand_efficiency_sa>
-0.647063525583344

> <r_i_glide_ligand_efficiency_ln>
-1.57704466426545

> <r_i_glide_gscore>
-7.31368050826778

> <r_i_glide_lipo>
-2.11040848603472

> <r_i_glide_hbond>
-0.588639208236026

> <r_i_glide_metal>
0

> <r_i_glide_rewards>
-0.938786485133049

> <r_i_glide_evdw>
-56.6036529541016

> <r_i_glide_ecoul>
-9.30663776397705

> <r_i_glide_erotb>
0.622107419055703

> <r_i_glide_esite>
-0.071775435618054

> <r_i_glide_emodel>
-87.7250806381085

> <r_i_glide_energy>
-65.9102907180786

> <r_i_glide_einternal>
12.6551456451416

> <i_i_glide_confnum>
6

> <i_i_glide_posenum>
63

> <r_i_glide_eff_state_penalty>
0

> <s_user_duplicate_titles>
CHEMBL3231_lig521

> <i_f3d_flags>
0

> <s_m_subgroup_title>
dock_pv

> <s_m_subgroupid>
dock_pv

> <b_m_subgroup_collapsed>
1

$$$$
CHEMBL3231_lig879
                    3D
 Schrodinger Suite 2021-1.
 40 43  0  0  1  0            999 V2000
   53.3613  100.2071   30.9494 N   0  0  0  0  0  0
   53.6582  101.0117   31.9198 C   0  0  0  0  0  0
   53.0655  102.2566   32.0006 N   0  0  0  0  0  0
   52.1415  102.8091   31.1578 C   0  0  0  0  0  0
   52.4820  100.6509   30.0003 C   0  0  0  0  0  0
   51.8809  101.9080   30.0495 C   0  0  0  0  0  0
   50.8343  102.2031   28.7035 S   0  0  0  0  0  0
   51.1838  100.6238   28.0471 C   0  0  0  0  0  0
   52.0762   99.9343   28.8742 C   0  0  0  0  0  0
   50.5839  100.1705   26.7929 C   0  0  0  0  0  0
   50.0701  100.9430   25.7609 C   0  0  0  0  0  0
   49.6438  100.0594   24.8109 N   0  0  0  0  0  0
   49.8561   98.7916   25.1553 N   0  0  0  0  0  0
   50.3990   98.8437   26.3506 C   0  0  0  0  0  0
   51.6430  103.9028   31.3878 O   0  0  0  0  0  0
   50.7470   97.5574   27.0502 C   0  0  0  0  0  0
   54.6464  100.6583   33.0329 C   0  0  0  0  0  0
   55.6154   99.4864   32.7174 C   0  0  0  0  0  0
   56.7754   99.3929   33.7365 C   0  0  0  0  0  0
   56.5763   98.0801   34.4987 C   0  0  0  0  0  0
   55.9010   97.1608   33.4860 C   0  0  0  0  0  0
   54.9544   98.0868   32.7165 C   0  0  0  0  0  0
   53.3265  102.8536   32.7692 H   0  0  0  0  0  0
   52.4424   98.9415   28.6770 H   0  0  0  0  0  0
   49.9748  102.0097   25.6222 H   0  0  0  0  0  0
   49.2293  100.3027   23.9160 H   0  0  0  0  0  0
   51.8227   97.5031   27.1953 H   0  0  0  0  0  0
   50.2849   97.5027   28.0365 H   0  0  0  0  0  0
   50.4417   96.6696   26.4934 H   0  0  0  0  0  0
   54.1007  100.4444   33.9522 H   0  0  0  0  0  0
   55.2435  101.5451   33.2465 H   0  0  0  0  0  0
   56.0482   99.6618   31.7294 H   0  0  0  0  0  0
   56.8189  100.2373   34.4263 H   0  0  0  0  0  0
   57.7321   99.3814   33.2111 H   0  0  0  0  0  0
   55.9235   98.2383   35.3595 H   0  0  0  0  0  0
   57.5192   97.6702   34.8654 H   0  0  0  0  0  0
   55.3789   96.3306   33.9621 H   0  0  0  0  0  0
   56.6473   96.7344   32.8113 H   0  0  0  0  0  0
   54.8005   97.7203   31.6993 H   0  0  0  0  0  0
   53.9754   98.1107   33.1970 H   0  0  0  0  0  0
  1  5  1  0  0  0
  1  2  2  0  0  0
  2  3  1  0  0  0
  2 17  1  0  0  0
  3  4  1  0  0  0
  3 23  1  0  0  0
  4  6  1  0  0  0
  4 15  2  0  0  0
  5  6  2  0  0  0
  5  9  1  0  0  0
  6  7  1  0  0  0
  7  8  1  0  0  0
  8  9  2  0  0  0
  8 10  1  0  0  0
  9 24  1  0  0  0
 10 11  2  0  0  0
 10 14  1  0  0  0
 11 12  1  0  0  0
 11 25  1  0  0  0
 12 13  1  0  0  0
 12 26  1  0  0  0
 13 14  2  0  0  0
 14 16  1  0  0  0
 16 27  1  0  0  0
 16 28  1  0  0  0
 16 29  1  0  0  0
 17 18  1  0  0  0
 17 30  1  0  0  0
 17 31  1  0  0  0
 18 19  1  0  0  0
 18 22  1  0  0  0
 18 32  1  0  0  0
 19 20  1  0  0  0
 19 33  1  0  0  0
 19 34  1  0  0  0
 20 21  1  0  0  0
 20 35  1  0  0  0
 20 36  1  0  0  0
 21 22  1  0  0  0
 21 37  1  0  0  0
 21 38  1  0  0  0
 22 39  1  0  0  0
 22 40  1  0  0  0
M  END
> <s_m_entry_id>
28380

> <s_m_entry_name>
dock_pv.541

> <s_m_Source_Path>
/home/csk/Desktop/cluster/DUD-E-result/rock1

> <s_m_Source_File>
dock_pv.maegz

> <i_m_Source_File_Index>
541

> <chembl_id>
CHEMBL4080673

> <chembl_pref_name>
None

> <i_lp_mmshare_version>
53161

> <r_lp_tautomer_probability>
0.5

> <s_lp_Force_Field>
OPLS_2005

> <r_lp_Energy>
35.623717

> <b_lp_Chiralities_Consistent>
1

> <s_lp_Variant>
CHEMBL3231_lig879-1

> <s_i_glide_gridfile>
glide-grid_2etr

> <i_i_glide_lignum>
1246

> <i_i_glide_rotatable_bonds>
3

> <r_i_docking_score>
-7.30952905245013

> <r_i_glide_ligand_efficiency>
-0.332251320565915

> <r_i_glide_ligand_efficiency_sa>
-0.93098126692865

> <r_i_glide_ligand_efficiency_ln>
-1.78671552196917

> <r_i_glide_gscore>
-7.30952905245013

> <r_i_glide_lipo>
-1.95707613459929

> <r_i_glide_hbond>
-0.48

> <r_i_glide_metal>
0

> <r_i_glide_rewards>
-2.50207812121212

> <r_i_glide_evdw>
-36.3457145690918

> <r_i_glide_ecoul>
-7.13901376724243

> <r_i_glide_erotb>
0.564117667611538

> <r_i_glide_esite>
-0.0463546707093006

> <r_i_glide_emodel>
-62.8420355525114

> <r_i_glide_energy>
-43.4847283363342

> <r_i_glide_einternal>
0.136754900217056

> <i_i_glide_confnum>
60

> <i_i_glide_posenum>
321

> <r_i_glide_eff_state_penalty>
0

> <s_user_duplicate_titles>
CHEMBL3231_lig879

> <i_f3d_flags>
0

> <s_m_subgroup_title>
dock_pv

> <s_m_subgroupid>
dock_pv

> <b_m_subgroup_collapsed>
1

$$$$
CHEMBL3231_lig876
                    3D
 Schrodinger Suite 2021-1.
 39 42  0  0  1  0            999 V2000
   53.1989  100.1202   31.1714 N   0  0  0  0  0  0
   53.4486  100.9064   32.1710 C   0  0  0  0  0  0
   52.9324  102.1888   32.1949 N   0  0  0  0  0  0
   52.0898  102.7769   31.2928 C   0  0  0  0  0  0
   52.3997  100.5943   30.1691 C   0  0  0  0  0  0
   51.8370  101.8700   30.1849 C   0  0  0  0  0  0
   50.8429  102.1808   28.8023 S   0  0  0  0  0  0
   51.2055  100.6013   28.1485 C   0  0  0  0  0  0
   52.0448   99.8932   29.0161 C   0  0  0  0  0  0
   50.6692  100.1628   26.8557 C   0  0  0  0  0  0
   50.2048  100.9433   25.8086 C   0  0  0  0  0  0
   49.8409  100.0778   24.8115 N   0  0  0  0  0  0
   50.0397   98.8032   25.1501 N   0  0  0  0  0  0
   50.5134   98.8442   26.3773 C   0  0  0  0  0  0
   51.6431  103.9026   31.4772 O   0  0  0  0  0  0
   50.8394   97.5549   27.0757 C   0  0  0  0  0  0
   54.3306  100.5143   33.3618 C   0  0  0  0  0  0
   54.4881   99.0742   33.6129 N   0  0  0  0  0  0
   54.9537   98.7829   34.9648 C   0  0  0  0  0  0
   55.4284   97.3289   34.9321 C   0  0  0  0  0  0
   55.7920   97.0988   33.4632 C   0  0  0  0  0  0
   55.5404   98.4585   32.8108 C   0  0  0  0  0  0
   53.1781  102.7870   32.9682 H   0  0  0  0  0  0
   52.4113   98.8966   28.8335 H   0  0  0  0  0  0
   50.1072  102.0086   25.6916 H   0  0  0  0  0  0
   49.4516  100.3344   23.9102 H   0  0  0  0  0  0
   51.9154   97.5044   27.2159 H   0  0  0  0  0  0
   50.3763   97.5031   28.0624 H   0  0  0  0  0  0
   50.5190   96.6710   26.5209 H   0  0  0  0  0  0
   55.3141  100.9767   33.2616 H   0  0  0  0  0  0
   53.9083  100.9622   34.2640 H   0  0  0  0  0  0
   55.7342   99.4744   35.2929 H   0  0  0  0  0  0
   54.1257   98.9366   35.6607 H   0  0  0  0  0  0
   56.2847   97.1816   35.5890 H   0  0  0  0  0  0
   54.6381   96.6524   35.2601 H   0  0  0  0  0  0
   55.1683   96.3288   33.0048 H   0  0  0  0  0  0
   56.8329   96.7925   33.3367 H   0  0  0  0  0  0
   55.2063   98.3651   31.7756 H   0  0  0  0  0  0
   56.4402   99.0782   32.7691 H   0  0  0  0  0  0
  1  5  1  0  0  0
  1  2  2  0  0  0
  2  3  1  0  0  0
  2 17  1  0  0  0
  3  4  1  0  0  0
  3 23  1  0  0  0
  4  6  1  0  0  0
  4 15  2  0  0  0
  5  6  2  0  0  0
  5  9  1  0  0  0
  6  7  1  0  0  0
  7  8  1  0  0  0
  8  9  2  0  0  0
  8 10  1  0  0  0
  9 24  1  0  0  0
 10 11  2  0  0  0
 10 14  1  0  0  0
 11 12  1  0  0  0
 11 25  1  0  0  0
 12 13  1  0  0  0
 12 26  1  0  0  0
 13 14  2  0  0  0
 14 16  1  0  0  0
 16 27  1  0  0  0
 16 28  1  0  0  0
 16 29  1  0  0  0
 17 18  1  0  0  0
 17 30  1  0  0  0
 17 31  1  0  0  0
 18 19  1  0  0  0
 18 22  1  0  0  0
 19 20  1  0  0  0
 19 32  1  0  0  0
 19 33  1  0  0  0
 20 21  1  0  0  0
 20 34  1  0  0  0
 20 35  1  0  0  0
 21 22  1  0  0  0
 21 36  1  0  0  0
 21 37  1  0  0  0
 22 38  1  0  0  0
 22 39  1  0  0  0
M  END
> <s_m_entry_id>
28381

> <s_m_entry_name>
dock_pv.542

> <s_m_Source_Path>
/home/csk/Desktop/cluster/DUD-E-result/rock1

> <s_m_Source_File>
dock_pv.maegz

> <i_m_Source_File_Index>
542

> <chembl_id>
CHEMBL4083927

> <chembl_pref_name>
None

> <i_lp_mmshare_version>
53161

> <r_lp_tautomer_probability>
0.5

> <s_lp_Force_Field>
OPLS_2005

> <r_lp_Energy>
38.354145

> <b_lp_Chiralities_Consistent>
1

> <s_lp_Variant>
CHEMBL3231_lig876-1

> <s_i_glide_gridfile>
glide-grid_2etr

> <i_i_glide_lignum>
1240

> <i_i_glide_rotatable_bonds>
3

> <r_i_docking_score>
-7.30925628466723

> <r_i_glide_ligand_efficiency>
-0.332238922030329

> <r_i_glide_ligand_efficiency_sa>
-0.930946525744331

> <r_i_glide_ligand_efficiency_ln>
-1.78664884757358

> <r_i_glide_gscore>
-7.30925628466723

> <r_i_glide_lipo>
-1.95129140359211

> <r_i_glide_hbond>
-0.496902881121654

> <r_i_glide_metal>
0

> <r_i_glide_rewards>
-2.50367468181818

> <r_i_glide_evdw>
-34.7576904296875

> <r_i_glide_ecoul>
-6.49457454681396

> <r_i_glide_erotb>
0.392708961795559

> <r_i_glide_esite>
-0.0380255764243783

> <r_i_glide_emodel>
-59.7405738821937

> <r_i_glide_energy>
-41.2522649765015

> <r_i_glide_einternal>
0.111669011414051

> <i_i_glide_confnum>
22

> <i_i_glide_posenum>
317

> <r_i_glide_eff_state_penalty>
0

> <s_user_duplicate_titles>
CHEMBL3231_lig876

> <i_f3d_flags>
0

> <s_m_subgroup_title>
dock_pv

> <s_m_subgroupid>
dock_pv

> <b_m_subgroup_collapsed>
1

$$$$
CHEMBL3231_lig1799
                    3D
 Schrodinger Suite 2021-1.
 48 50  0  0  1  0            999 V2000
   51.6431  103.9030   32.0187 O   0  0  0  0  0  0
   50.8117  105.5684   36.3883 O   0  0  0  0  0  0
   53.7544  103.1039   32.1012 N   0  0  0  0  0  0
   50.0433   97.9032   25.2111 N   0  0  0  0  0  0
   51.4146  100.5043   28.3581 C   0  0  0  0  0  0
   50.9950   99.6101   27.2405 C   0  0  0  0  0  0
   52.1788  102.2243   30.4435 C   0  0  0  0  0  0
   52.5108  103.1446   31.5888 C   0  0  0  0  0  0
   50.7204  100.0943   25.9446 C   0  0  0  0  0  0
   53.3522  103.7212   34.4974 C   0  0  0  0  0  0
   50.7510  101.7160   28.5629 C   0  0  0  0  0  0
   52.4514  100.1499   29.2277 C   0  0  0  0  0  0
   54.1967  103.9325   33.2324 C   0  0  1  0  0  0
   51.1346  102.5727   29.5814 C   0  0  0  0  0  0
   52.8408  101.0027   30.2583 C   0  0  0  0  0  0
   50.8434   98.2344   27.4627 C   0  0  0  0  0  0
   52.4968  104.7325   34.9500 C   0  0  0  0  0  0
   51.6602  104.5324   36.0509 C   0  0  0  0  0  0
   50.2065   99.2229   24.9880 C   0  0  0  0  0  0
   53.3954  102.5051   35.1889 C   0  0  0  0  0  0
   50.4032   97.4227   26.4183 C   0  0  0  0  0  0
   51.7178  103.3033   36.7290 C   0  0  0  0  0  0
   52.5838  102.2991   36.3023 C   0  0  0  0  0  0
   51.0415  101.5029   25.5045 C   0  0  0  0  0  0
   55.6915  103.7248   33.5049 C   0  0  0  0  0  0
   49.8678  105.3751   37.4349 C   0  0  0  0  0  0
   54.4783  102.6579   31.5578 H   0  0  0  0  0  0
   49.9300  102.0016   27.9234 H   0  0  0  0  0  0
   52.9680   99.2096   29.1077 H   0  0  0  0  0  0
   54.0890  104.9740   32.9138 H   0  0  0  0  0  0
   50.5999  103.5042   29.6994 H   0  0  0  0  0  0
   53.6425  100.6943   30.9147 H   0  0  0  0  0  0
   51.0691   97.7941   28.4246 H   0  0  0  0  0  0
   52.4466  105.6734   34.4183 H   0  0  0  0  0  0
   49.9666   99.5687   23.9945 H   0  0  0  0  0  0
   54.0432  101.7087   34.8523 H   0  0  0  0  0  0
   50.3307   96.3522   26.5266 H   0  0  0  0  0  0
   51.0925  103.1100   37.5852 H   0  0  0  0  0  0
   52.6183  101.3540   36.8257 H   0  0  0  0  0  0
   51.3504  101.5015   24.4610 H   0  0  0  0  0  0
   50.1775  102.1590   25.6132 H   0  0  0  0  0  0
   51.8853  101.9000   26.0616 H   0  0  0  0  0  0
   56.0432  104.4142   34.2706 H   0  0  0  0  0  0
   55.9043  102.7126   33.8492 H   0  0  0  0  0  0
   56.2852  103.9035   32.6070 H   0  0  0  0  0  0
   49.2992  106.2933   37.5717 H   0  0  0  0  0  0
   49.1603  104.5790   37.1945 H   0  0  0  0  0  0
   50.3582  105.1428   38.3817 H   0  0  0  0  0  0
  1  8  2  0  0  0
  2 18  1  0  0  0
  2 26  1  0  0  0
  3  8  1  0  0  0
  3 13  1  0  0  0
  3 27  1  0  0  0
  4 19  1  0  0  0
  4 21  2  0  0  0
  5  6  1  0  0  0
  5 11  2  0  0  0
  5 12  1  0  0  0
  6  9  1  0  0  0
  6 16  2  0  0  0
  7  8  1  0  0  0
  7 14  2  0  0  0
  7 15  1  0  0  0
  9 19  2  0  0  0
  9 24  1  0  0  0
 10 13  1  0  0  0
 10 17  2  0  0  0
 10 20  1  0  0  0
 11 14  1  0  0  0
 11 28  1  0  0  0
 12 15  2  0  0  0
 12 29  1  0  0  0
 13 25  1  0  0  0
 13 30  1  0  0  0
 14 31  1  0  0  0
 15 32  1  0  0  0
 16 21  1  0  0  0
 16 33  1  0  0  0
 17 18  1  0  0  0
 17 34  1  0  0  0
 18 22  2  0  0  0
 19 35  1  0  0  0
 20 23  2  0  0  0
 20 36  1  0  0  0
 21 37  1  0  0  0
 22 23  1  0  0  0
 22 38  1  0  0  0
 23 39  1  0  0  0
 24 40  1  0  0  0
 24 41  1  0  0  0
 24 42  1  0  0  0
 25 43  1  0  0  0
 25 44  1  0  0  0
 25 45  1  0  0  0
 26 46  1  0  0  0
 26 47  1  0  0  0
 26 48  1  0  0  0
M  END
> <s_m_entry_id>
28382

> <s_m_entry_name>
dock_pv.543

> <s_m_Source_Path>
/home/csk/Desktop/cluster/DUD-E-result/rock1

> <s_m_Source_File>
dock_pv.maegz

> <i_m_Source_File_Index>
543

> <chembl_id>
CHEMBL1970217

> <chembl_pref_name>
None

> <i_lp_mmshare_version>
53161

> <r_lp_tautomer_probability>
1

> <s_lp_Force_Field>
OPLS_2005

> <r_lp_Energy>
17.893628

> <b_lp_Chiralities_Consistent>
1

> <s_lp_Variant>
CHEMBL3231_lig1799-2

> <s_i_glide_gridfile>
glide-grid_2etr

> <i_i_glide_lignum>
2577

> <i_i_glide_rotatable_bonds>
6

> <r_i_docking_score>
-7.30600917809253

> <r_i_glide_ligand_efficiency>
-0.281000353003559

> <r_i_glide_ligand_efficiency_sa>
-0.832462440090045

> <r_i_glide_ligand_efficiency_ln>
-1.71579228250359

> <r_i_glide_gscore>
-7.30600917809253

> <r_i_glide_lipo>
-2.40940310050245

> <r_i_glide_hbond>
-0.447246266724783

> <r_i_glide_metal>
0

> <r_i_glide_rewards>
-2.48009669438895

> <r_i_glide_evdw>
-36.5609092712402

> <r_i_glide_ecoul>
-5.70289850234985

> <r_i_glide_erotb>
0.792108022378983

> <r_i_glide_esite>
-0.0778908999408396

> <r_i_glide_emodel>
-58.8320707172097

> <r_i_glide_energy>
-42.2638077735901

> <r_i_glide_einternal>
5.20210218429565

> <i_i_glide_confnum>
2

> <i_i_glide_posenum>
355

> <r_i_glide_eff_state_penalty>
0

> <s_user_duplicate_titles>
CHEMBL3231_lig1799

> <i_f3d_flags>
0

> <s_m_subgroup_title>
dock_pv

> <s_m_subgroupid>
dock_pv

> <b_m_subgroup_collapsed>
1

$$$$
CHEMBL3231_lig229
                    3D
 Schrodinger Suite 2021-1.
 63 66  0  0  1  0            999 V2000
   52.4889  102.7570   35.0362 N   0  0  2  0  0  0
   52.2744  102.7635   32.5124 C   0  0  0  0  0  0
   53.1248  103.1691   33.7546 C   0  0  1  0  0  0
   51.1996  100.4825   28.0469 C   0  0  0  0  0  0
   52.9019  102.0101   31.5866 N   0  0  0  0  0  0
   52.3207  101.5182   30.4122 C   0  0  0  0  0  0
   50.6355   99.8950   26.7892 C   0  0  0  0  0  0
   51.0985  101.8514   28.3497 C   0  0  0  0  0  0
   51.8567   99.6443   28.9575 C   0  0  0  0  0  0
   51.6667  102.3656   29.5147 C   0  0  0  0  0  0
   53.2774  104.7165   33.7181 C   0  0  0  0  0  0
   50.0436   98.3567   25.2111 N   0  0  0  0  0  0
   53.4005  103.0907   36.1485 C   0  0  0  0  0  0
   52.4193  100.1513   30.1323 C   0  0  0  0  0  0
   49.7054   99.5810   24.8108 N   0  0  0  0  0  0
   53.9177  105.2880   34.9754 C   0  0  0  0  0  0
   53.9101  104.5324   36.1622 C   0  0  0  0  0  0
   50.0429  100.5462   25.7139 C   0  0  0  0  0  0
   51.0923  103.1075   32.4116 O   0  0  0  0  0  0
   50.5928   98.5438   26.3886 C   0  0  0  0  0  0
   50.4431  102.7068   27.5354 F   0  0  0  0  0  0
   52.9735   99.3065   31.0666 O   0  0  0  0  0  0
   52.1213  101.3264   35.0951 C   0  0  0  0  0  0
   54.2947   97.5133   32.9610 N   0  0  0  0  0  0
   54.1116   98.5424   30.6710 C   0  0  0  0  0  0
   54.4512  106.5801   34.9892 C   0  0  0  0  0  0
   54.4205  105.1042   37.3333 C   0  0  0  0  0  0
   54.1384   97.2531   31.5222 C   0  0  0  0  0  0
   53.9338   96.3272   33.7338 C   0  0  0  0  0  0
   55.6708   97.8958   33.2795 C   0  0  0  0  0  0
   51.4414  100.8948   36.4076 C   0  0  0  0  0  0
   54.9279  106.4014   37.3402 C   0  0  0  0  0  0
   54.9458  107.1422   36.1626 C   0  0  0  0  0  0
   54.0958  102.6785   33.6587 H   0  0  0  0  0  0
   53.8100  101.6345   31.8120 H   0  0  0  0  0  0
   51.9269   98.5850   28.7746 H   0  0  0  0  0  0
   51.5933  103.4232   29.7183 H   0  0  0  0  0  0
   52.2919  105.1794   33.6572 H   0  0  0  0  0  0
   53.8295  105.0504   32.8361 H   0  0  0  0  0  0
   54.2568  102.4157   36.1625 H   0  0  0  0  0  0
   52.8617  102.9402   37.0837 H   0  0  0  0  0  0
   49.2605   99.7542   23.9096 H   0  0  0  0  0  0
   49.8324  101.5857   25.5153 H   0  0  0  0  0  0
   50.9643   97.7008   26.9553 H   0  0  0  0  0  0
   51.4030  101.1099   34.3029 H   0  0  0  0  0  0
   52.9930  100.6982   34.9014 H   0  0  0  0  0  0
   54.0826   98.2767   29.6127 H   0  0  0  0  0  0
   55.0163   99.1365   30.8023 H   0  0  0  0  0  0
   54.4430  107.1712   34.0822 H   0  0  0  0  0  0
   54.4238  104.5350   38.2530 H   0  0  0  0  0  0
   53.1952   96.7289   31.3527 H   0  0  0  0  0  0
   54.9258   96.5854   31.1637 H   0  0  0  0  0  0
   54.0956   96.4942   34.7995 H   0  0  0  0  0  0
   52.8737   96.0931   33.6087 H   0  0  0  0  0  0
   54.5167   95.4548   33.4345 H   0  0  0  0  0  0
   55.7831   98.0765   34.3506 H   0  0  0  0  0  0
   56.3831   97.1188   32.9960 H   0  0  0  0  0  0
   55.9630   98.8164   32.7756 H   0  0  0  0  0  0
   50.9986   99.9048   36.2942 H   0  0  0  0  0  0
   52.1531  100.8306   37.2300 H   0  0  0  0  0  0
   50.6437  101.5810   36.6985 H   0  0  0  0  0  0
   55.3080  106.8318   38.2557 H   0  0  0  0  0  0
   55.3356  108.1515   36.1558 H   0  0  0  0  0  0
  1  3  1  0  0  0
  1 13  1  0  0  0
  1 23  1  0  0  0
  2  3  1  0  0  0
  2  5  1  0  0  0
  2 19  2  0  0  0
  3 11  1  0  0  0
  3 34  1  0  0  0
  4  8  1  0  0  0
  4  7  1  0  0  0
  4  9  2  0  0  0
  5  6  1  0  0  0
  5 35  1  0  0  0
  6 10  1  0  0  0
  6 14  2  0  0  0
  7 18  2  0  0  0
  7 20  1  0  0  0
  8 10  2  0  0  0
  8 21  1  0  0  0
  9 14  1  0  0  0
  9 36  1  0  0  0
 10 37  1  0  0  0
 11 16  1  0  0  0
 11 38  1  0  0  0
 11 39  1  0  0  0
 12 20  2  0  0  0
 12 15  1  0  0  0
 13 17  1  0  0  0
 13 40  1  0  0  0
 13 41  1  0  0  0
 14 22  1  0  0  0
 15 18  1  0  0  0
 15 42  1  0  0  0
 16 17  2  0  0  0
 16 26  1  0  0  0
 17 27  1  0  0  0
 18 43  1  0  0  0
 20 44  1  0  0  0
 22 25  1  0  0  0
 23 31  1  0  0  0
 23 45  1  0  0  0
 23 46  1  0  0  0
 24 28  1  0  0  0
 24 29  1  0  0  0
 24 30  1  0  0  0
 25 28  1  0  0  0
 25 47  1  0  0  0
 25 48  1  0  0  0
 26 33  2  0  0  0
 26 49  1  0  0  0
 27 32  2  0  0  0
 27 50  1  0  0  0
 28 51  1  0  0  0
 28 52  1  0  0  0
 29 53  1  0  0  0
 29 54  1  0  0  0
 29 55  1  0  0  0
 30 56  1  0  0  0
 30 57  1  0  0  0
 30 58  1  0  0  0
 31 59  1  0  0  0
 31 60  1  0  0  0
 31 61  1  0  0  0
 32 33  1  0  0  0
 32 62  1  0  0  0
 33 63  1  0  0  0
M  END
> <s_m_entry_id>
28383

> <s_m_entry_name>
dock_pv.544

> <s_m_Source_Path>
/home/csk/Desktop/cluster/DUD-E-result/rock1

> <s_m_Source_File>
dock_pv.maegz

> <i_m_Source_File_Index>
544

> <chembl_id>
CHEMBL1215526

> <chembl_pref_name>
None

> <i_lp_mmshare_version>
53161

> <r_lp_tautomer_probability>
0.5

> <s_lp_Force_Field>
OPLS_2005

> <r_lp_Energy>
43.017994

> <b_lp_Chiralities_Consistent>
1

> <s_lp_Variant>
CHEMBL3231_lig229-1

> <s_i_glide_gridfile>
glide-grid_2etr

> <i_i_glide_lignum>
373

> <i_i_glide_rotatable_bonds>
9

> <r_i_docking_score>
-7.30465237871629

> <r_i_glide_ligand_efficiency>
-0.221353102385342

> <r_i_glide_ligand_efficiency_sa>
-0.709997674124562

> <r_i_glide_ligand_efficiency_ln>
-1.62451686756065

> <r_i_glide_gscore>
-7.30465237871629

> <r_i_glide_lipo>
-2.02793418089437

> <r_i_glide_hbond>
-0.567303071704986

> <r_i_glide_metal>
0

> <r_i_glide_rewards>
-1.42683346345106

> <r_i_glide_evdw>
-44.258243560791

> <r_i_glide_ecoul>
-9.99797344207764

> <r_i_glide_erotb>
0.482053469493411

> <r_i_glide_esite>
-0.0520269378080844

> <r_i_glide_emodel>
-76.93665073999

> <r_i_glide_energy>
-54.2562170028687

> <r_i_glide_einternal>
5.60026788711548

> <i_i_glide_confnum>
34

> <i_i_glide_posenum>
90

> <r_i_glide_eff_state_penalty>
0

> <s_user_duplicate_titles>
CHEMBL3231_lig229,687391

> <i_f3d_flags>
0

> <s_m_subgroup_title>
dock_pv

> <s_m_subgroupid>
dock_pv

> <b_m_subgroup_collapsed>
1

$$$$
CHEMBL3231_lig160
                    3D
 Schrodinger Suite 2021-1.
 42 44  0  0  1  0            999 V2000
   51.5913  102.1289   28.7738 C   0  0  0  0  0  0
   51.5210  100.7317   28.6891 C   0  0  0  0  0  0
   51.9762   99.9860   29.7377 N   0  0  0  0  0  0
   52.5172  100.6017   30.8281 C   0  0  0  0  0  0
   52.6024  102.0111   30.8613 C   0  0  0  0  0  0
   52.1329  102.7680   29.8386 N   0  0  0  0  0  0
   53.1159  102.7251   31.9455 N   0  0  0  0  0  0
   50.9884   99.9886   27.4915 C   0  0  0  0  0  0
   50.9128   98.5828   27.4691 C   0  0  0  0  0  0
   50.4433   97.9251   26.3308 C   0  0  0  0  0  0
   50.0431   98.5812   25.2139 N   0  0  0  0  0  0
   50.1031   99.9348   25.2296 C   0  0  0  0  0  0
   50.5623  100.6630   26.3304 C   0  0  0  0  0  0
   52.9501   99.7697   31.8645 N   0  0  0  0  0  0
   52.3804   98.4385   32.1380 C   0  0  0  0  0  0
   53.3465   97.2927   31.7735 C   0  0  0  0  0  0
   54.5561   97.4031   32.5945 N   0  0  0  0  0  0
   55.2090   98.6667   32.2265 C   0  0  0  0  0  0
   54.2794   99.8808   32.4993 C   0  0  0  0  0  0
   55.4728   96.2726   32.3787 C   0  0  0  0  0  0
   54.9620   95.0036   33.0987 C   0  0  0  0  0  0
   55.7976   93.9027   32.7998 O   0  0  0  0  0  0
   51.2298  102.7806   28.0010 H   0  0  0  0  0  0
   53.5306  102.2072   32.7065 H   0  0  0  0  0  0
   53.2732  103.7184   31.8474 H   0  0  0  0  0  0
   51.2246   97.9929   28.3196 H   0  0  0  0  0  0
   50.3958   96.8459   26.3028 H   0  0  0  0  0  0
   49.7723  100.4370   24.3303 H   0  0  0  0  0  0
   50.5892  101.7380   26.2555 H   0  0  0  0  0  0
   52.1042   98.3895   33.1917 H   0  0  0  0  0  0
   51.4502   98.2985   31.5861 H   0  0  0  0  0  0
   53.5937   97.3339   30.7119 H   0  0  0  0  0  0
   52.8431   96.3425   31.9378 H   0  0  0  0  0  0
   56.1223   98.7878   32.8120 H   0  0  0  0  0  0
   55.5159   98.6577   31.1778 H   0  0  0  0  0  0
   54.1534  100.0325   33.5722 H   0  0  0  0  0  0
   54.8023  100.7597   32.1236 H   0  0  0  0  0  0
   56.4336   96.5532   32.8153 H   0  0  0  0  0  0
   55.5736   96.1114   31.3033 H   0  0  0  0  0  0
   53.9485   94.7385   32.7996 H   0  0  0  0  0  0
   54.9404   95.1557   34.1772 H   0  0  0  0  0  0
   56.4271   93.7557   33.5216 H   0  0  0  0  0  0
  1  6  1  0  0  0
  1  2  2  0  0  0
  1 23  1  0  0  0
  2  8  1  0  0  0
  2  3  1  0  0  0
  3  4  2  0  0  0
  4 14  1  0  0  0
  4  5  1  0  0  0
  5  6  2  0  0  0
  5  7  1  0  0  0
  7 24  1  0  0  0
  7 25  1  0  0  0
  8 13  1  0  0  0
  8  9  2  0  0  0
  9 10  1  0  0  0
  9 26  1  0  0  0
 10 11  2  0  0  0
 10 27  1  0  0  0
 11 12  1  0  0  0
 12 13  2  0  0  0
 12 28  1  0  0  0
 13 29  1  0  0  0
 14 15  1  0  0  0
 14 19  1  0  0  0
 15 16  1  0  0  0
 15 30  1  0  0  0
 15 31  1  0  0  0
 16 17  1  0  0  0
 16 32  1  0  0  0
 16 33  1  0  0  0
 17 18  1  0  0  0
 17 20  1  0  0  0
 18 19  1  0  0  0
 18 34  1  0  0  0
 18 35  1  0  0  0
 19 36  1  0  0  0
 19 37  1  0  0  0
 20 21  1  0  0  0
 20 38  1  0  0  0
 20 39  1  0  0  0
 21 22  1  0  0  0
 21 40  1  0  0  0
 21 41  1  0  0  0
 22 42  1  0  0  0
M  END
> <s_m_entry_id>
28384

> <s_m_entry_name>
dock_pv.545

> <s_m_Source_Path>
/home/csk/Desktop/cluster/DUD-E-result/rock1

> <s_m_Source_File>
dock_pv.maegz

> <i_m_Source_File_Index>
545

> <chembl_id>
CHEMBL589655

> <chembl_pref_name>
None

> <i_lp_mmshare_version>
53161

> <r_lp_tautomer_probability>
0.999999901280008

> <s_lp_Force_Field>
OPLS_2005

> <r_lp_Energy>
54.381123

> <b_lp_Chiralities_Consistent>
1

> <s_lp_Variant>
CHEMBL3231_lig160-1

> <s_i_glide_gridfile>
glide-grid_2etr

> <i_i_glide_lignum>
284

> <i_i_glide_rotatable_bonds>
5

> <r_i_docking_score>
-7.30371060372736

> <r_i_glide_ligand_efficiency>
-0.331986845623971

> <r_i_glide_ligand_efficiency_sa>
-0.930240197740114

> <r_i_glide_ligand_efficiency_ln>
-1.78529328086825

> <r_i_glide_gscore>
-7.30371060372736

> <r_i_glide_lipo>
-2.20170916066461

> <r_i_glide_hbond>
-0.39563429370774

> <r_i_glide_metal>
0

> <r_i_glide_rewards>
-2.67785598484848

> <r_i_glide_evdw>
-37.7537689208984

> <r_i_glide_ecoul>
-6.0815281867981

> <r_i_glide_erotb>
0.814959606032278

> <r_i_glide_esite>
-0.0435530964741672

> <r_i_glide_emodel>
-60.4616323193881

> <r_i_glide_energy>
-43.8352971076965

> <r_i_glide_einternal>
6.05211400985718

> <i_i_glide_confnum>
75

> <i_i_glide_posenum>
319

> <r_i_glide_eff_state_penalty>
0

> <s_user_duplicate_titles>
CHEMBL3231_lig160

> <i_f3d_flags>
0

> <s_m_subgroup_title>
dock_pv

> <s_m_subgroupid>
dock_pv

> <b_m_subgroup_collapsed>
1

$$$$
CHEMBL3231_lig526
                    3D
 Schrodinger Suite 2021-1.
 66 70  0  0  1  0            999 V2000
   56.4481   99.9268   35.8909 C   0  0  1  0  0  0
   56.9291  100.6854   37.1702 C   0  0  0  0  0  0
   57.4294   99.9258   38.1846 C   0  0  0  0  0  0
   57.6442   98.5906   38.0335 N   0  0  0  0  0  0
   57.5039   97.8791   36.8938 C   0  0  0  0  0  0
   57.1316   98.6125   35.8158 N   0  0  0  0  0  0
   57.6207   96.6586   36.8612 O   0  0  0  0  0  0
   57.9452  100.4113   39.5398 C   0  0  0  0  0  0
   56.6088  102.1148   37.2964 C   0  0  0  0  0  0
   56.1722  102.6928   36.1549 N   0  0  0  0  0  0
   56.6952  102.7267   38.3606 O   0  0  0  0  0  0
   55.6132  103.9613   35.9236 C   0  0  0  0  0  0
   55.2433  104.8584   36.9430 C   0  0  0  0  0  0
   54.8087  105.4996   34.1981 C   0  0  0  0  0  0
   55.3877  104.2897   34.5845 C   0  0  0  0  0  0
   54.4440  106.3768   35.2221 C   0  0  0  0  0  0
   54.6540  106.0779   36.5866 C   0  0  0  0  0  0
   54.1529  107.2234   37.2777 C   0  0  0  0  0  0
   53.6795  108.1179   36.4497 N   0  0  0  0  0  0
   53.8480  107.6197   35.2113 N   0  0  0  0  0  0
   54.9289   99.8359   35.7002 C   0  0  0  0  0  0
   54.3871   99.7465   34.4112 C   0  0  0  0  0  0
   52.9943   99.7243   34.2008 C   0  0  0  0  0  0
   52.1551   99.8664   35.3229 C   0  0  0  0  0  0
   52.6932   99.9597   36.6022 C   0  0  0  0  0  0
   54.0667   99.9241   36.7943 C   0  0  0  0  0  0
   50.8092   99.9083   35.2039 F   0  0  0  0  0  0
   52.4074   99.5516   32.8149 C   0  0  0  0  0  0
   53.2120   98.9816   31.8970 N   0  0  0  0  0  0
   51.2523   99.9035   32.5615 O   0  0  0  0  0  0
   52.8389   98.5516   30.5456 C   0  0  0  0  0  0
   52.2281   99.5667   29.5759 C   0  0  0  0  0  0
   51.6426   99.0899   28.4016 C   0  0  0  0  0  0
   51.0694   99.9652   27.4740 C   0  0  0  0  0  0
   51.0465  101.3363   27.7535 C   0  0  0  0  0  0
   51.6199  101.8338   28.9283 C   0  0  0  0  0  0
   52.2264  100.9443   29.8202 C   0  0  0  0  0  0
   51.5993  103.3221   29.2587 C   0  0  0  0  0  0
   50.4897   99.4543   26.1576 C   0  0  0  0  0  0
   49.2487   99.9051   25.9976 F   0  0  0  0  0  0
   51.2424   99.9145   25.1617 F   0  0  0  0  0  0
   50.4606   98.1220   26.0853 F   0  0  0  0  0  0
   52.8408  103.7982   29.2111 F   0  0  0  0  0  0
   51.1182  103.5024   30.4871 F   0  0  0  0  0  0
   50.8419  104.0234   28.4134 F   0  0  0  0  0  0
   56.8039  100.4524   35.0025 H   0  0  0  0  0  0
   58.0189   98.0519   38.8001 H   0  0  0  0  0  0
   57.0168   98.0776   34.9680 H   0  0  0  0  0  0
   57.1237  100.4644   40.2559 H   0  0  0  0  0  0
   58.7110   99.7542   39.9533 H   0  0  0  0  0  0
   58.4097  101.3945   39.4688 H   0  0  0  0  0  0
   56.2656  102.1216   35.3308 H   0  0  0  0  0  0
   55.3778  104.6302   37.9877 H   0  0  0  0  0  0
   54.6353  105.7371   33.1572 H   0  0  0  0  0  0
   55.6605  103.5911   33.8016 H   0  0  0  0  0  0
   54.1298  107.3923   38.3436 H   0  0  0  0  0  0
   53.5250  108.1217   34.3931 H   0  0  0  0  0  0
   55.0699   99.6908   33.5724 H   0  0  0  0  0  0
   52.0434  100.0582   37.4569 H   0  0  0  0  0  0
   54.4507   99.9971   37.8012 H   0  0  0  0  0  0
   54.1278   98.6890   32.2060 H   0  0  0  0  0  0
   52.1636   97.6978   30.6409 H   0  0  0  0  0  0
   53.7342   98.1546   30.0594 H   0  0  0  0  0  0
   51.6502   98.0264   28.2033 H   0  0  0  0  0  0
   50.5935  102.0128   27.0424 H   0  0  0  0  0  0
   52.6875  101.3390   30.7168 H   0  0  0  0  0  0
  1  2  1  0  0  0
  1  6  1  0  0  0
  1 21  1  0  0  0
  1 46  1  0  0  0
  2  3  2  0  0  0
  2  9  1  0  0  0
  3  4  1  0  0  0
  3  8  1  0  0  0
  4  5  1  0  0  0
  4 47  1  0  0  0
  5  6  1  0  0  0
  5  7  2  0  0  0
  6 48  1  0  0  0
  8 49  1  0  0  0
  8 50  1  0  0  0
  8 51  1  0  0  0
  9 10  1  0  0  0
  9 11  2  0  0  0
 10 12  1  0  0  0
 10 52  1  0  0  0
 12 13  2  0  0  0
 12 15  1  0  0  0
 13 17  1  0  0  0
 13 53  1  0  0  0
 14 16  1  0  0  0
 14 15  2  0  0  0
 14 54  1  0  0  0
 15 55  1  0  0  0
 16 17  2  0  0  0
 16 20  1  0  0  0
 17 18  1  0  0  0
 18 19  2  0  0  0
 18 56  1  0  0  0
 19 20  1  0  0  0
 20 57  1  0  0  0
 21 22  2  0  0  0
 21 26  1  0  0  0
 22 23  1  0  0  0
 22 58  1  0  0  0
 23 24  2  0  0  0
 23 28  1  0  0  0
 24 25  1  0  0  0
 24 27  1  0  0  0
 25 26  2  0  0  0
 25 59  1  0  0  0
 26 60  1  0  0  0
 28 29  1  0  0  0
 28 30  2  0  0  0
 29 31  1  0  0  0
 29 61  1  0  0  0
 31 32  1  0  0  0
 31 62  1  0  0  0
 31 63  1  0  0  0
 32 33  2  0  0  0
 32 37  1  0  0  0
 33 34  1  0  0  0
 33 64  1  0  0  0
 34 35  2  0  0  0
 34 39  1  0  0  0
 35 36  1  0  0  0
 35 65  1  0  0  0
 36 37  2  0  0  0
 36 38  1  0  0  0
 37 66  1  0  0  0
 38 43  1  0  0  0
 38 44  1  0  0  0
 38 45  1  0  0  0
 39 40  1  0  0  0
 39 41  1  0  0  0
 39 42  1  0  0  0
M  END
> <s_m_entry_id>
28385

> <s_m_entry_name>
dock_pv.546

> <s_m_Source_Path>
/home/csk/Desktop/cluster/DUD-E-result/rock1

> <s_m_Source_File>
dock_pv.maegz

> <i_m_Source_File_Index>
546

> <chembl_id>
CHEMBL3808657

> <chembl_pref_name>
None

> <i_lp_mmshare_version>
53161

> <r_lp_tautomer_probability>
0.980392156860701

> <s_lp_Force_Field>
OPLS_2005

> <r_lp_Energy>
46.613685

> <b_lp_Chiralities_Consistent>
1

> <s_lp_Variant>
CHEMBL3231_lig526-2

> <s_i_glide_gridfile>
glide-grid_2etr

> <i_i_glide_lignum>
782

> <i_i_glide_rotatable_bonds>
10

> <r_i_docking_score>
-7.30364789915884

> <r_i_glide_ligand_efficiency>
-0.162303286647974

> <r_i_glide_ligand_efficiency_sa>
-0.577295472842388

> <r_i_glide_ligand_efficiency_ln>
-1.51948423978232

> <r_i_glide_gscore>
-7.30364789915884

> <r_i_glide_lipo>
-1.79218060964924

> <r_i_glide_hbond>
-0.0335096644904843

> <r_i_glide_metal>
0

> <r_i_glide_rewards>
-2.07711965950143

> <r_i_glide_evdw>
-44.8942031860352

> <r_i_glide_ecoul>
-7.89609050750732

> <r_i_glide_erotb>
0.279141734613994

> <r_i_glide_esite>
-0.25085596470382

> <r_i_glide_emodel>
-77.6633381398194

> <r_i_glide_energy>
-52.7902936935425

> <r_i_glide_einternal>
3.29109382629395

> <i_i_glide_confnum>
14

> <i_i_glide_posenum>
106

> <r_i_glide_eff_state_penalty>
0

> <s_user_duplicate_titles>
CHEMBL3231_lig526,CHEMBL3231_lig526

> <i_f3d_flags>
0

> <s_m_subgroup_title>
dock_pv

> <s_m_subgroupid>
dock_pv

> <b_m_subgroup_collapsed>
1

$$$$
CHEMBL3231_lig632
                    3D
 Schrodinger Suite 2021-1.
 43 45  0  0  1  0            999 V2000
   50.6655  103.9710   28.5173 C   0  0  0  0  0  0
   50.6632  102.6432   28.0115 O   0  0  0  0  0  0
   51.2062  101.6114   28.7597 C   0  0  0  0  0  0
   51.6166  101.7700   30.0970 C   0  0  0  0  0  0
   52.0967  100.6896   30.8566 C   0  0  0  0  0  0
   52.2285   99.4505   30.2220 C   0  0  0  0  0  0
   51.8533   99.2851   28.8918 C   0  0  0  0  0  0
   51.3146  100.3452   28.1573 C   0  0  0  0  0  0
   50.8629  100.0841   26.7477 C   0  0  0  0  0  0
   50.8777  100.9756   25.6819 C   0  0  0  0  0  0
   50.3635  100.3024   24.6163 N   0  0  0  0  0  0
   50.0422   99.0478   24.9073 N   0  0  0  0  0  0
   50.3198   98.9062   26.1853 C   0  0  0  0  0  0
   50.0071   97.5848   26.8441 C   0  0  0  0  0  0
   52.4127  100.8142   32.3347 C   0  0  0  0  0  0
   52.7342   99.8235   32.9930 O   0  0  0  0  0  0
   52.2672  102.0342   32.8868 N   0  0  0  0  0  0
   52.3786  102.3492   34.3108 C   0  0  0  0  0  0
   51.0690  102.8825   34.8945 C   0  0  0  0  0  0
   50.9564  104.2485   35.1891 C   0  0  0  0  0  0
   49.7902  104.7608   35.7574 C   0  0  0  0  0  0
   48.7246  103.9120   36.0451 C   0  0  0  0  0  0
   48.8314  102.5490   35.7740 C   0  0  0  0  0  0
   49.9942  102.0274   35.2060 C   0  0  0  0  0  0
   50.0580  100.3236   34.9075 Cl  0  0  0  0  0  0
   50.2776  104.6481   27.7559 H   0  0  0  0  0  0
   50.0262  104.0582   29.3951 H   0  0  0  0  0  0
   51.6762  104.3018   28.7704 H   0  0  0  0  0  0
   51.5150  102.7373   30.5605 H   0  0  0  0  0  0
   52.6052   98.5911   30.7603 H   0  0  0  0  0  0
   51.9794   98.3100   28.4444 H   0  0  0  0  0  0
   51.1923  102.0069   25.6044 H   0  0  0  0  0  0
   50.2186  100.6904   23.6927 H   0  0  0  0  0  0
   49.7760   97.7129   27.9037 H   0  0  0  0  0  0
   49.1361   97.1013   26.4095 H   0  0  0  0  0  0
   50.8427   96.8899   26.7670 H   0  0  0  0  0  0
   52.1483  102.8160   32.2657 H   0  0  0  0  0  0
   52.6953  101.4899   34.9059 H   0  0  0  0  0  0
   53.1756  103.0817   34.4339 H   0  0  0  0  0  0
   51.7766  104.9212   34.9763 H   0  0  0  0  0  0
   49.7144  105.8155   35.9777 H   0  0  0  0  0  0
   47.8183  104.3029   36.4851 H   0  0  0  0  0  0
   48.0076  101.8910   36.0096 H   0  0  0  0  0  0
  1  2  1  0  0  0
  1 26  1  0  0  0
  1 27  1  0  0  0
  1 28  1  0  0  0
  2  3  1  0  0  0
  3  4  2  0  0  0
  3  8  1  0  0  0
  4  5  1  0  0  0
  4 29  1  0  0  0
  5  6  2  0  0  0
  5 15  1  0  0  0
  6  7  1  0  0  0
  6 30  1  0  0  0
  7  8  2  0  0  0
  7 31  1  0  0  0
  8  9  1  0  0  0
  9 10  2  0  0  0
  9 13  1  0  0  0
 10 11  1  0  0  0
 10 32  1  0  0  0
 11 12  1  0  0  0
 11 33  1  0  0  0
 12 13  2  0  0  0
 13 14  1  0  0  0
 14 34  1  0  0  0
 14 35  1  0  0  0
 14 36  1  0  0  0
 15 16  2  0  0  0
 15 17  1  0  0  0
 17 18  1  0  0  0
 17 37  1  0  0  0
 18 19  1  0  0  0
 18 38  1  0  0  0
 18 39  1  0  0  0
 19 20  2  0  0  0
 19 24  1  0  0  0
 20 21  1  0  0  0
 20 40  1  0  0  0
 21 22  2  0  0  0
 21 41  1  0  0  0
 22 23  1  0  0  0
 22 42  1  0  0  0
 23 24  2  0  0  0
 23 43  1  0  0  0
 24 25  1  0  0  0
M  END
> <s_m_entry_id>
28386

> <s_m_entry_name>
dock_pv.547

> <s_m_Source_Path>
/home/csk/Desktop/cluster/DUD-E-result/rock1

> <s_m_Source_File>
dock_pv.maegz

> <i_m_Source_File_Index>
547

> <chembl_id>
CHEMBL3941476

> <chembl_pref_name>
None

> <i_lp_mmshare_version>
53161

> <r_lp_tautomer_probability>
0.5

> <s_lp_Force_Field>
OPLS_2005

> <r_lp_Energy>
20.933055

> <b_lp_Chiralities_Consistent>
1

> <s_lp_Variant>
CHEMBL3231_lig632-1

> <s_i_glide_gridfile>
glide-grid_2etr

> <i_i_glide_lignum>
919

> <i_i_glide_rotatable_bonds>
6

> <r_i_docking_score>
-7.30231408835997

> <r_i_glide_ligand_efficiency>
-0.292092563534399

> <r_i_glide_ligand_efficiency_sa>
-0.854083836058254

> <r_i_glide_ligand_efficiency_ln>
-1.73086727163583

> <r_i_glide_gscore>
-7.30231408835997

> <r_i_glide_lipo>
-3.42990310865284

> <r_i_glide_hbond>
-0.00563885427589761

> <r_i_glide_metal>
0

> <r_i_glide_rewards>
-2.04960592309941

> <r_i_glide_evdw>
-44.8041496276855

> <r_i_glide_ecoul>
-1.07596695423126

> <r_i_glide_erotb>
0.60423667438877

> <r_i_glide_esite>
-0.0198003522016305

> <r_i_glide_emodel>
-64.4222673000549

> <r_i_glide_energy>
-45.8801165819168

> <r_i_glide_einternal>
1.83314633369446

> <i_i_glide_confnum>
4

> <i_i_glide_posenum>
147

> <r_i_glide_eff_state_penalty>
0

> <s_user_duplicate_titles>
CHEMBL3231_lig632

> <i_f3d_flags>
0

> <s_m_subgroup_title>
dock_pv

> <s_m_subgroupid>
dock_pv

> <b_m_subgroup_collapsed>
1

$$$$
CHEMBL3231_lig1433
                    3D
 Schrodinger Suite 2021-1.
 27 29  0  0  1  0            999 V2000
   53.9391  100.3588   31.7347 C   0  0  0  0  0  0
   54.4411  101.7335   32.2627 C   0  0  0  0  0  0
   53.3425  102.7237   32.3561 N   0  0  0  0  0  0
   52.3852  102.9288   31.4162 C   0  0  0  0  0  0
   52.9588  100.6356   30.6180 C   0  0  0  0  0  0
   52.3228  101.8554   30.4514 C   0  0  0  0  0  0
   51.5420  101.7214   29.2923 C   0  0  0  0  0  0
   51.7461  100.4626   28.7294 C   0  0  0  0  0  0
   52.6510   99.8313   29.5538 N   0  0  0  0  0  0
   51.1603   99.8389   27.5083 C   0  0  0  0  0  0
   50.6877  100.6345   26.4556 C   0  0  0  0  0  0
   50.1386  100.0120   25.3317 C   0  0  0  0  0  0
   50.0429   98.6642   25.2111 N   0  0  0  0  0  0
   50.5017   97.9035   26.2352 C   0  0  0  0  0  0
   51.0557   98.4472   27.3936 C   0  0  0  0  0  0
   51.6431  103.9024   31.4953 O   0  0  0  0  0  0
   54.7788   99.7384   31.4175 H   0  0  0  0  0  0
   53.4455   99.8158   32.5413 H   0  0  0  0  0  0
   55.2143  102.1412   31.6111 H   0  0  0  0  0  0
   54.9048  101.6140   33.2428 H   0  0  0  0  0  0
   53.3587  103.3815   33.1204 H   0  0  0  0  0  0
   50.8807  102.4805   28.9011 H   0  0  0  0  0  0
   53.0243   98.9047   29.4072 H   0  0  0  0  0  0
   50.7461  101.7119   26.5026 H   0  0  0  0  0  0
   49.7649  100.5935   24.5004 H   0  0  0  0  0  0
   50.4313   96.8324   26.1143 H   0  0  0  0  0  0
   51.3896   97.7970   28.1867 H   0  0  0  0  0  0
  1  5  1  0  0  0
  1  2  1  0  0  0
  1 17  1  0  0  0
  1 18  1  0  0  0
  2  3  1  0  0  0
  2 19  1  0  0  0
  2 20  1  0  0  0
  3  4  1  0  0  0
  3 21  1  0  0  0
  4  6  1  0  0  0
  4 16  2  0  0  0
  5  9  1  0  0  0
  5  6  2  0  0  0
  6  7  1  0  0  0
  7  8  2  0  0  0
  7 22  1  0  0  0
  8  9  1  0  0  0
  8 10  1  0  0  0
  9 23  1  0  0  0
 10 11  2  0  0  0
 10 15  1  0  0  0
 11 12  1  0  0  0
 11 24  1  0  0  0
 12 13  2  0  0  0
 12 25  1  0  0  0
 13 14  1  0  0  0
 14 15  2  0  0  0
 14 26  1  0  0  0
 15 27  1  0  0  0
M  END
> <s_m_entry_id>
28387

> <s_m_entry_name>
dock_pv.548

> <s_m_Source_Path>
/home/csk/Desktop/cluster/DUD-E-result/rock1

> <s_m_Source_File>
dock_pv.maegz

> <i_m_Source_File_Index>
548

> <chembl_id>
CHEMBL225519

> <chembl_pref_name>
None

> <i_lp_mmshare_version>
53161

> <r_lp_tautomer_probability>
1

> <s_lp_Force_Field>
OPLS_2005

> <r_lp_Energy>
13.581071

> <b_lp_Chiralities_Consistent>
1

> <s_lp_Variant>
CHEMBL3231_lig1433-1

> <s_i_glide_gridfile>
glide-grid_2etr

> <i_i_glide_lignum>
2010

> <i_i_glide_rotatable_bonds>
1

> <r_i_docking_score>
-7.29755117636267

> <r_i_glide_ligand_efficiency>
-0.456096948522667

> <r_i_glide_ligand_efficiency_sa>
-1.14929229141088

> <r_i_glide_ligand_efficiency_ln>
-1.93436171118863

> <r_i_glide_gscore>
-7.29755117636267

> <r_i_glide_lipo>
-1.88530064045115

> <r_i_glide_hbond>
-0.214142247729403

> <r_i_glide_metal>
0

> <r_i_glide_rewards>
-3.17188093939394

> <r_i_glide_evdw>
-30.3038024902344

> <r_i_glide_ecoul>
-5.4023904800415

> <r_i_glide_erotb>
0.366806049294127

> <r_i_glide_esite>
-0.0674847015643592

> <r_i_glide_emodel>
-52.8467675740567

> <r_i_glide_energy>
-35.7061929702759

> <r_i_glide_einternal>
0.0111557291820645

> <i_i_glide_confnum>
1

> <i_i_glide_posenum>
87

> <r_i_glide_eff_state_penalty>
0

> <s_user_duplicate_titles>
CHEMBL3231_lig1433

> <i_f3d_flags>
0

> <s_m_subgroup_title>
dock_pv

> <s_m_subgroupid>
dock_pv

> <b_m_subgroup_collapsed>
1

$$$$
CHEMBL3231_lig785
                    3D
 Schrodinger Suite 2021-1.
 45 47  0  0  1  0            999 V2000
   53.9524   99.0263   30.5428 C   0  0  0  0  0  0
   53.4021  100.3249   30.7530 O   0  0  0  0  0  0
   52.5202  100.8709   29.8333 C   0  0  0  0  0  0
   52.0428  100.1484   28.7231 C   0  0  0  0  0  0
   51.1491  100.7217   27.8132 C   0  0  0  0  0  0
   50.7270  102.0318   28.0107 C   0  0  0  0  0  0
   51.1762  102.7581   29.1025 C   0  0  0  0  0  0
   52.0651  102.1957   30.0261 C   0  0  0  0  0  0
   52.4748  103.0531   31.1977 C   0  0  0  0  0  0
   51.6904  103.9018   31.6241 O   0  0  0  0  0  0
   53.7104  102.8758   31.6986 N   0  0  0  0  0  0
   54.3113  103.6548   32.7849 C   0  0  0  0  0  0
   53.5256  103.6253   34.0951 C   0  0  0  0  0  0
   53.7059  102.5920   35.0200 C   0  0  0  0  0  0
   52.9798  102.5848   36.2124 C   0  0  0  0  0  0
   52.0744  103.6108   36.4883 C   0  0  0  0  0  0
   51.9002  104.6539   35.5737 C   0  0  0  0  0  0
   52.6437  104.6664   34.3925 C   0  0  0  0  0  0
   50.7420  105.9771   35.8724 S   0  0  0  0  0  0
   49.7318  105.9093   34.8110 O   0  0  0  0  0  0
   50.3624  105.9331   37.2886 O   0  0  0  0  0  0
   51.6691  107.4331   35.6104 N   0  0  0  0  0  0
   50.6229   99.9714   26.6409 C   0  0  0  0  0  0
   50.6150   98.5874   26.3949 C   0  0  0  0  0  0
   50.0430   98.2617   25.2605 N   0  0  0  0  0  0
   49.6653   99.4317   24.7392 N   0  0  0  0  0  0
   49.9955  100.4972   25.5198 C   0  0  0  0  0  0
   54.6388   98.7917   31.3555 H   0  0  0  0  0  0
   53.1787   98.2577   30.5359 H   0  0  0  0  0  0
   54.5228   98.9749   29.6128 H   0  0  0  0  0  0
   52.3632   99.1352   28.5539 H   0  0  0  0  0  0
   50.0445  102.5014   27.3174 H   0  0  0  0  0  0
   50.8180  103.7726   29.2145 H   0  0  0  0  0  0
   54.2721  102.1361   31.2968 H   0  0  0  0  0  0
   54.4431  104.6875   32.4554 H   0  0  0  0  0  0
   55.3206  103.2787   32.9619 H   0  0  0  0  0  0
   54.3989  101.7893   34.8117 H   0  0  0  0  0  0
   53.1154  101.7791   36.9200 H   0  0  0  0  0  0
   51.5077  103.5897   37.4085 H   0  0  0  0  0  0
   52.5075  105.4714   33.6831 H   0  0  0  0  0  0
   52.4205  107.5707   36.2864 H   0  0  0  0  0  0
   52.0098  107.5240   34.6431 H   0  0  0  0  0  0
   51.0138   97.8281   27.0514 H   0  0  0  0  0  0
   49.2007   99.5031   23.8353 H   0  0  0  0  0  0
   49.7474  101.5033   25.2167 H   0  0  0  0  0  0
  1  2  1  0  0  0
  1 28  1  0  0  0
  1 29  1  0  0  0
  1 30  1  0  0  0
  2  3  1  0  0  0
  3  4  2  0  0  0
  3  8  1  0  0  0
  4  5  1  0  0  0
  4 31  1  0  0  0
  5  6  2  0  0  0
  5 23  1  0  0  0
  6  7  1  0  0  0
  6 32  1  0  0  0
  7  8  2  0  0  0
  7 33  1  0  0  0
  8  9  1  0  0  0
  9 10  2  0  0  0
  9 11  1  0  0  0
 11 12  1  0  0  0
 11 34  1  0  0  0
 12 13  1  0  0  0
 12 35  1  0  0  0
 12 36  1  0  0  0
 13 14  2  0  0  0
 13 18  1  0  0  0
 14 15  1  0  0  0
 14 37  1  0  0  0
 15 16  2  0  0  0
 15 38  1  0  0  0
 16 17  1  0  0  0
 16 39  1  0  0  0
 17 18  2  0  0  0
 17 19  1  0  0  0
 18 40  1  0  0  0
 19 20  2  0  0  0
 19 21  2  0  0  0
 19 22  1  0  0  0
 22 41  1  0  0  0
 22 42  1  0  0  0
 23 24  1  0  0  0
 23 27  2  0  0  0
 24 25  2  0  0  0
 24 43  1  0  0  0
 25 26  1  0  0  0
 26 27  1  0  0  0
 26 44  1  0  0  0
 27 45  1  0  0  0
M  END
> <s_m_entry_id>
28389

> <s_m_entry_name>
dock_pv.550

> <s_m_Source_Path>
/home/csk/Desktop/cluster/DUD-E-result/rock1

> <s_m_Source_File>
dock_pv.maegz

> <i_m_Source_File_Index>
550

> <chembl_id>
CHEMBL3985681

> <chembl_pref_name>
None

> <i_lp_mmshare_version>
53161

> <r_lp_tautomer_probability>
0.5

> <s_lp_Force_Field>
OPLS_2005

> <r_lp_Energy>
27.424399

> <b_lp_Chiralities_Consistent>
1

> <s_lp_Variant>
CHEMBL3231_lig785-1

> <s_i_glide_gridfile>
glide-grid_2etr

> <i_i_glide_lignum>
1110

> <i_i_glide_rotatable_bonds>
7

> <r_i_docking_score>
-7.29651483152782

> <r_i_glide_ligand_efficiency>
-0.270241290056586

> <r_i_glide_ligand_efficiency_sa>
-0.810723869279087

> <r_i_glide_ligand_efficiency_ln>
-1.69850836033131

> <r_i_glide_gscore>
-7.29651483152782

> <r_i_glide_lipo>
-1.88434712165801

> <r_i_glide_hbond>
-0.701567565271063

> <r_i_glide_metal>
0

> <r_i_glide_rewards>
-0.798346534715542

> <r_i_glide_evdw>
-41.2815208435059

> <r_i_glide_ecoul>
-14.1014671325684

> <r_i_glide_erotb>
0.456195681914233

> <r_i_glide_esite>
-0.189153179736896

> <r_i_glide_emodel>
-78.458262415689

> <r_i_glide_energy>
-55.3829879760742

> <r_i_glide_einternal>
2.91101455688477

> <i_i_glide_confnum>
53

> <i_i_glide_posenum>
386

> <r_i_glide_eff_state_penalty>
0

> <s_user_duplicate_titles>
CHEMBL3231_lig785

> <i_f3d_flags>
0

> <s_m_subgroup_title>
dock_pv

> <s_m_subgroupid>
dock_pv

> <b_m_subgroup_collapsed>
1

$$$$
CHEMBL3231_lig897
                    3D
 Schrodinger Suite 2021-1.
 50 54  0  0  1  0            999 V2000
   53.4601  101.0841   36.4478 O   0  0  0  0  0  0
   53.5743  100.4057   35.2114 C   0  0  1  0  0  0
   53.8937   98.9346   35.6037 C   0  0  0  0  0  0
   53.3680  100.7950   32.1725 C   0  0  1  0  0  0
   52.3377   99.9666   32.9946 C   0  0  0  0  0  0
   52.2191  100.4900   34.4477 C   0  0  0  0  0  0
   54.6815  101.1226   34.3733 C   0  0  0  0  0  0
   54.7370  100.6605   32.8878 C   0  0  0  0  0  0
   53.4956  100.2626   30.8052 N   0  0  0  0  0  0
   52.9682  102.2318   32.1197 N   0  0  0  0  0  0
   52.1026  102.7768   31.2295 C   0  0  0  0  0  0
   52.4992  100.6444   29.9411 C   0  0  0  0  0  0
   51.8584  101.8642   30.1410 C   0  0  0  0  0  0
   50.7470  102.1858   28.8415 S   0  0  0  0  0  0
   51.1174  100.6642   28.0752 C   0  0  0  0  0  0
   52.0598   99.9595   28.8140 C   0  0  0  0  0  0
   51.6435  103.9019   31.4034 O   0  0  0  0  0  0
   50.5193  100.2712   26.8129 C   0  0  0  0  0  0
   50.0717  101.1035   25.8052 C   0  0  0  0  0  0
   49.6423  100.2801   24.8107 N   0  0  0  0  0  0
   49.7817   98.9919   25.1042 N   0  0  0  0  0  0
   50.2932   98.9737   26.3135 C   0  0  0  0  0  0
   50.5700   97.6506   26.9645 C   0  0  0  0  0  0
   52.9818   98.2349   36.4115 C   0  0  0  0  0  0
   53.2132   96.9152   36.7834 C   0  0  0  0  0  0
   54.3639   96.2693   36.3482 C   0  0  0  0  0  0
   55.2944   96.9441   35.5640 C   0  0  0  0  0  0
   55.0679   98.2690   35.2044 C   0  0  0  0  0  0
   54.5855   94.9842   36.7032 F   0  0  0  0  0  0
   54.3418  101.1681   36.8185 H   0  0  0  0  0  0
   51.3567   99.9867   32.5187 H   0  0  0  0  0  0
   52.6487   98.9208   33.0423 H   0  0  0  0  0  0
   51.8299  101.5098   34.4741 H   0  0  0  0  0  0
   51.4562   99.8952   34.9495 H   0  0  0  0  0  0
   54.5412  102.2036   34.4201 H   0  0  0  0  0  0
   55.6622  100.9593   34.8229 H   0  0  0  0  0  0
   55.0597   99.6213   32.8427 H   0  0  0  0  0  0
   55.4986  101.2433   32.3633 H   0  0  0  0  0  0
   53.9987   99.3924   30.7226 H   0  0  0  0  0  0
   53.2007  102.8100   32.9101 H   0  0  0  0  0  0
   52.4436   98.9956   28.5254 H   0  0  0  0  0  0
   50.0326  102.1780   25.7092 H   0  0  0  0  0  0
   49.2587  100.5789   23.9173 H   0  0  0  0  0  0
   50.1516   97.6029   27.9709 H   0  0  0  0  0  0
   50.1701   96.8003   26.4101 H   0  0  0  0  0  0
   51.6434   97.5028   27.0544 H   0  0  0  0  0  0
   52.0947   98.7307   36.7770 H   0  0  0  0  0  0
   52.5080   96.3931   37.4118 H   0  0  0  0  0  0
   56.1960   96.4410   35.2428 H   0  0  0  0  0  0
   55.8353   98.7529   34.6214 H   0  0  0  0  0  0
  1  2  1  0  0  0
  1 30  1  0  0  0
  2  3  1  0  0  0
  2  6  1  0  0  0
  2  7  1  0  0  0
  3 24  2  0  0  0
  3 28  1  0  0  0
  4  5  1  0  0  0
  4  8  1  0  0  0
  4  9  1  0  0  0
  4 10  1  0  0  0
  5  6  1  0  0  0
  5 31  1  0  0  0
  5 32  1  0  0  0
  6 33  1  0  0  0
  6 34  1  0  0  0
  7  8  1  0  0  0
  7 35  1  0  0  0
  7 36  1  0  0  0
  8 37  1  0  0  0
  8 38  1  0  0  0
  9 12  1  0  0  0
  9 39  1  0  0  0
 10 11  1  0  0  0
 10 40  1  0  0  0
 11 13  1  0  0  0
 11 17  2  0  0  0
 12 13  2  0  0  0
 12 16  1  0  0  0
 13 14  1  0  0  0
 14 15  1  0  0  0
 15 16  2  0  0  0
 15 18  1  0  0  0
 16 41  1  0  0  0
 18 19  2  0  0  0
 18 22  1  0  0  0
 19 20  1  0  0  0
 19 42  1  0  0  0
 20 21  1  0  0  0
 20 43  1  0  0  0
 21 22  2  0  0  0
 22 23  1  0  0  0
 23 44  1  0  0  0
 23 45  1  0  0  0
 23 46  1  0  0  0
 24 25  1  0  0  0
 24 47  1  0  0  0
 25 26  2  0  0  0
 25 48  1  0  0  0
 26 27  1  0  0  0
 26 29  1  0  0  0
 27 28  2  0  0  0
 27 49  1  0  0  0
 28 50  1  0  0  0
M  END
> <s_m_entry_id>
28390

> <s_m_entry_name>
dock_pv.551

> <s_m_Source_Path>
/home/csk/Desktop/cluster/DUD-E-result/rock1

> <s_m_Source_File>
dock_pv.maegz

> <i_m_Source_File_Index>
551

> <chembl_id>
CHEMBL4213805

> <chembl_pref_name>
None

> <i_lp_mmshare_version>
53161

> <r_lp_tautomer_probability>
0.499999092751646

> <s_lp_Force_Field>
OPLS_2005

> <r_lp_Energy>
32.276822

> <b_lp_Chiralities_Consistent>
1

> <s_lp_Variant>
CHEMBL3231_lig897-1

> <s_i_glide_gridfile>
glide-grid_2etr

> <i_i_glide_lignum>
1283

> <i_i_glide_rotatable_bonds>
3

> <r_i_docking_score>
-7.29353126980463

> <r_i_glide_ligand_efficiency>
-0.251501078269125

> <r_i_glide_ligand_efficiency_sa>
-0.772690993577073

> <r_i_glide_ligand_efficiency_ln>
-1.67003371279001

> <r_i_glide_gscore>
-7.29353126980463

> <r_i_glide_lipo>
-1.97899747602554

> <r_i_glide_hbond>
-0.447453746114567

> <r_i_glide_metal>
0

> <r_i_glide_rewards>
-1.83338410075758

> <r_i_glide_evdw>
-42.3781661987305

> <r_i_glide_ecoul>
-6.88563060760498

> <r_i_glide_erotb>
0.231800047634114

> <r_i_glide_esite>
-0.113743093463789

> <r_i_glide_emodel>
-71.5585708602297

> <r_i_glide_energy>
-49.2637968063354

> <r_i_glide_einternal>
0.229687884449959

> <i_i_glide_confnum>
45

> <i_i_glide_posenum>
245

> <r_i_glide_eff_state_penalty>
0

> <s_user_duplicate_titles>
CHEMBL3231_lig897

> <i_f3d_flags>
0

> <s_m_subgroup_title>
dock_pv

> <s_m_subgroupid>
dock_pv

> <b_m_subgroup_collapsed>
1

$$$$
CHEMBL3231_lig223
                    3D
 Schrodinger Suite 2021-1.
 42 44  0  0  1  0            999 V2000
   52.6797   99.6811   32.8332 C   0  0  0  0  0  0
   53.1996  100.7797   33.5093 C   0  0  0  0  0  0
   53.3743  102.0100   32.8772 C   0  0  0  0  0  0
   53.0416  102.1543   31.5262 C   0  0  0  0  0  0
   52.3246   99.8405   31.4876 C   0  0  0  0  0  0
   52.5014  101.0734   30.8026 C   0  0  0  0  0  0
   52.0807  101.0089   29.4327 C   0  0  0  0  0  0
   51.5658   99.7548   29.0907 C   0  0  0  0  0  0
   51.6432   98.6239   30.4398 S   0  0  0  0  0  0
   52.2112  102.2097   28.5178 C   0  0  0  0  0  0
   50.9844   99.2652   27.7832 C   0  0  0  0  0  0
   50.5392  100.2064   26.9003 N   0  0  0  0  0  0
   50.0813   99.7611   25.7006 C   0  0  0  0  0  0
   50.0417   98.4708   25.2925 N   0  0  0  0  0  0
   50.4535   97.5515   26.1975 C   0  0  0  0  0  0
   50.9195   97.9033   27.4620 C   0  0  0  0  0  0
   49.5897  100.7028   24.8111 N   0  0  0  0  0  0
   53.9170  103.1982   33.6758 C   0  0  1  0  0  0
   55.2450  103.5608   33.2103 N   0  0  0  0  0  0
   53.0083  104.4535   33.6608 C   0  0  0  0  0  0
   51.6898  104.3548   34.4630 C   0  0  0  0  0  0
   50.6427  103.3718   33.9131 C   0  0  0  0  0  0
   52.5561   98.7321   33.3354 H   0  0  0  0  0  0
   53.4730  100.6698   34.5488 H   0  0  0  0  0  0
   53.2016  103.1051   31.0429 H   0  0  0  0  0  0
   51.2965  102.8021   28.4914 H   0  0  0  0  0  0
   53.0236  102.8755   28.8110 H   0  0  0  0  0  0
   52.4346  101.9027   27.4976 H   0  0  0  0  0  0
   50.4430   96.5171   25.8950 H   0  0  0  0  0  0
   51.2427   97.1390   28.1481 H   0  0  0  0  0  0
   49.5701  101.6720   25.0879 H   0  0  0  0  0  0
   49.2424  100.3983   23.9054 H   0  0  0  0  0  0
   54.0344  102.8903   34.7161 H   0  0  0  0  0  0
   55.7690  102.7279   32.9775 H   0  0  0  0  0  0
   55.2087  104.1431   32.3800 H   0  0  0  0  0  0
   52.7918  104.7484   32.6339 H   0  0  0  0  0  0
   53.5673  105.2931   34.0795 H   0  0  0  0  0  0
   51.2409  105.3488   34.4931 H   0  0  0  0  0  0
   51.9126  104.1035   35.5008 H   0  0  0  0  0  0
   49.6814  103.5123   34.4090 H   0  0  0  0  0  0
   50.9360  102.3369   34.0836 H   0  0  0  0  0  0
   50.4905  103.5024   32.8422 H   0  0  0  0  0  0
  1  5  2  0  0  0
  1  2  1  0  0  0
  1 23  1  0  0  0
  2  3  2  0  0  0
  2 24  1  0  0  0
  3 18  1  0  0  0
  3  4  1  0  0  0
  4  6  2  0  0  0
  4 25  1  0  0  0
  5  6  1  0  0  0
  5  9  1  0  0  0
  6  7  1  0  0  0
  7  8  2  0  0  0
  7 10  1  0  0  0
  8 11  1  0  0  0
  8  9  1  0  0  0
 10 26  1  0  0  0
 10 27  1  0  0  0
 10 28  1  0  0  0
 11 12  2  0  0  0
 11 16  1  0  0  0
 12 13  1  0  0  0
 13 14  2  0  0  0
 13 17  1  0  0  0
 14 15  1  0  0  0
 15 16  2  0  0  0
 15 29  1  0  0  0
 16 30  1  0  0  0
 17 31  1  0  0  0
 17 32  1  0  0  0
 18 19  1  0  0  0
 18 20  1  0  0  0
 18 33  1  0  0  0
 19 34  1  0  0  0
 19 35  1  0  0  0
 20 21  1  0  0  0
 20 36  1  0  0  0
 20 37  1  0  0  0
 21 22  1  0  0  0
 21 38  1  0  0  0
 21 39  1  0  0  0
 22 40  1  0  0  0
 22 41  1  0  0  0
 22 42  1  0  0  0
M  END
> <s_m_entry_id>
28391

> <s_m_entry_name>
dock_pv.552

> <s_m_Source_Path>
/home/csk/Desktop/cluster/DUD-E-result/rock1

> <s_m_Source_File>
dock_pv.maegz

> <i_m_Source_File_Index>
552

> <chembl_id>
CHEMBL1083967

> <chembl_pref_name>
None

> <i_lp_mmshare_version>
53161

> <r_lp_tautomer_probability>
0.999999987636

> <s_lp_Force_Field>
OPLS_2005

> <r_lp_Energy>
3.764449

> <b_lp_Chiralities_Consistent>
1

> <s_lp_Variant>
CHEMBL3231_lig223-2

> <s_i_glide_gridfile>
glide-grid_2etr

> <i_i_glide_lignum>
364

> <i_i_glide_rotatable_bonds>
4

> <r_i_docking_score>
-7.29308490258602

> <r_i_glide_ligand_efficiency>
-0.331503859208455

> <r_i_glide_ligand_efficiency_sa>
-0.928886850809062

> <r_i_glide_ligand_efficiency_ln>
-1.78269597192744

> <r_i_glide_gscore>
-7.29308490258602

> <r_i_glide_lipo>
-1.48159900402772

> <r_i_glide_hbond>
-0.592178413443113

> <r_i_glide_metal>
0

> <r_i_glide_rewards>
-2.9336414991611

> <r_i_glide_evdw>
-36.4144134521484

> <r_i_glide_ecoul>
-5.76147937774658

> <r_i_glide_erotb>
0.39927659331533

> <r_i_glide_esite>
0

> <r_i_glide_emodel>
-59.0643633772228

> <r_i_glide_energy>
-42.175892829895

> <r_i_glide_einternal>
2.96995425224304

> <i_i_glide_confnum>
12

> <i_i_glide_posenum>
200

> <r_i_glide_eff_state_penalty>
0

> <s_user_duplicate_titles>
CHEMBL3231_lig223,630366

> <i_f3d_flags>
0

> <s_m_subgroup_title>
dock_pv

> <s_m_subgroupid>
dock_pv

> <b_m_subgroup_collapsed>
1

$$$$
CHEMBL3231_lig197
                    3D
 Schrodinger Suite 2021-1.
 28 30  0  0  1  0            999 V2000
   53.6412  102.9302   30.9074 C   0  0  0  0  0  0
   54.2353  102.7006   32.1434 C   0  0  0  0  0  0
   54.0981  101.4785   32.7904 C   0  0  0  0  0  0
   53.3638  100.4422   32.2170 C   0  0  0  0  0  0
   52.8999  101.8884   30.3301 C   0  0  0  0  0  0
   52.7540  100.6200   30.9599 C   0  0  0  0  0  0
   51.9704   99.7002   30.1807 C   0  0  0  0  0  0
   51.6161  100.2367   28.9367 C   0  0  0  0  0  0
   52.0508  101.9373   28.8112 S   0  0  0  0  0  0
   54.8436  101.2422   34.3275 Cl  0  0  0  0  0  0
   51.6397   98.3138   30.7129 C   0  0  0  0  0  0
   50.9490   99.5899   27.7455 C   0  0  0  0  0  0
   50.3689  100.4223   26.8326 N   0  0  0  0  0  0
   49.8672   99.8581   25.7094 C   0  0  0  0  0  0
   49.8931   98.5420   25.3984 N   0  0  0  0  0  0
   50.4433   97.7263   26.3290 C   0  0  0  0  0  0
   50.9883   98.2072   27.5208 C   0  0  0  0  0  0
   49.2432  100.7029   24.8110 N   0  0  0  0  0  0
   53.7645  103.8828   30.4090 H   0  0  0  0  0  0
   54.8228  103.4845   32.5999 H   0  0  0  0  0  0
   53.2890   99.4989   32.7348 H   0  0  0  0  0  0
   51.4422   98.3259   31.7844 H   0  0  0  0  0  0
   50.7420   97.8892   30.2638 H   0  0  0  0  0  0
   52.4574   97.6102   30.5514 H   0  0  0  0  0  0
   50.4435   96.6724   26.0991 H   0  0  0  0  0  0
   51.4464   97.5244   28.2132 H   0  0  0  0  0  0
   48.9491  100.3392   23.9056 H   0  0  0  0  0  0
   49.2402  101.6930   25.0033 H   0  0  0  0  0  0
  1  5  2  0  0  0
  1  2  1  0  0  0
  1 19  1  0  0  0
  2  3  2  0  0  0
  2 20  1  0  0  0
  3  4  1  0  0  0
  3 10  1  0  0  0
  4  6  2  0  0  0
  4 21  1  0  0  0
  5  9  1  0  0  0
  5  6  1  0  0  0
  6  7  1  0  0  0
  7 11  1  0  0  0
  7  8  2  0  0  0
  8  9  1  0  0  0
  8 12  1  0  0  0
 11 22  1  0  0  0
 11 23  1  0  0  0
 11 24  1  0  0  0
 12 13  2  0  0  0
 12 17  1  0  0  0
 13 14  1  0  0  0
 14 15  2  0  0  0
 14 18  1  0  0  0
 15 16  1  0  0  0
 16 17  2  0  0  0
 16 25  1  0  0  0
 17 26  1  0  0  0
 18 27  1  0  0  0
 18 28  1  0  0  0
M  END
> <s_m_entry_id>
28392

> <s_m_entry_name>
dock_pv.553

> <s_m_Source_Path>
/home/csk/Desktop/cluster/DUD-E-result/rock1

> <s_m_Source_File>
dock_pv.maegz

> <i_m_Source_File_Index>
553

> <chembl_id>
CHEMBL1085214

> <chembl_pref_name>
None

> <i_lp_mmshare_version>
53161

> <r_lp_tautomer_probability>
0.999999987636

> <s_lp_Force_Field>
OPLS_2005

> <r_lp_Energy>
2.990549

> <b_lp_Chiralities_Consistent>
1

> <s_lp_Variant>
CHEMBL3231_lig197-1

> <s_i_glide_gridfile>
glide-grid_2etr

> <i_i_glide_lignum>
329

> <i_i_glide_rotatable_bonds>
1

> <r_i_docking_score>
-7.29008554872109

> <r_i_glide_ligand_efficiency>
-0.405004752706727

> <r_i_glide_ligand_efficiency_sa>
-1.06141271924723

> <r_i_glide_ligand_efficiency_ln>
-1.87387889959993

> <r_i_glide_gscore>
-7.29008554872109

> <r_i_glide_lipo>
-1.60899032237134

> <r_i_glide_hbond>
-0.32

> <r_i_glide_metal>
0

> <r_i_glide_rewards>
-3.0990857597194

> <r_i_glide_evdw>
-35.1279296875

> <r_i_glide_ecoul>
-4.94705867767334

> <r_i_glide_erotb>
0.236445819395648

> <r_i_glide_esite>
0

> <r_i_glide_emodel>
-56.8391228013085

> <r_i_glide_energy>
-40.0749883651733

> <r_i_glide_einternal>
0.118578359484673

> <i_i_glide_confnum>
1

> <i_i_glide_posenum>
151

> <r_i_glide_eff_state_penalty>
0

> <s_user_duplicate_titles>
CHEMBL3231_lig197

> <i_f3d_flags>
0

> <s_m_subgroup_title>
dock_pv

> <s_m_subgroupid>
dock_pv

> <b_m_subgroup_collapsed>
1

$$$$
CHEMBL3231_lig524
                    3D
 Schrodinger Suite 2021-1.
 60 64  0  0  1  0            999 V2000
   52.6910   99.2921   34.0436 C   0  0  1  0  0  0
   53.1609   99.4902   32.5793 C   0  0  0  0  0  0
   54.4758   99.7712   32.3695 C   0  0  0  0  0  0
   55.3728   99.7771   33.3958 N   0  0  0  0  0  0
   55.1203   99.3855   34.6660 C   0  0  0  0  0  0
   53.8691   98.8970   34.8618 N   0  0  0  0  0  0
   55.8983   99.5652   35.5945 O   0  0  0  0  0  0
   55.1558   99.9032   31.0137 C   0  0  0  0  0  0
   52.1630   99.3470   31.5196 C   0  0  0  0  0  0
   52.3100  100.1656   30.4533 N   0  0  0  0  0  0
   51.2428   98.5377   31.6104 O   0  0  0  0  0  0
   51.6613  100.0948   29.2082 C   0  0  0  0  0  0
   51.3611   98.8685   28.5959 C   0  0  0  0  0  0
   50.8694  101.3390   27.2542 C   0  0  0  0  0  0
   51.4213  101.2980   28.5381 C   0  0  0  0  0  0
   50.6053  100.1104   26.6417 C   0  0  0  0  0  0
   50.8395   98.8745   27.2930 C   0  0  0  0  0  0
   50.4488   97.8944   26.3335 C   0  0  0  0  0  0
   50.0430   98.4453   25.2203 N   0  0  0  0  0  0
   50.1158   99.7769   25.3933 N   0  0  0  0  0  0
   51.8494  100.4320   34.6524 C   0  0  0  0  0  0
   52.4368  101.4550   35.4127 C   0  0  0  0  0  0
   51.6574  102.4214   36.0777 C   0  0  0  0  0  0
   50.2578  102.3510   35.9646 C   0  0  0  0  0  0
   49.6664  101.3405   35.2110 C   0  0  0  0  0  0
   50.4548  100.3941   34.5584 C   0  0  0  0  0  0
   49.4503  103.2513   36.5767 F   0  0  0  0  0  0
   52.3077  103.4877   36.9298 C   0  0  0  0  0  0
   53.5205  103.9070   36.5276 N   0  0  0  0  0  0
   51.7619  103.9041   37.9531 O   0  0  0  0  0  0
   54.3496  104.8947   37.2207 C   0  0  0  0  0  0
   54.0378  106.3436   36.8279 C   0  0  0  0  0  0
   54.4352  106.8283   35.5664 C   0  0  0  0  0  0
   54.1796  108.1517   35.2092 C   0  0  0  0  0  0
   53.5186  109.0051   36.0865 C   0  0  0  0  0  0
   53.1135  108.5361   37.3334 C   0  0  0  0  0  0
   53.3700  107.2164   37.7111 C   0  0  0  0  0  0
   52.8439  106.7182   39.2838 Cl  0  0  0  0  0  0
   55.2436  105.8179   34.4160 Cl  0  0  0  0  0  0
   52.0431   98.4190   34.0981 H   0  0  0  0  0  0
   56.3473   99.9688   33.2110 H   0  0  0  0  0  0
   53.6886   98.6063   35.8101 H   0  0  0  0  0  0
   54.8431  100.8333   30.5378 H   0  0  0  0  0  0
   56.2451   99.9028   31.0873 H   0  0  0  0  0  0
   54.8823   99.0749   30.3580 H   0  0  0  0  0  0
   52.9570  100.9302   30.5646 H   0  0  0  0  0  0
   51.5635   97.9330   29.0964 H   0  0  0  0  0  0
   50.6889  102.2778   26.7506 H   0  0  0  0  0  0
   51.6747  102.2327   29.0178 H   0  0  0  0  0  0
   50.4779   96.8190   26.4399 H   0  0  0  0  0  0
   49.8353  100.4011   24.6490 H   0  0  0  0  0  0
   53.5129  101.4772   35.5146 H   0  0  0  0  0  0
   48.5895  101.2909   35.1393 H   0  0  0  0  0  0
   49.9681   99.6171   33.9889 H   0  0  0  0  0  0
   53.8449  103.6147   35.6181 H   0  0  0  0  0  0
   55.3940  104.6872   36.9846 H   0  0  0  0  0  0
   54.2881  104.7514   38.3002 H   0  0  0  0  0  0
   54.4823  108.5132   34.2352 H   0  0  0  0  0  0
   53.3198  110.0268   35.7986 H   0  0  0  0  0  0
   52.5983  109.2022   38.0099 H   0  0  0  0  0  0
  1  2  1  0  0  0
  1  6  1  0  0  0
  1 21  1  0  0  0
  1 40  1  0  0  0
  2  3  2  0  0  0
  2  9  1  0  0  0
  3  4  1  0  0  0
  3  8  1  0  0  0
  4  5  1  0  0  0
  4 41  1  0  0  0
  5  6  1  0  0  0
  5  7  2  0  0  0
  6 42  1  0  0  0
  8 43  1  0  0  0
  8 44  1  0  0  0
  8 45  1  0  0  0
  9 10  1  0  0  0
  9 11  2  0  0  0
 10 12  1  0  0  0
 10 46  1  0  0  0
 12 13  2  0  0  0
 12 15  1  0  0  0
 13 17  1  0  0  0
 13 47  1  0  0  0
 14 16  1  0  0  0
 14 15  2  0  0  0
 14 48  1  0  0  0
 15 49  1  0  0  0
 16 17  2  0  0  0
 16 20  1  0  0  0
 17 18  1  0  0  0
 18 19  2  0  0  0
 18 50  1  0  0  0
 19 20  1  0  0  0
 20 51  1  0  0  0
 21 22  2  0  0  0
 21 26  1  0  0  0
 22 23  1  0  0  0
 22 52  1  0  0  0
 23 24  2  0  0  0
 23 28  1  0  0  0
 24 25  1  0  0  0
 24 27  1  0  0  0
 25 26  2  0  0  0
 25 53  1  0  0  0
 26 54  1  0  0  0
 28 29  1  0  0  0
 28 30  2  0  0  0
 29 31  1  0  0  0
 29 55  1  0  0  0
 31 32  1  0  0  0
 31 56  1  0  0  0
 31 57  1  0  0  0
 32 33  2  0  0  0
 32 37  1  0  0  0
 33 34  1  0  0  0
 33 39  1  0  0  0
 34 35  2  0  0  0
 34 58  1  0  0  0
 35 36  1  0  0  0
 35 59  1  0  0  0
 36 37  2  0  0  0
 36 60  1  0  0  0
 37 38  1  0  0  0
M  END
> <s_m_entry_id>
28393

> <s_m_entry_name>
dock_pv.554

> <s_m_Source_Path>
/home/csk/Desktop/cluster/DUD-E-result/rock1

> <s_m_Source_File>
dock_pv.maegz

> <i_m_Source_File_Index>
554

> <chembl_id>
CHEMBL3810271

> <chembl_pref_name>
None

> <i_lp_mmshare_version>
53161

> <r_lp_tautomer_probability>
0.980392156860701

> <s_lp_Force_Field>
OPLS_2005

> <r_lp_Energy>
51.007284

> <b_lp_Chiralities_Consistent>
1

> <s_lp_Variant>
CHEMBL3231_lig524-2

> <s_i_glide_gridfile>
glide-grid_2etr

> <i_i_glide_lignum>
774

> <i_i_glide_rotatable_bonds>
8

> <r_i_docking_score>
-7.28995634469619

> <r_i_glide_ligand_efficiency>
-0.186921957556313

> <r_i_glide_ligand_efficiency_sa>
-0.633891880641475

> <r_i_glide_ligand_efficiency_ln>
-1.56317357801976

> <r_i_glide_gscore>
-7.28995634469619

> <r_i_glide_lipo>
-2.84800264010089

> <r_i_glide_hbond>
-0.162540928505992

> <r_i_glide_metal>
0

> <r_i_glide_rewards>
-1.20744385151122

> <r_i_glide_evdw>
-52.6651992797852

> <r_i_glide_ecoul>
-4.91747331619263

> <r_i_glide_erotb>
0.36567820224739

> <r_i_glide_esite>
-0.0667661654073227

> <r_i_glide_emodel>
-81.6583366950362

> <r_i_glide_energy>
-57.5826725959778

> <r_i_glide_einternal>
5.67526435852051

> <i_i_glide_confnum>
15

> <i_i_glide_posenum>
69

> <r_i_glide_eff_state_penalty>
0

> <s_user_duplicate_titles>
CHEMBL3231_lig524

> <i_f3d_flags>
0

> <s_m_subgroup_title>
dock_pv

> <s_m_subgroupid>
dock_pv

> <b_m_subgroup_collapsed>
1

$$$$
CHEMBL3231_lig766
                    3D
 Schrodinger Suite 2021-1.
 44 46  0  0  1  0            999 V2000
   50.5378  104.4543   28.8659 C   0  0  0  0  0  0
   51.0727  103.6037   29.8855 O   0  0  0  0  0  0
   51.3265  102.2713   29.5874 C   0  0  0  0  0  0
   50.9030  101.6987   28.3755 C   0  0  0  0  0  0
   51.1359  100.3589   28.0695 C   0  0  0  0  0  0
   51.8256   99.5686   28.9854 C   0  0  0  0  0  0
   52.2528  100.1068   30.1927 C   0  0  0  0  0  0
   52.0068  101.4523   30.5188 C   0  0  0  0  0  0
   52.4185  101.9589   31.8838 C   0  0  0  0  0  0
   51.7014  102.7366   32.5159 O   0  0  0  0  0  0
   53.5696  101.4422   32.3652 N   0  0  0  0  0  0
   54.0845  101.5243   33.7434 C   0  0  1  0  0  0
   55.3469  100.6218   33.8828 C   0  0  0  0  0  0
   56.0428  100.7899   35.1105 O   0  0  0  0  0  0
   54.2990  102.9576   34.2654 C   0  0  0  0  0  0
   54.7253  103.9861   33.4143 C   0  0  0  0  0  0
   54.8434  105.2924   33.8882 C   0  0  0  0  0  0
   54.5458  105.5890   35.2157 C   0  0  0  0  0  0
   54.1313  104.5727   36.0738 C   0  0  0  0  0  0
   53.9999  103.2662   35.6019 C   0  0  0  0  0  0
   53.5632  102.3068   36.4506 F   0  0  0  0  0  0
   50.6204   99.7894   26.7942 C   0  0  0  0  0  0
   50.0450  100.4598   25.7222 C   0  0  0  0  0  0
   49.7161   99.4997   24.8109 N   0  0  0  0  0  0
   50.0428   98.2697   25.2110 N   0  0  0  0  0  0
   50.5801   98.4431   26.3932 C   0  0  0  0  0  0
   50.4431  105.4816   29.2113 H   0  0  0  0  0  0
   51.2004  104.4832   28.0028 H   0  0  0  0  0  0
   49.5429  104.1363   28.5512 H   0  0  0  0  0  0
   50.3650  102.2879   27.6520 H   0  0  0  0  0  0
   52.0236   98.5278   28.7786 H   0  0  0  0  0  0
   52.7561   99.4455   30.8852 H   0  0  0  0  0  0
   54.1033  100.8581   31.7390 H   0  0  0  0  0  0
   53.3134  101.0718   34.3717 H   0  0  0  0  0  0
   55.0550   99.5734   33.8107 H   0  0  0  0  0  0
   56.0399  100.7709   33.0545 H   0  0  0  0  0  0
   56.9933  100.7016   34.9600 H   0  0  0  0  0  0
   54.9490  103.7839   32.3758 H   0  0  0  0  0  0
   55.1428  106.0806   33.2110 H   0  0  0  0  0  0
   54.6207  106.6064   35.5710 H   0  0  0  0  0  0
   53.8923  104.7964   37.1022 H   0  0  0  0  0  0
   49.8376  101.5025   25.5312 H   0  0  0  0  0  0
   49.2767   99.6779   23.9121 H   0  0  0  0  0  0
   50.9346   97.5990   26.9664 H   0  0  0  0  0  0
  1  2  1  0  0  0
  1 27  1  0  0  0
  1 28  1  0  0  0
  1 29  1  0  0  0
  2  3  1  0  0  0
  3  4  2  0  0  0
  3  8  1  0  0  0
  4  5  1  0  0  0
  4 30  1  0  0  0
  5  6  2  0  0  0
  5 22  1  0  0  0
  6  7  1  0  0  0
  6 31  1  0  0  0
  7  8  2  0  0  0
  7 32  1  0  0  0
  8  9  1  0  0  0
  9 10  2  0  0  0
  9 11  1  0  0  0
 11 12  1  0  0  0
 11 33  1  0  0  0
 12 13  1  0  0  0
 12 15  1  0  0  0
 12 34  1  0  0  0
 13 14  1  0  0  0
 13 35  1  0  0  0
 13 36  1  0  0  0
 14 37  1  0  0  0
 15 16  2  0  0  0
 15 20  1  0  0  0
 16 17  1  0  0  0
 16 38  1  0  0  0
 17 18  2  0  0  0
 17 39  1  0  0  0
 18 19  1  0  0  0
 18 40  1  0  0  0
 19 20  2  0  0  0
 19 41  1  0  0  0
 20 21  1  0  0  0
 22 23  2  0  0  0
 22 26  1  0  0  0
 23 24  1  0  0  0
 23 42  1  0  0  0
 24 25  1  0  0  0
 24 43  1  0  0  0
 25 26  2  0  0  0
 26 44  1  0  0  0
M  END
> <s_m_entry_id>
28394

> <s_m_entry_name>
dock_pv.555

> <s_m_Source_Path>
/home/csk/Desktop/cluster/DUD-E-result/rock1

> <s_m_Source_File>
dock_pv.maegz

> <i_m_Source_File_Index>
555

> <chembl_id>
CHEMBL3890689

> <chembl_pref_name>
None

> <i_lp_mmshare_version>
53161

> <r_lp_tautomer_probability>
0.5

> <s_lp_Force_Field>
OPLS_2005

> <r_lp_Energy>
22.788318

> <b_lp_Chiralities_Consistent>
1

> <s_lp_Variant>
CHEMBL3231_lig766-2

> <s_i_glide_gridfile>
glide-grid_2etr

> <i_i_glide_lignum>
1086

> <i_i_glide_rotatable_bonds>
8

> <r_i_docking_score>
-7.28676476935111

> <r_i_glide_ligand_efficiency>
-0.280260183436581

> <r_i_glide_ligand_efficiency_sa>
-0.830269690660301

> <r_i_glide_ligand_efficiency_ln>
-1.71127279625673

> <r_i_glide_gscore>
-7.28676476935111

> <r_i_glide_lipo>
-1.87093934996772

> <r_i_glide_hbond>
-0.685510070465085

> <r_i_glide_metal>
0

> <r_i_glide_rewards>
-1.95274932488098

> <r_i_glide_evdw>
-38.5347442626953

> <r_i_glide_ecoul>
-8.93872737884521

> <r_i_glide_erotb>
0.529912725680081

> <r_i_glide_esite>
-0.0399324297558573

> <r_i_glide_emodel>
-68.1029714861804

> <r_i_glide_energy>
-47.4734716415405

> <r_i_glide_einternal>
1.73339700698853

> <i_i_glide_confnum>
3

> <i_i_glide_posenum>
343

> <r_i_glide_eff_state_penalty>
0

> <s_user_duplicate_titles>
CHEMBL3231_lig766

> <i_f3d_flags>
0

> <s_m_subgroup_title>
dock_pv

> <s_m_subgroupid>
dock_pv

> <b_m_subgroup_collapsed>
1

$$$$
CHEMBL3231_lig893
                    3D
 Schrodinger Suite 2021-1.
 32 34  0  0  1  0            999 V2000
   51.3111  100.4864   33.4554 C   0  0  0  0  0  0
   52.6410  100.6947   32.6869 C   0  0  0  0  0  0
   53.8440  100.5179   33.6459 C   0  0  0  0  0  0
   52.7377   99.7902   31.4958 N   0  0  0  0  0  0
   52.7373  102.1030   32.2169 N   0  0  0  0  0  0
   52.0653  102.6257   31.1680 C   0  0  0  0  0  0
   52.0319  100.2196   30.3787 C   0  0  0  0  0  0
   51.7711  101.5863   30.2160 C   0  0  0  0  0  0
   51.0625  101.9466   28.6817 S   0  0  0  0  0  0
   51.0317  100.2689   28.2319 C   0  0  0  0  0  0
   51.4585   99.4704   29.3081 C   0  0  0  0  0  0
   51.8855  103.8374   31.0679 O   0  0  0  0  0  0
   50.5500   99.9074   26.8795 C   0  0  0  0  0  0
   50.0433  100.7527   25.8964 C   0  0  0  0  0  0
   49.7510   99.9722   24.8110 N   0  0  0  0  0  0
   50.0410   98.6896   25.0157 N   0  0  0  0  0  0
   50.5218   98.6540   26.2372 C   0  0  0  0  0  0
   52.8267   98.3659   31.8438 C   0  0  0  0  0  0
   51.2421   97.5725   29.2895 Br  0  0  0  0  0  0
   50.4444  100.5726   32.8134 H   0  0  0  0  0  0
   51.2687   99.5026   33.9210 H   0  0  0  0  0  0
   51.1981  101.2214   34.2528 H   0  0  0  0  0  0
   54.7928  100.5581   33.1115 H   0  0  0  0  0  0
   53.8705  101.3005   34.4048 H   0  0  0  0  0  0
   53.8156   99.5768   34.1922 H   0  0  0  0  0  0
   53.6033  102.5863   32.4009 H   0  0  0  0  0  0
   49.8760  101.8193   25.8802 H   0  0  0  0  0  0
   49.3631  100.3023   23.9317 H   0  0  0  0  0  0
   50.8568   97.7140   26.6474 H   0  0  0  0  0  0
   53.2908   97.8151   31.0243 H   0  0  0  0  0  0
   51.8321   97.9504   32.0249 H   0  0  0  0  0  0
   53.4449   98.1545   32.7149 H   0  0  0  0  0  0
  1  2  1  0  0  0
  1 20  1  0  0  0
  1 21  1  0  0  0
  1 22  1  0  0  0
  2  3  1  0  0  0
  2  4  1  0  0  0
  2  5  1  0  0  0
  3 23  1  0  0  0
  3 24  1  0  0  0
  3 25  1  0  0  0
  4  7  1  0  0  0
  4 18  1  0  0  0
  5  6  1  0  0  0
  5 26  1  0  0  0
  6  8  1  0  0  0
  6 12  2  0  0  0
  7  8  2  0  0  0
  7 11  1  0  0  0
  8  9  1  0  0  0
  9 10  1  0  0  0
 10 11  2  0  0  0
 10 13  1  0  0  0
 11 19  1  0  0  0
 13 14  2  0  0  0
 13 17  1  0  0  0
 14 15  1  0  0  0
 14 27  1  0  0  0
 15 16  1  0  0  0
 15 28  1  0  0  0
 16 17  2  0  0  0
 17 29  1  0  0  0
 18 30  1  0  0  0
 18 31  1  0  0  0
 18 32  1  0  0  0
M  END
> <s_m_entry_id>
28395

> <s_m_entry_name>
dock_pv.556

> <s_m_Source_Path>
/home/csk/Desktop/cluster/DUD-E-result/rock1

> <s_m_Source_File>
dock_pv.maegz

> <i_m_Source_File_Index>
556

> <chembl_id>
CHEMBL4205039

> <chembl_pref_name>
None

> <i_lp_mmshare_version>
53161

> <r_lp_tautomer_probability>
0.5

> <s_lp_Force_Field>
OPLS_2005

> <r_lp_Energy>
23.408884

> <b_lp_Chiralities_Consistent>
1

> <s_lp_Variant>
CHEMBL3231_lig893-1

> <s_i_glide_gridfile>
glide-grid_2etr

> <i_i_glide_lignum>
1277

> <i_i_glide_rotatable_bonds>
1

> <r_i_docking_score>
-7.28600889967032

> <r_i_glide_ligand_efficiency>
-0.383474152614227

> <r_i_glide_ligand_efficiency_sa>
-1.02326306007374

> <r_i_glide_ligand_efficiency_ln>
-1.84715974518892

> <r_i_glide_gscore>
-7.28600889967032

> <r_i_glide_lipo>
-1.974197540748

> <r_i_glide_hbond>
-0.575589290247837

> <r_i_glide_metal>
0

> <r_i_glide_rewards>
-2.31087092424242

> <r_i_glide_evdw>
-32.3529815673828

> <r_i_glide_ecoul>
-5.64975214004517

> <r_i_glide_erotb>
0.113908676364312

> <r_i_glide_esite>
-0.0741479214204501

> <r_i_glide_emodel>
-53.5735487863159

> <r_i_glide_energy>
-38.002733707428

> <r_i_glide_einternal>
0.837003767490387

> <i_i_glide_confnum>
3

> <i_i_glide_posenum>
89

> <r_i_glide_eff_state_penalty>
0

> <s_user_duplicate_titles>
CHEMBL3231_lig893

> <i_f3d_flags>
0

> <s_m_subgroup_title>
dock_pv

> <s_m_subgroupid>
dock_pv

> <b_m_subgroup_collapsed>
1

$$$$
CHEMBL3231_lig936
                    3D
 Schrodinger Suite 2021-1.
 40 44  0  0  1  0            999 V2000
   52.6325   99.9033   31.4316 N   0  0  0  0  0  0
   52.8523  100.6464   32.4706 C   0  0  0  0  0  0
   52.5241  101.9913   32.4450 N   0  0  0  0  0  0
   51.9187  102.7007   31.4416 C   0  0  0  0  0  0
   52.0435  100.4810   30.3448 C   0  0  0  0  0  0
   51.6741  101.8263   30.3034 C   0  0  0  0  0  0
   50.9082  102.2553   28.8110 S   0  0  0  0  0  0
   51.0963  100.6231   28.2094 C   0  0  0  0  0  0
   51.7290   99.8176   29.1594 C   0  0  0  0  0  0
   50.6282  100.2478   26.8764 C   0  0  0  0  0  0
   50.2316  101.1021   25.8635 C   0  0  0  0  0  0
   49.8847  100.3038   24.8110 N   0  0  0  0  0  0
   50.0405   99.0097   25.0736 N   0  0  0  0  0  0
   50.4620   98.9618   26.3180 C   0  0  0  0  0  0
   51.6431  103.8903   31.5705 O   0  0  0  0  0  0
   50.6998   97.6174   26.9481 C   0  0  0  0  0  0
   53.5148  100.0943   33.7533 C   0  0  1  0  0  0
   52.9896  100.6508   35.1014 C   0  0  0  0  0  0
   53.3473   99.5242   36.0823 C   0  0  0  0  0  0
   54.0248   98.5055   35.1513 C   0  0  1  0  0  0
   55.4175   98.9746   34.7020 C   0  0  0  0  0  0
   55.0632  100.1023   33.7252 C   0  0  0  0  0  0
   53.2505   98.6693   33.9370 N   0  0  2  0  0  0
   52.7485  102.5401   33.2595 H   0  0  0  0  0  0
   51.9573   98.7742   29.0183 H   0  0  0  0  0  0
   50.1627  102.1774   25.8165 H   0  0  0  0  0  0
   49.5411  100.6259   23.9131 H   0  0  0  0  0  0
   50.1239   97.5031   27.8663 H   0  0  0  0  0  0
   50.4391   96.7798   26.2993 H   0  0  0  0  0  0
   51.7492   97.5031   27.2095 H   0  0  0  0  0  0
   53.4573  101.5991   35.3698 H   0  0  0  0  0  0
   51.9084  100.8036   35.0849 H   0  0  0  0  0  0
   54.0087   99.8557   36.8838 H   0  0  0  0  0  0
   52.4499   99.1040   36.5398 H   0  0  0  0  0  0
   54.0223   97.4885   35.5476 H   0  0  0  0  0  0
   56.0327   99.3167   35.5353 H   0  0  0  0  0  0
   55.9608   98.1758   34.1936 H   0  0  0  0  0  0
   55.4623   99.8779   32.7324 H   0  0  0  0  0  0
   55.4790  101.0638   34.0308 H   0  0  0  0  0  0
   53.6741   98.1560   33.1748 H   0  0  0  0  0  0
  1  5  1  0  0  0
  1  2  2  0  0  0
  2  3  1  0  0  0
  2 17  1  0  0  0
  3  4  1  0  0  0
  3 24  1  0  0  0
  4  6  1  0  0  0
  4 15  2  0  0  0
  5  6  2  0  0  0
  5  9  1  0  0  0
  6  7  1  0  0  0
  7  8  1  0  0  0
  8  9  2  0  0  0
  8 10  1  0  0  0
  9 25  1  0  0  0
 10 11  2  0  0  0
 10 14  1  0  0  0
 11 12  1  0  0  0
 11 26  1  0  0  0
 12 13  1  0  0  0
 12 27  1  0  0  0
 13 14  2  0  0  0
 14 16  1  0  0  0
 16 28  1  0  0  0
 16 29  1  0  0  0
 16 30  1  0  0  0
 17 18  1  0  0  0
 17 22  1  0  0  0
 17 23  1  0  0  0
 18 19  1  0  0  0
 18 31  1  0  0  0
 18 32  1  0  0  0
 19 20  1  0  0  0
 19 33  1  0  0  0
 19 34  1  0  0  0
 20 21  1  0  0  0
 20 23  1  0  0  0
 20 35  1  0  0  0
 21 22  1  0  0  0
 21 36  1  0  0  0
 21 37  1  0  0  0
 22 38  1  0  0  0
 22 39  1  0  0  0
 23 40  1  0  0  0
M  END
> <s_m_entry_id>
28396

> <s_m_entry_name>
dock_pv.557

> <s_m_Source_Path>
/home/csk/Desktop/cluster/DUD-E-result/rock1

> <s_m_Source_File>
dock_pv.maegz

> <i_m_Source_File_Index>
557

> <chembl_id>
CHEMBL4462898

> <chembl_pref_name>
None

> <i_lp_mmshare_version>
53161

> <r_lp_tautomer_probability>
0.5

> <s_lp_Force_Field>
OPLS_2005

> <r_lp_Energy>
57.48166

> <b_lp_Chiralities_Consistent>
1

> <s_lp_Variant>
CHEMBL3231_lig936-1

> <s_i_glide_gridfile>
glide-grid_2etr

> <i_i_glide_lignum>
1347

> <i_i_glide_rotatable_bonds>
2

> <r_i_docking_score>
-7.28430751222743

> <r_i_glide_ligand_efficiency>
-0.316709022270758

> <r_i_glide_ligand_efficiency_sa>
-0.900678329715525

> <r_i_glide_ligand_efficiency_ln>
-1.76141160690532

> <r_i_glide_gscore>
-7.28430751222743

> <r_i_glide_lipo>
-1.99777219409418

> <r_i_glide_hbond>
-0.355937655996204

> <r_i_glide_metal>
0

> <r_i_glide_rewards>
-2.42178354545455

> <r_i_glide_evdw>
-36.9813003540039

> <r_i_glide_ecoul>
-6.54863262176514

> <r_i_glide_erotb>
0.350163590402104

> <r_i_glide_esite>
-0.0276177961196352

> <r_i_glide_emodel>
-63.5029957503937

> <r_i_glide_energy>
-43.529932975769

> <r_i_glide_einternal>
0.251381129026413

> <i_i_glide_confnum>
8

> <i_i_glide_posenum>
95

> <r_i_glide_eff_state_penalty>
0

> <s_user_duplicate_titles>
CHEMBL3231_lig936

> <i_f3d_flags>
0

> <s_m_subgroup_title>
dock_pv

> <s_m_subgroupid>
dock_pv

> <b_m_subgroup_collapsed>
1

$$$$
CHEMBL3231_lig2084
                    3D
 Schrodinger Suite 2021-1.
 45 48  0  0  1  0            999 V2000
   51.6946  100.5068   28.5341 C   0  0  0  0  0  0
   52.3045   99.8528   29.5118 N   0  0  0  0  0  0
   52.7630  100.6451   30.4490 C   0  0  0  0  0  0
   52.5072  102.3369   30.1782 S   0  0  0  0  0  0
   51.6862  101.8976   28.7095 C   0  0  0  0  0  0
   53.3808  100.2094   31.6142 N   0  0  0  0  0  0
   51.1011   99.7427   27.3888 C   0  0  0  0  0  0
   50.9748   98.3437   27.4353 C   0  0  0  0  0  0
   50.4437   97.6703   26.3369 C   0  0  0  0  0  0
   50.0427   98.3062   25.2108 N   0  0  0  0  0  0
   50.1445   99.6579   25.1750 C   0  0  0  0  0  0
   50.6669  100.4063   26.2313 C   0  0  0  0  0  0
   54.8571  100.1394   31.5759 C   0  0  0  0  0  0
   55.4933   99.8568   32.9435 C   0  0  0  0  0  0
   54.6806   98.8461   33.7495 C   0  0  0  0  0  0
   53.2135   99.3094   33.9299 C   0  0  2  0  0  0
   52.5475   99.6742   32.5688 C   0  0  0  0  0  0
   51.3326   99.5036   32.4100 O   0  0  0  0  0  0
   52.9375  100.4355   34.9595 C   0  0  0  0  0  0
   51.6191  100.8492   35.2184 C   0  0  0  0  0  0
   51.3339  101.8788   36.1282 C   0  0  0  0  0  0
   52.3925  102.4808   36.8081 C   0  0  0  0  0  0
   53.7018  102.0554   36.6062 C   0  0  0  0  0  0
   53.9706  101.0368   35.6952 C   0  0  0  0  0  0
   50.0656  102.3505   36.4106 O   0  0  0  0  0  0
   48.9470  101.7784   35.7407 C   0  0  0  0  0  0
   51.2600  102.6570   28.0732 H   0  0  0  0  0  0
   51.2870   97.7793   28.3030 H   0  0  0  0  0  0
   50.3544   96.5945   26.3455 H   0  0  0  0  0  0
   49.8044  100.1401   24.2687 H   0  0  0  0  0  0
   50.7400  101.4792   26.1383 H   0  0  0  0  0  0
   55.1422   99.3612   30.8652 H   0  0  0  0  0  0
   55.2388  101.0904   31.2110 H   0  0  0  0  0  0
   56.5215   99.5101   32.8103 H   0  0  0  0  0  0
   55.5797  100.8008   33.4796 H   0  0  0  0  0  0
   55.1530   98.6505   34.7122 H   0  0  0  0  0  0
   54.6993   97.8873   33.2258 H   0  0  0  0  0  0
   52.6584   98.4522   34.3145 H   0  0  0  0  0  0
   50.8103  100.3664   34.6952 H   0  0  0  0  0  0
   52.1905  103.2721   37.5150 H   0  0  0  0  0  0
   54.5131  102.5163   37.1519 H   0  0  0  0  0  0
   54.9989  100.7309   35.5798 H   0  0  0  0  0  0
   48.0351  102.2790   36.0628 H   0  0  0  0  0  0
   49.0203  101.9050   34.6585 H   0  0  0  0  0  0
   48.8430  100.7169   35.9735 H   0  0  0  0  0  0
  1  2  1  0  0  0
  1  5  2  0  0  0
  1  7  1  0  0  0
  2  3  2  0  0  0
  3  4  1  0  0  0
  3  6  1  0  0  0
  4  5  1  0  0  0
  5 27  1  0  0  0
  6 13  1  0  0  0
  6 17  1  0  0  0
  7  8  2  0  0  0
  7 12  1  0  0  0
  8  9  1  0  0  0
  8 28  1  0  0  0
  9 10  2  0  0  0
  9 29  1  0  0  0
 10 11  1  0  0  0
 11 12  2  0  0  0
 11 30  1  0  0  0
 12 31  1  0  0  0
 13 14  1  0  0  0
 13 32  1  0  0  0
 13 33  1  0  0  0
 14 15  1  0  0  0
 14 34  1  0  0  0
 14 35  1  0  0  0
 15 16  1  0  0  0
 15 36  1  0  0  0
 15 37  1  0  0  0
 16 17  1  0  0  0
 16 19  1  0  0  0
 16 38  1  0  0  0
 17 18  2  0  0  0
 19 20  2  0  0  0
 19 24  1  0  0  0
 20 21  1  0  0  0
 20 39  1  0  0  0
 21 22  2  0  0  0
 21 25  1  0  0  0
 22 23  1  0  0  0
 22 40  1  0  0  0
 23 24  2  0  0  0
 23 41  1  0  0  0
 24 42  1  0  0  0
 25 26  1  0  0  0
 26 43  1  0  0  0
 26 44  1  0  0  0
 26 45  1  0  0  0
M  END
> <s_m_entry_id>
28397

> <s_m_entry_name>
dock_pv.558

> <s_m_Source_Path>
/home/csk/Desktop/cluster/DUD-E-result/rock1

> <s_m_Source_File>
dock_pv.maegz

> <i_m_Source_File_Index>
558

> <chembl_id>
CHEMBL3581129

> <chembl_pref_name>
None

> <i_lp_mmshare_version>
53161

> <r_lp_tautomer_probability>
1

> <s_lp_Force_Field>
OPLS_2005

> <r_lp_Energy>
33.147932

> <b_lp_Chiralities_Consistent>
1

> <s_lp_Variant>
CHEMBL3231_lig2084-1

> <s_i_glide_gridfile>
glide-grid_2etr

> <i_i_glide_lignum>
3011

> <i_i_glide_rotatable_bonds>
4

> <r_i_docking_score>
-7.28393992750822

> <r_i_glide_ligand_efficiency>
-0.280151535673393

> <r_i_glide_ligand_efficiency_sa>
-0.829947822089364

> <r_i_glide_ligand_efficiency_ln>
-1.71060939141899

> <r_i_glide_gscore>
-7.28393992750822

> <r_i_glide_lipo>
-2.51147310032896

> <r_i_glide_hbond>
-0.234706819518394

> <r_i_glide_metal>
0

> <r_i_glide_rewards>
-2.28405466117158

> <r_i_glide_evdw>
-42.0039482116699

> <r_i_glide_ecoul>
-3.73294925689697

> <r_i_glide_erotb>
0.432102568026001

> <r_i_glide_esite>
-0.0256681153972419

> <r_i_glide_emodel>
-61.1106072904225

> <r_i_glide_energy>
-45.7368974685669

> <r_i_glide_einternal>
10.3168964385986

> <i_i_glide_confnum>
29

> <i_i_glide_posenum>
298

> <r_i_glide_eff_state_penalty>
0

> <s_user_duplicate_titles>
CHEMBL3231_lig2084

> <i_f3d_flags>
0

> <s_m_subgroup_title>
dock_pv

> <s_m_subgroupid>
dock_pv

> <b_m_subgroup_collapsed>
1

$$$$
CHEMBL3231_lig965 
                    3D
 Schrodinger Suite 2021-1.
 60 63  0  0  1  0            999 V2000
   50.4432   97.7830   26.3945 C   0  0  0  0  0  0
   50.0434   98.3031   25.2105 N   0  0  0  0  0  0
   50.0906   99.6500   25.0597 C   0  0  0  0  0  0
   50.5384  100.5082   26.0649 C   0  0  0  0  0  0
   50.9484   99.9685   27.2949 C   0  0  0  0  0  0
   50.8895   98.5738   27.4502 C   0  0  0  0  0  0
   51.4206  100.8417   28.4074 C   0  0  0  0  0  0
   52.4387  100.4057   29.2619 C   0  0  0  0  0  0
   52.8391  101.1741   30.3475 C   0  0  0  0  0  0
   52.2258  102.4063   30.6053 C   0  0  0  0  0  0
   51.2404  102.8698   29.7254 C   0  0  0  0  0  0
   50.8423  102.0942   28.6410 C   0  0  0  0  0  0
   52.5499  103.1804   31.8592 C   0  0  0  0  0  0
   53.7812  102.9883   32.3662 N   0  0  0  0  0  0
   51.6994  103.8995   32.3875 O   0  0  0  0  0  0
   54.2073  103.2905   33.7374 C   0  0  1  0  0  0
   54.3811  102.0017   34.5486 C   0  0  0  0  0  0
   55.1684  100.9472   34.0684 C   0  0  0  0  0  0
   55.3546   99.8007   34.8385 C   0  0  0  0  0  0
   54.7544   99.6951   36.0934 C   0  0  0  0  0  0
   53.9524  100.7374   36.5882 C   0  0  0  0  0  0
   53.7716  101.8781   35.8037 C   0  0  0  0  0  0
   53.3232  100.7297   37.8175 O   0  0  0  0  0  0
   53.5445   99.6382   38.7011 C   0  0  0  0  0  0
   55.5019  104.1426   33.7444 C   0  0  0  0  0  0
   55.2456  105.6660   33.7884 C   0  0  0  0  0  0
   55.2408  106.2081   35.1522 N   0  0  0  0  0  0
   54.1295  105.7903   35.9970 C   0  0  0  0  0  0
   54.1331  106.7793   37.1685 C   0  0  0  0  0  0
   54.7823  108.0397   36.5867 C   0  0  0  0  0  0
   55.1006  107.6548   35.1396 C   0  0  0  0  0  0
   50.4043   96.7076   26.4830 H   0  0  0  0  0  0
   49.7698  100.0418   24.1040 H   0  0  0  0  0  0
   50.5676  101.5730   25.8829 H   0  0  0  0  0  0
   51.1812   98.1037   28.3784 H   0  0  0  0  0  0
   52.9209   99.4526   29.1023 H   0  0  0  0  0  0
   53.6022  100.7715   30.9999 H   0  0  0  0  0  0
   50.7560  103.8194   29.8882 H   0  0  0  0  0  0
   50.0564  102.4625   27.9977 H   0  0  0  0  0  0
   54.4714  102.5506   31.7754 H   0  0  0  0  0  0
   53.4189  103.8628   34.2299 H   0  0  0  0  0  0
   55.6435  101.0168   33.1016 H   0  0  0  0  0  0
   55.9747   98.9970   34.4635 H   0  0  0  0  0  0
   54.9268   98.7981   36.6686 H   0  0  0  0  0  0
   53.1581  102.6771   36.1924 H   0  0  0  0  0  0
   52.9382   99.7833   39.5978 H   0  0  0  0  0  0
   53.2436   98.6876   38.2549 H   0  0  0  0  0  0
   54.5924   99.5760   38.9999 H   0  0  0  0  0  0
   56.1209  103.9053   32.8781 H   0  0  0  0  0  0
   56.0898  103.8667   34.6241 H   0  0  0  0  0  0
   54.2975  105.9002   33.3003 H   0  0  0  0  0  0
   56.0198  106.1739   33.2119 H   0  0  0  0  0  0
   54.3033  104.7666   36.3308 H   0  0  0  0  0  0
   53.1809  105.7802   35.4556 H   0  0  0  0  0  0
   54.7017  106.3824   38.0108 H   0  0  0  0  0  0
   53.1190  106.9678   37.5195 H   0  0  0  0  0  0
   54.1092  108.8965   36.6209 H   0  0  0  0  0  0
   55.6912  108.3104   37.1293 H   0  0  0  0  0  0
   54.3452  108.0026   34.4288 H   0  0  0  0  0  0
   56.0398  108.0748   34.7897 H   0  0  0  0  0  0
  1  2  2  0  0  0
  1  6  1  0  0  0
  1 32  1  0  0  0
  2  3  1  0  0  0
  3  4  2  0  0  0
  3 33  1  0  0  0
  4  5  1  0  0  0
  4 34  1  0  0  0
  5  6  2  0  0  0
  5  7  1  0  0  0
  6 35  1  0  0  0
  7  8  2  0  0  0
  7 12  1  0  0  0
  8  9  1  0  0  0
  8 36  1  0  0  0
  9 10  2  0  0  0
  9 37  1  0  0  0
 10 11  1  0  0  0
 10 13  1  0  0  0
 11 12  2  0  0  0
 11 38  1  0  0  0
 12 39  1  0  0  0
 13 14  1  0  0  0
 13 15  2  0  0  0
 14 16  1  0  0  0
 14 40  1  0  0  0
 16 17  1  0  0  0
 16 25  1  0  0  0
 16 41  1  0  0  0
 17 18  2  0  0  0
 17 22  1  0  0  0
 18 19  1  0  0  0
 18 42  1  0  0  0
 19 20  2  0  0  0
 19 43  1  0  0  0
 20 21  1  0  0  0
 20 44  1  0  0  0
 21 22  2  0  0  0
 21 23  1  0  0  0
 22 45  1  0  0  0
 23 24  1  0  0  0
 24 46  1  0  0  0
 24 47  1  0  0  0
 24 48  1  0  0  0
 25 26  1  0  0  0
 25 49  1  0  0  0
 25 50  1  0  0  0
 26 27  1  0  0  0
 26 51  1  0  0  0
 26 52  1  0  0  0
 27 28  1  0  0  0
 27 31  1  0  0  0
 28 29  1  0  0  0
 28 53  1  0  0  0
 28 54  1  0  0  0
 29 30  1  0  0  0
 29 55  1  0  0  0
 29 56  1  0  0  0
 30 31  1  0  0  0
 30 57  1  0  0  0
 30 58  1  0  0  0
 31 59  1  0  0  0
 31 60  1  0  0  0
M  END
> <s_m_entry_id>
28398

> <s_m_entry_name>
dock_pv.559

> <s_m_Source_Path>
/home/csk/Desktop/cluster/DUD-E-result/rock1

> <s_m_Source_File>
dock_pv.maegz

> <i_m_Source_File_Index>
559

> <chembl_id>
CHEMBL4583341

> <chembl_pref_name>
None

> <i_lp_mmshare_version>
53161

> <r_lp_tautomer_probability>
1

> <s_lp_Force_Field>
OPLS_2005

> <r_lp_Energy>
39.449898

> <b_lp_Chiralities_Consistent>
1

> <s_lp_Variant>
CHEMBL3231_lig965 -1

> <s_i_glide_gridfile>
glide-grid_2etr

> <i_i_glide_lignum>
1379

> <i_i_glide_rotatable_bonds>
9

> <r_i_docking_score>
-7.28341257351178

> <r_i_glide_ligand_efficiency>
-0.234948792693928

> <r_i_glide_ligand_efficiency_sa>
-0.738063590826589

> <r_i_glide_ligand_efficiency_ln>
-1.6426327451158

> <r_i_glide_gscore>
-7.28341257351178

> <r_i_glide_lipo>
-2.17152868261502

> <r_i_glide_hbond>
-0.45793382478465

> <r_i_glide_metal>
0

> <r_i_glide_rewards>
-1.90236504726695

> <r_i_glide_evdw>
-41.0229835510254

> <r_i_glide_ecoul>
-9.53801441192627

> <r_i_glide_erotb>
0.800594828761466

> <r_i_glide_esite>
-0.0703285082664062

> <r_i_glide_emodel>
-70.3050237893823

> <r_i_glide_energy>
-50.5609979629517

> <r_i_glide_einternal>
6.97332859039307

> <i_i_glide_confnum>
14

> <i_i_glide_posenum>
67

> <r_i_glide_eff_state_penalty>
0

> <s_user_duplicate_titles>
CHEMBL3231_lig965 

> <i_f3d_flags>
0

> <s_m_subgroup_title>
dock_pv

> <s_m_subgroupid>
dock_pv

> <b_m_subgroup_collapsed>
1

$$$$
CHEMBL3231_lig1043 
                    3D
 Schrodinger Suite 2021-1.
 28 29  0  0  1  0            999 V2000
   52.1378   98.6691   31.7024 O   0  0  0  0  0  0
   53.3373   99.4178   32.0897 S   0  0  0  0  0  0
   53.7641   99.4867   33.4901 O   0  0  0  0  0  0
   50.4239  100.5594   25.9943 C   0  0  0  0  0  0
   50.8262  100.0899   27.2558 C   0  0  0  0  0  0
   50.8384   98.6975   27.4535 C   0  0  0  0  0  0
   50.0433   99.6468   25.0101 C   0  0  0  0  0  0
   50.0429   98.3057   25.2111 N   0  0  0  0  0  0
   50.4430   97.8508   26.4201 C   0  0  0  0  0  0
   51.2013  101.0311   28.3562 C   0  0  0  0  0  0
   51.7715  102.7836   30.4335 C   0  0  0  0  0  0
   50.9798  103.2067   29.4170 N   0  0  0  0  0  0
   50.7077  102.3420   28.4107 C   0  0  0  0  0  0
   52.3287  101.4961   30.4706 C   0  0  0  0  0  0
   52.0396  100.6332   29.4071 C   0  0  0  0  0  0
   53.1140  101.0957   31.5660 N   0  0  0  0  0  0
   54.7921   98.8604   31.0436 C   0  0  0  0  0  0
   52.0446  103.9030   31.7224 Cl  0  0  0  0  0  0
   50.4012  101.6150   25.7665 H   0  0  0  0  0  0
   51.1200   98.2628   28.4009 H   0  0  0  0  0  0
   49.7254   99.9873   24.0337 H   0  0  0  0  0  0
   50.4431   96.7780   26.5548 H   0  0  0  0  0  0
   50.0443  102.7266   27.6494 H   0  0  0  0  0  0
   52.4590   99.6405   29.4030 H   0  0  0  0  0  0
   53.4608  101.8089   32.1896 H   0  0  0  0  0  0
   55.0373   97.8310   31.3007 H   0  0  0  0  0  0
   55.6429   99.5038   31.2650 H   0  0  0  0  0  0
   54.5410   98.9366   29.9891 H   0  0  0  0  0  0
  1  2  2  0  0  0
  2  3  2  0  0  0
  2 16  1  0  0  0
  2 17  1  0  0  0
  4  5  2  0  0  0
  4  7  1  0  0  0
  4 19  1  0  0  0
  5  6  1  0  0  0
  5 10  1  0  0  0
  6  9  2  0  0  0
  6 20  1  0  0  0
  7  8  2  0  0  0
  7 21  1  0  0  0
  8  9  1  0  0  0
  9 22  1  0  0  0
 10 15  2  0  0  0
 10 13  1  0  0  0
 11 14  2  0  0  0
 11 12  1  0  0  0
 11 18  1  0  0  0
 12 13  2  0  0  0
 13 23  1  0  0  0
 14 15  1  0  0  0
 14 16  1  0  0  0
 15 24  1  0  0  0
 16 25  1  0  0  0
 17 26  1  0  0  0
 17 27  1  0  0  0
 17 28  1  0  0  0
M  END
> <s_m_entry_id>
28399

> <s_m_entry_name>
dock_pv.560

> <s_m_Source_Path>
/home/csk/Desktop/cluster/DUD-E-result/rock1

> <s_m_Source_File>
dock_pv.maegz

> <i_m_Source_File_Index>
560

> <chembl_id>
CHEMBL4474208

> <chembl_pref_name>
None

> <i_lp_mmshare_version>
53161

> <r_lp_tautomer_probability>
1

> <s_lp_Force_Field>
OPLS_2005

> <r_lp_Energy>
-0.743142

> <b_lp_Chiralities_Consistent>
1

> <s_lp_Variant>
CHEMBL3231_lig1043 -1

> <s_i_glide_gridfile>
glide-grid_2etr

> <i_i_glide_lignum>
1458

> <i_i_glide_rotatable_bonds>
3

> <r_i_docking_score>
-7.28338231494169

> <r_i_glide_ligand_efficiency>
-0.404632350830094

> <r_i_glide_ligand_efficiency_sa>
-1.0604367502348

> <r_i_glide_ligand_efficiency_ln>
-1.87215586792158

> <r_i_glide_gscore>
-7.28338231494169

> <r_i_glide_lipo>
-2.18117601807669

> <r_i_glide_hbond>
-0.234830954617561

> <r_i_glide_metal>
0

> <r_i_glide_rewards>
-2.85786946969697

> <r_i_glide_evdw>
-35.6496505737305

> <r_i_glide_ecoul>
-4.15764904022217

> <r_i_glide_erotb>
0.450041491135883

> <r_i_glide_esite>
-0.0534174789664986

> <r_i_glide_emodel>
-57.8970623407561

> <r_i_glide_energy>
-39.8072996139526

> <r_i_glide_einternal>
0.357723742723465

> <i_i_glide_confnum>
2

> <i_i_glide_posenum>
368

> <r_i_glide_eff_state_penalty>
0

> <s_user_duplicate_titles>
CHEMBL3231_lig1043 

> <i_f3d_flags>
0

> <s_m_subgroup_title>
dock_pv

> <s_m_subgroupid>
dock_pv

> <b_m_subgroup_collapsed>
1

$$$$
CHEMBL3231_lig108
                    3D
 Schrodinger Suite 2021-1.
 43 46  0  0  1  0            999 V2000
   50.5295   97.9755   26.5300 C   0  0  0  0  0  0
   50.0439   98.3079   25.3104 N   0  0  0  0  0  0
   49.9794   99.6273   25.0064 C   0  0  0  0  0  0
   50.3397  100.6447   25.8906 C   0  0  0  0  0  0
   50.9630   98.9104   27.4996 C   0  0  0  0  0  0
   50.8445  100.2910   27.1679 C   0  0  0  0  0  0
   51.2507  101.2585   28.1149 C   0  0  0  0  0  0
   51.8052  100.8829   29.3439 C   0  0  0  0  0  0
   51.9585   99.5208   29.6389 C   0  0  0  0  0  0
   51.5159   98.5448   28.7472 C   0  0  0  0  0  0
   52.2712  101.9323   30.2885 C   0  0  0  0  0  0
   51.8886  101.9268   31.6358 C   0  0  0  0  0  0
   52.3522  102.9111   32.5062 C   0  0  0  0  0  0
   53.2096  103.9005   32.0309 C   0  0  0  0  0  0
   53.6093  103.9029   30.6982 C   0  0  0  0  0  0
   53.1369  102.9282   29.8343 C   0  0  0  0  0  0
   52.5790   99.1255   30.7999 O   0  0  0  0  0  0
   53.9607   98.7828   30.6510 C   0  0  0  0  0  0
   54.8432   99.7892   31.4176 C   0  0  0  0  0  0
   54.7449   99.6387   32.9468 C   0  0  0  0  0  0
   55.0868   98.2706   33.3295 N   0  0  1  0  0  0
   54.1342   97.3189   32.7615 C   0  0  0  0  0  0
   54.1872   97.3697   31.2213 C   0  0  0  0  0  0
   50.5969   96.9187   26.7444 H   0  0  0  0  0  0
   49.6279   99.8710   24.0146 H   0  0  0  0  0  0
   50.2555  101.6845   25.6114 H   0  0  0  0  0  0
   51.1476  102.3036   27.8637 H   0  0  0  0  0  0
   51.6338   97.5029   28.9957 H   0  0  0  0  0  0
   51.2437  101.1469   32.0120 H   0  0  0  0  0  0
   52.0577  102.9009   33.5455 H   0  0  0  0  0  0
   53.5735  104.6717   32.6953 H   0  0  0  0  0  0
   54.2605  104.6711   30.3143 H   0  0  0  0  0  0
   53.4696  102.9374   28.8113 H   0  0  0  0  0  0
   54.3070   98.7774   29.6131 H   0  0  0  0  0  0
   54.6040  100.8089   31.1248 H   0  0  0  0  0  0
   55.8891   99.6583   31.1346 H   0  0  0  0  0  0
   53.7353   99.8694   33.2924 H   0  0  0  0  0  0
   55.4264  100.3315   33.4436 H   0  0  0  0  0  0
   55.9942   98.0722   32.9172 H   0  0  0  0  0  0
   53.1291   97.5492   33.1191 H   0  0  0  0  0  0
   54.3807   96.3178   33.1186 H   0  0  0  0  0  0
   55.1476   96.9691   30.8918 H   0  0  0  0  0  0
   53.4291   96.7031   30.8158 H   0  0  0  0  0  0
  1  5  2  0  0  0
  1  2  1  0  0  0
  1 24  1  0  0  0
  2  3  2  0  0  0
  3  4  1  0  0  0
  3 25  1  0  0  0
  4  6  2  0  0  0
  4 26  1  0  0  0
  5  6  1  0  0  0
  5 10  1  0  0  0
  6  7  1  0  0  0
  7  8  2  0  0  0
  7 27  1  0  0  0
  8 11  1  0  0  0
  8  9  1  0  0  0
  9 17  1  0  0  0
  9 10  2  0  0  0
 10 28  1  0  0  0
 11 12  2  0  0  0
 11 16  1  0  0  0
 12 13  1  0  0  0
 12 29  1  0  0  0
 13 14  2  0  0  0
 13 30  1  0  0  0
 14 15  1  0  0  0
 14 31  1  0  0  0
 15 16  2  0  0  0
 15 32  1  0  0  0
 16 33  1  0  0  0
 17 18  1  0  0  0
 18 19  1  0  0  0
 18 23  1  0  0  0
 18 34  1  0  0  0
 19 20  1  0  0  0
 19 35  1  0  0  0
 19 36  1  0  0  0
 20 21  1  0  0  0
 20 37  1  0  0  0
 20 38  1  0  0  0
 21 22  1  0  0  0
 21 39  1  0  0  0
 22 23  1  0  0  0
 22 40  1  0  0  0
 22 41  1  0  0  0
 23 42  1  0  0  0
 23 43  1  0  0  0
M  END
> <s_m_entry_id>
28400

> <s_m_entry_name>
dock_pv.561

> <s_m_Source_Path>
/home/csk/Desktop/cluster/DUD-E-result/rock1

> <s_m_Source_File>
dock_pv.maegz

> <i_m_Source_File_Index>
561

> <chembl_id>
CHEMBL484968

> <chembl_pref_name>
None

> <i_lp_mmshare_version>
53161

> <r_lp_tautomer_probability>
1

> <s_lp_Force_Field>
OPLS_2005

> <r_lp_Energy>
31.952228

> <b_lp_Chiralities_Consistent>
1

> <s_lp_Variant>
CHEMBL3231_lig108-1

> <s_i_glide_gridfile>
glide-grid_2etr

> <i_i_glide_lignum>
210

> <i_i_glide_rotatable_bonds>
3

> <r_i_docking_score>
-7.28198052583735

> <r_i_glide_ligand_efficiency>
-0.31660784894945

> <r_i_glide_ligand_efficiency_sa>
-0.900390606248116

> <r_i_glide_ligand_efficiency_ln>
-1.76084892049625

> <r_i_glide_gscore>
-7.28198052583735

> <r_i_glide_lipo>
-2.46113875073042

> <r_i_glide_hbond>
-0.168422885850393

> <r_i_glide_metal>
0

> <r_i_glide_rewards>
-2.53287167449408

> <r_i_glide_evdw>
-39.2817001342773

> <r_i_glide_ecoul>
-5.01726913452148

> <r_i_glide_erotb>
0.597128162129636

> <r_i_glide_esite>
0

> <r_i_glide_emodel>
-61.2616075049114

> <r_i_glide_energy>
-44.2989692687988

> <r_i_glide_einternal>
5.78340578079224

> <i_i_glide_confnum>
51

> <i_i_glide_posenum>
385

> <r_i_glide_eff_state_penalty>
0

> <s_user_duplicate_titles>
CHEMBL3231_lig108,520384

> <i_f3d_flags>
0

> <s_m_subgroup_title>
dock_pv

> <s_m_subgroupid>
dock_pv

> <b_m_subgroup_collapsed>
1

$$$$
CHEMBL3231_lig629
                    3D
 Schrodinger Suite 2021-1.
 44 46  0  0  1  0            999 V2000
   56.8353  102.5677   37.3280 C   0  0  0  0  0  0
   55.9607  103.6904   37.2498 O   0  0  0  0  0  0
   55.3637  103.9951   36.0418 C   0  0  0  0  0  0
   54.5258  105.1112   36.0208 C   0  0  0  0  0  0
   53.8998  105.5077   34.8404 C   0  0  0  0  0  0
   54.1085  104.7882   33.6644 C   0  0  0  0  0  0
   54.9418  103.6711   33.6587 C   0  0  0  0  0  0
   55.2219  102.8908   32.3781 C   0  0  0  0  0  0
   54.1823  102.7182   31.3537 N   0  0  0  0  0  0
   52.8713  102.4617   31.4933 C   0  0  0  0  0  0
   52.2079  102.6446   32.5145 O   0  0  0  0  0  0
   52.2493  101.8506   30.2719 C   0  0  0  0  0  0
   52.5693  100.5233   29.9617 C   0  0  0  0  0  0
   52.0335   99.9097   28.8344 C   0  0  0  0  0  0
   51.1725  100.6113   27.9919 C   0  0  0  0  0  0
   50.8478  101.9347   28.3046 C   0  0  0  0  0  0
   51.3867  102.5797   29.4317 C   0  0  0  0  0  0
   51.1119  103.9024   29.7391 O   0  0  0  0  0  0
   50.4068  104.7074   28.7964 C   0  0  0  0  0  0
   50.6194   99.9738   26.7626 C   0  0  0  0  0  0
   50.5996   98.6153   26.3904 C   0  0  0  0  0  0
   50.0429   98.3978   25.2202 N   0  0  0  0  0  0
   49.6749   99.6123   24.8101 N   0  0  0  0  0  0
   50.0036  100.6003   25.6910 C   0  0  0  0  0  0
   55.5609  103.2753   34.8507 C   0  0  0  0  0  0
   57.1943  102.4576   38.3510 H   0  0  0  0  0  0
   56.3288  101.6407   37.0567 H   0  0  0  0  0  0
   57.7075  102.6987   36.6877 H   0  0  0  0  0  0
   54.3638  105.6762   36.9276 H   0  0  0  0  0  0
   53.2585  106.3777   34.8269 H   0  0  0  0  0  0
   53.6320  105.1074   32.7486 H   0  0  0  0  0  0
   56.0421  103.4212   31.8972 H   0  0  0  0  0  0
   55.5975  101.8943   32.6173 H   0  0  0  0  0  0
   54.5592  102.5590   30.4298 H   0  0  0  0  0  0
   53.2422   99.9561   30.5920 H   0  0  0  0  0  0
   52.3034   98.8870   28.6175 H   0  0  0  0  0  0
   50.1753  102.4624   27.6478 H   0  0  0  0  0  0
   50.4105  105.7439   29.1318 H   0  0  0  0  0  0
   50.8711  104.6935   27.8092 H   0  0  0  0  0  0
   49.3672  104.3906   28.7016 H   0  0  0  0  0  0
   50.9939   97.7960   26.9728 H   0  0  0  0  0  0
   49.2235   99.7663   23.9120 H   0  0  0  0  0  0
   49.7705  101.6338   25.4835 H   0  0  0  0  0  0
   56.2121  102.4150   34.8339 H   0  0  0  0  0  0
  1  2  1  0  0  0
  1 26  1  0  0  0
  1 27  1  0  0  0
  1 28  1  0  0  0
  2  3  1  0  0  0
  3  4  2  0  0  0
  3 25  1  0  0  0
  4  5  1  0  0  0
  4 29  1  0  0  0
  5  6  2  0  0  0
  5 30  1  0  0  0
  6  7  1  0  0  0
  6 31  1  0  0  0
  7  8  1  0  0  0
  7 25  2  0  0  0
  8  9  1  0  0  0
  8 32  1  0  0  0
  8 33  1  0  0  0
  9 10  1  0  0  0
  9 34  1  0  0  0
 10 11  2  0  0  0
 10 12  1  0  0  0
 12 13  2  0  0  0
 12 17  1  0  0  0
 13 14  1  0  0  0
 13 35  1  0  0  0
 14 15  2  0  0  0
 14 36  1  0  0  0
 15 16  1  0  0  0
 15 20  1  0  0  0
 16 17  2  0  0  0
 16 37  1  0  0  0
 17 18  1  0  0  0
 18 19  1  0  0  0
 19 38  1  0  0  0
 19 39  1  0  0  0
 19 40  1  0  0  0
 20 21  1  0  0  0
 20 24  2  0  0  0
 21 22  2  0  0  0
 21 41  1  0  0  0
 22 23  1  0  0  0
 23 24  1  0  0  0
 23 42  1  0  0  0
 24 43  1  0  0  0
 25 44  1  0  0  0
M  END
> <s_m_entry_id>
28401

> <s_m_entry_name>
dock_pv.562

> <s_m_Source_Path>
/home/csk/Desktop/cluster/DUD-E-result/rock1

> <s_m_Source_File>
dock_pv.maegz

> <i_m_Source_File_Index>
562

> <chembl_id>
CHEMBL3944065

> <chembl_pref_name>
None

> <i_lp_mmshare_version>
53161

> <r_lp_tautomer_probability>
0.5

> <s_lp_Force_Field>
OPLS_2005

> <r_lp_Energy>
25.650293

> <b_lp_Chiralities_Consistent>
1

> <s_lp_Variant>
CHEMBL3231_lig629-1

> <s_i_glide_gridfile>
glide-grid_2etr

> <i_i_glide_lignum>
915

> <i_i_glide_rotatable_bonds>
7

> <r_i_docking_score>
-7.2811007052785

> <r_i_glide_ligand_efficiency>
-0.29124402821114

> <r_i_glide_ligand_efficiency_sa>
-0.851602703724208

> <r_i_glide_ligand_efficiency_ln>
-1.72583906413173

> <r_i_glide_gscore>
-7.2811007052785

> <r_i_glide_lipo>
-1.80478913341409

> <r_i_glide_hbond>
-0.592887633289227

> <r_i_glide_metal>
0

> <r_i_glide_rewards>
-1.98839423778246

> <r_i_glide_evdw>
-40.4198303222656

> <r_i_glide_ecoul>
-9.18809986114502

> <r_i_glide_erotb>
0.581129694408677

> <r_i_glide_esite>
-0.0769528999163638

> <r_i_glide_emodel>
-68.8068110379881

> <r_i_glide_energy>
-49.6079301834106

> <r_i_glide_einternal>
7.25756025314331

> <i_i_glide_confnum>
27

> <i_i_glide_posenum>
371

> <r_i_glide_eff_state_penalty>
0

> <s_user_duplicate_titles>
CHEMBL3231_lig629

> <i_f3d_flags>
0

> <s_m_subgroup_title>
dock_pv

> <s_m_subgroupid>
dock_pv

> <b_m_subgroup_collapsed>
1

$$$$
CHEMBL3231_lig221
                    3D
 Schrodinger Suite 2021-1.
 36 38  0  0  1  0            999 V2000
   53.6434  102.8544   30.9376 C   0  0  0  0  0  0
   54.2736  102.5907   32.1486 C   0  0  0  0  0  0
   54.1766  101.3442   32.7659 C   0  0  0  0  0  0
   53.4058  100.3326   32.1809 C   0  0  0  0  0  0
   52.9005  101.8252   30.3433 C   0  0  0  0  0  0
   52.7663  100.5434   30.9452 C   0  0  0  0  0  0
   51.9647   99.6437   30.1633 C   0  0  0  0  0  0
   51.6075  100.2014   28.9306 C   0  0  0  0  0  0
   52.0438  101.9035   28.8292 S   0  0  0  0  0  0
   51.6277   98.2513   30.6749 C   0  0  0  0  0  0
   50.9409   99.5674   27.7343 C   0  0  0  0  0  0
   50.3621  100.4074   26.8295 N   0  0  0  0  0  0
   49.8649   99.8508   25.7013 C   0  0  0  0  0  0
   49.8935   98.5382   25.3767 N   0  0  0  0  0  0
   50.4428   97.7150   26.3009 C   0  0  0  0  0  0
   50.9837   98.1872   27.4977 C   0  0  0  0  0  0
   49.2431  100.7030   24.8110 N   0  0  0  0  0  0
   54.9137  101.1046   34.0860 C   0  0  2  0  0  0
   55.6427   99.8457   34.0794 N   0  0  0  0  0  0
   53.9661  101.1179   35.2954 C   0  0  0  0  0  0
   53.7511  103.8215   30.4641 H   0  0  0  0  0  0
   54.8690  103.3714   32.6009 H   0  0  0  0  0  0
   53.3472   99.3715   32.6685 H   0  0  0  0  0  0
   52.4250   97.5370   30.4657 H   0  0  0  0  0  0
   51.4690   98.2382   31.7533 H   0  0  0  0  0  0
   50.7064   97.8556   30.2460 H   0  0  0  0  0  0
   50.4491   96.6636   26.0602 H   0  0  0  0  0  0
   51.4443   97.5033   28.1860 H   0  0  0  0  0  0
   49.2409  101.6912   25.0122 H   0  0  0  0  0  0
   48.9516  100.3460   23.9021 H   0  0  0  0  0  0
   55.6466  101.9007   34.2201 H   0  0  0  0  0  0
   56.3242   99.8404   33.3302 H   0  0  0  0  0  0
   56.1684   99.7411   34.9356 H   0  0  0  0  0  0
   53.4311  102.0654   35.3581 H   0  0  0  0  0  0
   54.5123  100.9928   36.2308 H   0  0  0  0  0  0
   53.2222  100.3226   35.2335 H   0  0  0  0  0  0
  1  5  2  0  0  0
  1  2  1  0  0  0
  1 21  1  0  0  0
  2  3  2  0  0  0
  2 22  1  0  0  0
  3  4  1  0  0  0
  3 18  1  0  0  0
  4  6  2  0  0  0
  4 23  1  0  0  0
  5  6  1  0  0  0
  5  9  1  0  0  0
  6  7  1  0  0  0
  7 10  1  0  0  0
  7  8  2  0  0  0
  8 11  1  0  0  0
  8  9  1  0  0  0
 10 24  1  0  0  0
 10 25  1  0  0  0
 10 26  1  0  0  0
 11 12  2  0  0  0
 11 16  1  0  0  0
 12 13  1  0  0  0
 13 14  2  0  0  0
 13 17  1  0  0  0
 14 15  1  0  0  0
 15 16  2  0  0  0
 15 27  1  0  0  0
 16 28  1  0  0  0
 17 29  1  0  0  0
 17 30  1  0  0  0
 18 19  1  0  0  0
 18 20  1  0  0  0
 18 31  1  0  0  0
 19 32  1  0  0  0
 19 33  1  0  0  0
 20 34  1  0  0  0
 20 35  1  0  0  0
 20 36  1  0  0  0
M  END
> <s_m_entry_id>
28402

> <s_m_entry_name>
dock_pv.563

> <s_m_Source_Path>
/home/csk/Desktop/cluster/DUD-E-result/rock1

> <s_m_Source_File>
dock_pv.maegz

> <i_m_Source_File_Index>
563

> <chembl_id>
CHEMBL1083965

> <chembl_pref_name>
None

> <i_lp_mmshare_version>
53161

> <r_lp_tautomer_probability>
0.999999987636

> <s_lp_Force_Field>
OPLS_2005

> <r_lp_Energy>
3.729264

> <b_lp_Chiralities_Consistent>
1

> <s_lp_Variant>
CHEMBL3231_lig221-1

> <s_i_glide_gridfile>
glide-grid_2etr

> <i_i_glide_lignum>
359

> <i_i_glide_rotatable_bonds>
2

> <r_i_docking_score>
-7.2790342634637

> <r_i_glide_ligand_efficiency>
-0.363951713173185

> <r_i_glide_ligand_efficiency_sa>
-0.987916940840678

> <r_i_glide_ligand_efficiency_ln>
-1.82170219752721

> <r_i_glide_gscore>
-7.2790342634637

> <r_i_glide_lipo>
-1.6025383625063

> <r_i_glide_hbond>
-0.322009346744642

> <r_i_glide_metal>
0

> <r_i_glide_rewards>
-3.04704781167967

> <r_i_glide_evdw>
-35.3939552307129

> <r_i_glide_ecoul>
-5.07915830612183

> <r_i_glide_erotb>
0.224132764920828

> <r_i_glide_esite>
0

> <r_i_glide_emodel>
-57.6459443004157

> <r_i_glide_energy>
-40.4731135368347

> <r_i_glide_einternal>
0.12377005815506

> <i_i_glide_confnum>
1

> <i_i_glide_posenum>
128

> <r_i_glide_eff_state_penalty>
0

> <s_user_duplicate_titles>
CHEMBL3231_lig221,630364

> <i_f3d_flags>
0

> <s_m_subgroup_title>
dock_pv

> <s_m_subgroupid>
dock_pv

> <b_m_subgroup_collapsed>
1

$$$$
CHEMBL3231_lig1886
                    3D
 Schrodinger Suite 2021-1.
 43 46  0  0  1  0            999 V2000
   52.2790  103.5030   31.2761 O   0  0  0  0  0  0
   55.2509   93.5030   32.8444 O   0  0  0  0  0  0
   51.3116  103.1329   29.1885 N   0  0  0  0  0  0
   53.8446  100.8130   31.7788 N   0  0  0  0  0  0
   55.0522   96.2973   33.0891 N   0  0  0  0  0  0
   50.4430   97.5030   25.6110 N   0  0  0  0  0  0
   52.0941  101.2565   30.1789 C   0  0  0  0  0  0
   51.5125  100.9064   28.9061 C   0  0  0  0  0  0
   51.0367  102.1128   28.3074 C   0  0  0  0  0  0
   51.9349  102.6247   30.2903 C   0  0  0  0  0  0
   52.7461  100.3272   31.1414 C   0  0  0  0  0  0
   51.3646   99.7058   28.1892 C   0  0  0  0  0  0
   50.4430  102.1377   27.0436 C   0  0  0  0  0  0
   50.7560   99.7271   26.9335 C   0  0  0  0  0  0
   52.3104   99.0090   31.2999 C   0  0  0  0  0  0
   50.3129  100.9232   26.3739 C   0  0  0  0  0  0
   54.2388   98.6067   32.7062 C   0  0  0  0  0  0
   54.5728   99.9553   32.5396 C   0  0  0  0  0  0
   53.0611   98.1477   32.0959 C   0  0  0  0  0  0
   55.1536   97.6926   33.5217 C   0  0  0  0  0  0
   50.5821   98.4876   26.1976 C   0  0  0  0  0  0
   54.2521   95.4370   33.9614 C   0  0  0  0  0  0
   56.3219   95.6679   32.7204 C   0  0  0  0  0  0
   54.0235   94.0807   33.2656 C   0  0  0  0  0  0
   56.0488   94.3324   32.0110 C   0  0  0  0  0  0
   53.0707  103.1786   31.7170 H   0  0  0  0  0  0
   51.1501  104.1205   29.0721 H   0  0  0  0  0  0
   51.7337   98.7769   28.5988 H   0  0  0  0  0  0
   50.0906  103.0557   26.5952 H   0  0  0  0  0  0
   51.4213   98.6456   30.8087 H   0  0  0  0  0  0
   49.8489  100.9231   25.3957 H   0  0  0  0  0  0
   55.4684  100.3633   32.9863 H   0  0  0  0  0  0
   52.7434   97.1203   32.1994 H   0  0  0  0  0  0
   56.1778   98.0414   33.3694 H   0  0  0  0  0  0
   54.9445   97.8099   34.5862 H   0  0  0  0  0  0
   54.7296   95.3242   34.9361 H   0  0  0  0  0  0
   53.2837   95.9042   34.1439 H   0  0  0  0  0  0
   56.8430   96.3030   32.0110 H   0  0  0  0  0  0
   56.9803   95.5613   33.5841 H   0  0  0  0  0  0
   53.3566   94.1824   32.4110 H   0  0  0  0  0  0
   53.5327   93.3920   33.9536 H   0  0  0  0  0  0
   55.5659   94.4901   31.0456 H   0  0  0  0  0  0
   56.9899   93.8205   31.8086 H   0  0  0  0  0  0
  1 10  1  0  0  0
  1 26  1  0  0  0
  2 24  1  0  0  0
  2 25  1  0  0  0
  3  9  1  0  0  0
  3 10  1  0  0  0
  3 27  1  0  0  0
  4 11  1  0  0  0
  4 18  2  0  0  0
  5 20  1  0  0  0
  5 22  1  0  0  0
  5 23  1  0  0  0
  6 21  3  0  0  0
  7  8  1  0  0  0
  7 10  2  0  0  0
  7 11  1  0  0  0
  8  9  1  0  0  0
  8 12  2  0  0  0
  9 13  2  0  0  0
 11 15  2  0  0  0
 12 14  1  0  0  0
 12 28  1  0  0  0
 13 16  1  0  0  0
 13 29  1  0  0  0
 14 16  2  0  0  0
 14 21  1  0  0  0
 15 19  1  0  0  0
 15 30  1  0  0  0
 16 31  1  0  0  0
 17 18  1  0  0  0
 17 19  2  0  0  0
 17 20  1  0  0  0
 18 32  1  0  0  0
 19 33  1  0  0  0
 20 34  1  0  0  0
 20 35  1  0  0  0
 22 24  1  0  0  0
 22 36  1  0  0  0
 22 37  1  0  0  0
 23 25  1  0  0  0
 23 38  1  0  0  0
 23 39  1  0  0  0
 24 40  1  0  0  0
 24 41  1  0  0  0
 25 42  1  0  0  0
 25 43  1  0  0  0
M  END
> <s_m_entry_id>
28403

> <s_m_entry_name>
dock_pv.564

> <s_m_Source_Path>
/home/csk/Desktop/cluster/DUD-E-result/rock1

> <s_m_Source_File>
dock_pv.maegz

> <i_m_Source_File_Index>
564

> <chembl_id>
CHEMBL1969664

> <chembl_pref_name>
AZD-1080

> <i_lp_mmshare_version>
53161

> <r_lp_tautomer_probability>
1

> <s_lp_Force_Field>
OPLS_2005

> <r_lp_Energy>
28.483927

> <b_lp_Chiralities_Consistent>
1

> <s_lp_Variant>
CHEMBL3231_lig1886-1

> <s_i_glide_gridfile>
glide-grid_2etr

> <i_i_glide_lignum>
2731

> <i_i_glide_rotatable_bonds>
4

> <r_i_docking_score>
-7.27624057334249

> <r_i_glide_ligand_efficiency>
-0.2910496229337

> <r_i_glide_ligand_efficiency_sa>
-0.851034259245179

> <r_i_glide_ligand_efficiency_ln>
-1.72468706721649

> <r_i_glide_gscore>
-7.27624057334249

> <r_i_glide_lipo>
-1.96815203321329

> <r_i_glide_hbond>
-0.506375274519923

> <r_i_glide_metal>
0

> <r_i_glide_rewards>
-2.15428304545454

> <r_i_glide_evdw>
-40.8986625671387

> <r_i_glide_ecoul>
-7.3903341293335

> <r_i_glide_erotb>
0.506053027602229

> <r_i_glide_esite>
0

> <r_i_glide_emodel>
-66.3040804176157

> <r_i_glide_energy>
-48.2889966964722

> <r_i_glide_einternal>
3.65460252761841

> <i_i_glide_confnum>
12

> <i_i_glide_posenum>
247

> <r_i_glide_eff_state_penalty>
0

> <s_user_duplicate_titles>
CHEMBL3231_lig1886

> <i_f3d_flags>
0

> <s_m_subgroup_title>
dock_pv

> <s_m_subgroupid>
dock_pv

> <b_m_subgroup_collapsed>
1

$$$$
CHEMBL3231_lig912
                    3D
 Schrodinger Suite 2021-1.
 37 39  0  0  1  0            999 V2000
   54.7887  101.2717   33.7131 C   0  0  0  0  0  0
   53.4413  101.0657   32.9663 C   0  0  2  0  0  0
   52.4273  100.1653   33.7111 C   0  0  0  0  0  0
   53.7608  100.3952   31.6879 N   0  0  0  0  0  0
   52.8460  102.4030   32.7020 N   0  0  0  0  0  0
   52.1476  102.7888   31.6080 C   0  0  0  0  0  0
   52.8471  100.5628   30.6735 C   0  0  0  0  0  0
   52.0923  101.7287   30.6422 C   0  0  0  0  0  0
   51.1158  101.7982   29.2090 S   0  0  0  0  0  0
   51.6434  100.2105   28.7128 C   0  0  0  0  0  0
   52.5826   99.6995   29.6107 C   0  0  0  0  0  0
   51.0760   99.5785   27.4866 C   0  0  0  0  0  0
   50.9626   98.1839   27.4355 C   0  0  0  0  0  0
   50.4434   97.5881   26.2876 C   0  0  0  0  0  0
   50.0431   98.3036   25.2109 N   0  0  0  0  0  0
   50.1432   99.6541   25.2650 C   0  0  0  0  0  0
   50.6519  100.3268   26.3771 C   0  0  0  0  0  0
   51.6430  103.9029   31.5500 O   0  0  0  0  0  0
   55.5120  100.0350   34.3014 C   0  0  0  0  0  0
   55.9862   99.0048   33.2697 C   0  0  0  0  0  0
   54.6144  101.9522   34.5477 H   0  0  0  0  0  0
   55.4827  101.8091   33.0630 H   0  0  0  0  0  0
   51.4839  100.0779   33.1700 H   0  0  0  0  0  0
   52.8093   99.1542   33.8586 H   0  0  0  0  0  0
   52.1974  100.5690   34.6977 H   0  0  0  0  0  0
   54.3815   99.6011   31.7581 H   0  0  0  0  0  0
   52.9041  103.0901   33.4365 H   0  0  0  0  0  0
   53.0670   98.7424   29.4941 H   0  0  0  0  0  0
   51.2646   97.5667   28.2686 H   0  0  0  0  0  0
   50.3570   96.5145   26.2153 H   0  0  0  0  0  0
   49.8083  100.1984   24.3925 H   0  0  0  0  0  0
   50.7223  101.4040   26.3672 H   0  0  0  0  0  0
   54.8889   99.5450   35.0500 H   0  0  0  0  0  0
   56.3907  100.3889   34.8429 H   0  0  0  0  0  0
   56.7301   98.3304   33.6963 H   0  0  0  0  0  0
   56.4438   99.5033   32.4158 H   0  0  0  0  0  0
   55.1672   98.3872   32.9017 H   0  0  0  0  0  0
  1  2  1  0  0  0
  1 19  1  0  0  0
  1 21  1  0  0  0
  1 22  1  0  0  0
  2  3  1  0  0  0
  2  4  1  0  0  0
  2  5  1  0  0  0
  3 23  1  0  0  0
  3 24  1  0  0  0
  3 25  1  0  0  0
  4  7  1  0  0  0
  4 26  1  0  0  0
  5  6  1  0  0  0
  5 27  1  0  0  0
  6  8  1  0  0  0
  6 18  2  0  0  0
  7  8  2  0  0  0
  7 11  1  0  0  0
  8  9  1  0  0  0
  9 10  1  0  0  0
 10 11  2  0  0  0
 10 12  1  0  0  0
 11 28  1  0  0  0
 12 13  2  0  0  0
 12 17  1  0  0  0
 13 14  1  0  0  0
 13 29  1  0  0  0
 14 15  2  0  0  0
 14 30  1  0  0  0
 15 16  1  0  0  0
 16 17  2  0  0  0
 16 31  1  0  0  0
 17 32  1  0  0  0
 19 20  1  0  0  0
 19 33  1  0  0  0
 19 34  1  0  0  0
 20 35  1  0  0  0
 20 36  1  0  0  0
 20 37  1  0  0  0
M  END
> <s_m_entry_id>
28404

> <s_m_entry_name>
dock_pv.565

> <s_m_Source_Path>
/home/csk/Desktop/cluster/DUD-E-result/rock1

> <s_m_Source_File>
dock_pv.maegz

> <i_m_Source_File_Index>
565

> <chembl_id>
CHEMBL4214928

> <chembl_pref_name>
None

> <i_lp_mmshare_version>
53161

> <r_lp_tautomer_probability>
0.99999637101317

> <s_lp_Force_Field>
OPLS_2005

> <r_lp_Energy>
19.329243

> <b_lp_Chiralities_Consistent>
1

> <s_lp_Variant>
CHEMBL3231_lig912-1

> <s_i_glide_gridfile>
glide-grid_2etr

> <i_i_glide_lignum>
1308

> <i_i_glide_rotatable_bonds>
3

> <r_i_docking_score>
-7.27585725941342

> <r_i_glide_ligand_efficiency>
-0.363792862970671

> <r_i_glide_ligand_efficiency_sa>
-0.987485755053005

> <r_i_glide_ligand_efficiency_ln>
-1.82090709819803

> <r_i_glide_gscore>
-7.27585725941342

> <r_i_glide_lipo>
-2.02615511504386

> <r_i_glide_hbond>
-0.392352117374811

> <r_i_glide_metal>
0

> <r_i_glide_rewards>
-2.80800846969697

> <r_i_glide_evdw>
-32.5003356933594

> <r_i_glide_ecoul>
-5.13301610946655

> <r_i_glide_erotb>
0.440149046207935

> <r_i_glide_esite>
-0.094521402417761

> <r_i_glide_emodel>
-54.1181486029298

> <r_i_glide_energy>
-37.6333518028259

> <r_i_glide_einternal>
1.62345397472382

> <i_i_glide_confnum>
3

> <i_i_glide_posenum>
222

> <r_i_glide_eff_state_penalty>
0

> <s_user_duplicate_titles>
CHEMBL3231_lig912

> <i_f3d_flags>
0

> <s_m_subgroup_title>
dock_pv

> <s_m_subgroupid>
dock_pv

> <b_m_subgroup_collapsed>
1

$$$$
CHEMBL3231_lig628
                    3D
 Schrodinger Suite 2021-1.
 40 42  0  0  1  0            999 V2000
   52.0400   97.5707   31.4547 C   0  0  0  0  0  0
   52.0303   98.9823   31.6286 O   0  0  0  0  0  0
   51.8834   99.8257   30.5396 C   0  0  0  0  0  0
   51.5011   99.3575   29.2665 C   0  0  0  0  0  0
   51.2654  100.2350   28.2018 C   0  0  0  0  0  0
   51.4800  101.5973   28.4072 C   0  0  0  0  0  0
   51.8903  102.0790   29.6446 C   0  0  0  0  0  0
   52.0619  101.2142   30.7372 C   0  0  0  0  0  0
   52.4304  101.7838   32.0960 C   0  0  0  0  0  0
   53.0874  101.1468   32.9178 O   0  0  0  0  0  0
   51.9421  103.0107   32.3597 N   0  0  0  0  0  0
   52.0391  103.7321   33.6369 C   0  0  0  0  0  0
   50.7646  103.6777   34.4950 C   0  0  0  0  0  0
   50.0222  102.4887   34.5669 C   0  0  0  0  0  0
   48.8446  102.4223   35.3117 C   0  0  0  0  0  0
   48.3921  103.5443   36.0009 C   0  0  0  0  0  0
   49.1226  104.7280   35.9523 C   0  0  0  0  0  0
   50.3033  104.8007   35.2105 C   0  0  0  0  0  0
   51.1532  106.3050   35.2118 Cl  0  0  0  0  0  0
   50.7585   99.7544   26.8739 C   0  0  0  0  0  0
   50.3634  100.5151   25.7776 C   0  0  0  0  0  0
   49.9498   99.6339   24.8159 N   0  0  0  0  0  0
   50.0436   98.3626   25.2113 N   0  0  0  0  0  0
   50.5356   98.4364   26.4287 C   0  0  0  0  0  0
   52.2011   97.1047   32.4256 H   0  0  0  0  0  0
   51.0928   97.1970   31.0630 H   0  0  0  0  0  0
   52.8583   97.2524   30.8102 H   0  0  0  0  0  0
   51.3363   98.3046   29.1062 H   0  0  0  0  0  0
   51.3191  102.3026   27.6084 H   0  0  0  0  0  0
   52.0589  103.1426   29.7399 H   0  0  0  0  0  0
   51.4813  103.4832   31.6036 H   0  0  0  0  0  0
   52.3124  104.7608   33.3960 H   0  0  0  0  0  0
   52.8564  103.3442   34.2494 H   0  0  0  0  0  0
   50.3569  101.6028   34.0459 H   0  0  0  0  0  0
   48.2812  101.5021   35.3558 H   0  0  0  0  0  0
   47.4777  103.4985   36.5748 H   0  0  0  0  0  0
   48.7711  105.5953   36.4923 H   0  0  0  0  0  0
   50.3243  101.5810   25.6091 H   0  0  0  0  0  0
   49.5793   99.8920   23.9065 H   0  0  0  0  0  0
   50.7227   97.5391   26.9999 H   0  0  0  0  0  0
  1  2  1  0  0  0
  1 25  1  0  0  0
  1 26  1  0  0  0
  1 27  1  0  0  0
  2  3  1  0  0  0
  3  4  2  0  0  0
  3  8  1  0  0  0
  4  5  1  0  0  0
  4 28  1  0  0  0
  5  6  2  0  0  0
  5 20  1  0  0  0
  6  7  1  0  0  0
  6 29  1  0  0  0
  7  8  2  0  0  0
  7 30  1  0  0  0
  8  9  1  0  0  0
  9 10  2  0  0  0
  9 11  1  0  0  0
 11 12  1  0  0  0
 11 31  1  0  0  0
 12 13  1  0  0  0
 12 32  1  0  0  0
 12 33  1  0  0  0
 13 14  2  0  0  0
 13 18  1  0  0  0
 14 15  1  0  0  0
 14 34  1  0  0  0
 15 16  2  0  0  0
 15 35  1  0  0  0
 16 17  1  0  0  0
 16 36  1  0  0  0
 17 18  2  0  0  0
 17 37  1  0  0  0
 18 19  1  0  0  0
 20 21  2  0  0  0
 20 24  1  0  0  0
 21 22  1  0  0  0
 21 38  1  0  0  0
 22 23  1  0  0  0
 22 39  1  0  0  0
 23 24  2  0  0  0
 24 40  1  0  0  0
M  END
> <s_m_entry_id>
28405

> <s_m_entry_name>
dock_pv.566

> <s_m_Source_Path>
/home/csk/Desktop/cluster/DUD-E-result/rock1

> <s_m_Source_File>
dock_pv.maegz

> <i_m_Source_File_Index>
566

> <chembl_id>
CHEMBL3914530

> <chembl_pref_name>
None

> <i_lp_mmshare_version>
53161

> <r_lp_tautomer_probability>
0.5

> <s_lp_Force_Field>
OPLS_2005

> <r_lp_Energy>
22.360885

> <b_lp_Chiralities_Consistent>
1

> <s_lp_Variant>
CHEMBL3231_lig628-1

> <s_i_glide_gridfile>
glide-grid_2etr

> <i_i_glide_lignum>
914

> <i_i_glide_rotatable_bonds>
6

> <r_i_docking_score>
-7.27536592543038

> <r_i_glide_ligand_efficiency>
-0.303140246892933

> <r_i_glide_ligand_efficiency_sa>
-0.874407780722122

> <r_i_glide_ligand_efficiency_ln>
-1.74132891074419

> <r_i_glide_gscore>
-7.27536592543038

> <r_i_glide_lipo>
-2.67347276910051

> <r_i_glide_hbond>
-0.505532029904108

> <r_i_glide_metal>
0

> <r_i_glide_rewards>
-2.04203849430163

> <r_i_glide_evdw>
-43.1364059448242

> <r_i_glide_ecoul>
-1.93995428085327

> <r_i_glide_erotb>
0.4543035052958

> <r_i_glide_esite>
-0.0608126980507381

> <r_i_glide_emodel>
-66.4145422431927

> <r_i_glide_energy>
-45.0763602256775

> <r_i_glide_einternal>
2.43240642547607

> <i_i_glide_confnum>
7

> <i_i_glide_posenum>
112

> <r_i_glide_eff_state_penalty>
0

> <s_user_duplicate_titles>
CHEMBL3231_lig628

> <i_f3d_flags>
0

> <s_m_subgroup_title>
dock_pv

> <s_m_subgroupid>
dock_pv

> <b_m_subgroup_collapsed>
1

$$$$
CHEMBL3231_lig1272
                    3D
 Schrodinger Suite 2021-1.
 29 31  0  0  1  0            999 V2000
   52.4393  103.9838   35.0670 F   0  0  0  0  0  0
   50.5975  103.1026   30.3490 O   0  0  0  0  0  0
   52.0139  101.4254   29.7017 N   0  0  0  0  0  0
   49.8702   99.4095   25.0273 N   0  0  0  0  0  0
   50.0431   98.0904   25.2110 N   0  0  0  0  0  0
   50.8404   99.1871   27.0216 C   0  0  0  0  0  0
   50.3203  100.1370   26.1095 C   0  0  0  0  0  0
   51.3956  100.9958   28.5157 C   0  0  0  0  0  0
   51.4076   99.6258   28.2307 C   0  0  0  0  0  0
   51.6444  102.4639   30.4838 C   0  0  0  0  0  0
   52.5910  102.8066   31.6043 C   0  0  0  0  0  0
   50.3199  101.5034   26.3763 C   0  0  0  0  0  0
   50.8424  101.9030   27.6045 C   0  0  0  0  0  0
   50.6104   97.9341   26.3788 C   0  0  0  0  0  0
   52.0845  103.2344   32.8404 C   0  0  0  0  0  0
   53.9832  102.7479   31.4299 C   0  0  0  0  0  0
   52.9452  103.5831   33.8798 C   0  0  0  0  0  0
   54.8422  103.1024   32.4696 C   0  0  0  0  0  0
   54.3243  103.5136   33.6971 C   0  0  0  0  0  0
   52.8185  100.8947   29.9961 H   0  0  0  0  0  0
   49.4363   99.7597   24.1813 H   0  0  0  0  0  0
   51.8308   98.9148   28.9260 H   0  0  0  0  0  0
   49.9134  102.2218   25.6807 H   0  0  0  0  0  0
   50.8436  102.9605   27.8277 H   0  0  0  0  0  0
   50.8432   96.9474   26.7516 H   0  0  0  0  0  0
   51.0177  103.2932   33.0109 H   0  0  0  0  0  0
   54.4207  102.4486   30.4866 H   0  0  0  0  0  0
   55.9124  103.0633   32.3190 H   0  0  0  0  0  0
   54.9913  103.7838   34.5018 H   0  0  0  0  0  0
  1 17  1  0  0  0
  2 10  2  0  0  0
  3  8  1  0  0  0
  3 10  1  0  0  0
  3 20  1  0  0  0
  4  5  1  0  0  0
  4  7  1  0  0  0
  4 21  1  0  0  0
  5 14  2  0  0  0
  6  7  1  0  0  0
  6  9  2  0  0  0
  6 14  1  0  0  0
  7 12  2  0  0  0
  8  9  1  0  0  0
  8 13  2  0  0  0
  9 22  1  0  0  0
 10 11  1  0  0  0
 11 15  2  0  0  0
 11 16  1  0  0  0
 12 13  1  0  0  0
 12 23  1  0  0  0
 13 24  1  0  0  0
 14 25  1  0  0  0
 15 17  1  0  0  0
 15 26  1  0  0  0
 16 18  2  0  0  0
 16 27  1  0  0  0
 17 19  2  0  0  0
 18 19  1  0  0  0
 18 28  1  0  0  0
 19 29  1  0  0  0
M  END
> <s_m_entry_id>
28406

> <s_m_entry_name>
dock_pv.567

> <s_m_Source_Path>
/home/csk/Desktop/cluster/DUD-E-result/rock1

> <s_m_Source_File>
dock_pv.maegz

> <i_m_Source_File_Index>
567

> <chembl_id>
CHEMBL1461728

> <chembl_pref_name>
None

> <i_lp_mmshare_version>
53161

> <r_lp_tautomer_probability>
0.980392156862745

> <s_lp_Force_Field>
OPLS_2005

> <r_lp_Energy>
19.09374

> <b_lp_Chiralities_Consistent>
1

> <s_lp_Variant>
CHEMBL3231_lig1272-1

> <s_i_glide_gridfile>
glide-grid_2etr

> <i_i_glide_lignum>
1771

> <i_i_glide_rotatable_bonds>
3

> <r_i_docking_score>
-7.27230825851017

> <r_i_glide_ligand_efficiency>
-0.382753066237378

> <r_i_glide_ligand_efficiency_sa>
-1.02133891199877

> <r_i_glide_ligand_efficiency_ln>
-1.84368633839203

> <r_i_glide_gscore>
-7.27230825851017

> <r_i_glide_lipo>
-1.9540601610136

> <r_i_glide_hbond>
-0.62280660862294

> <r_i_glide_metal>
0

> <r_i_glide_rewards>
-2.61006060108477

> <r_i_glide_evdw>
-32.5447959899902

> <r_i_glide_ecoul>
-6.57636213302612

> <r_i_glide_erotb>
0.567406115710171

> <r_i_glide_esite>
-0.0390928840456049

> <r_i_glide_emodel>
-54.6806645535681

> <r_i_glide_energy>
-39.1211581230164

> <r_i_glide_einternal>
3.99295091629028

> <i_i_glide_confnum>
8

> <i_i_glide_posenum>
291

> <r_i_glide_eff_state_penalty>
0

> <s_user_duplicate_titles>
CHEMBL3231_lig1272,CHEMBL3231_lig1272

> <i_f3d_flags>
0

> <s_m_subgroup_title>
dock_pv

> <s_m_subgroupid>
dock_pv

> <b_m_subgroup_collapsed>
1

$$$$
CHEMBL3231_lig857
                    3D
 Schrodinger Suite 2021-1.
 50 52  0  0  1  0            999 V2000
   52.4898   97.7584   31.1913 C   0  0  0  0  0  0
   53.6571   98.6395   30.7179 C   0  0  0  0  0  0
   53.3334  100.0271   30.8081 O   0  0  0  0  0  0
   52.4774  100.6467   29.9089 C   0  0  0  0  0  0
   51.9921   99.9864   28.7652 C   0  0  0  0  0  0
   51.1532  100.6254   27.8507 C   0  0  0  0  0  0
   50.8016  101.9532   28.0719 C   0  0  0  0  0  0
   51.2678  102.6258   29.1905 C   0  0  0  0  0  0
   52.0954  101.9943   30.1316 C   0  0  0  0  0  0
   52.5006  102.8002   31.3530 C   0  0  0  0  0  0
   51.9918  103.9031   31.5572 O   0  0  0  0  0  0
   53.3698  102.2517   32.2185 N   0  0  0  0  0  0
   53.8388  102.8417   33.4789 C   0  0  2  0  0  0
   54.8400  101.8896   34.1517 C   0  0  0  0  0  0
   52.7319  103.2563   34.4649 C   0  0  0  0  0  0
   52.9401  104.3422   35.3213 C   0  0  0  0  0  0
   51.9241  104.7789   36.1700 C   0  0  0  0  0  0
   50.6809  104.1469   36.1570 C   0  0  0  0  0  0
   50.4459  103.0631   35.2960 C   0  0  0  0  0  0
   49.2405  102.4026   35.1734 O   0  0  0  0  0  0
   48.1193  102.8779   35.9040 C   0  0  0  0  0  0
   51.4836  102.6173   34.4782 C   0  0  0  0  0  0
   50.6268   99.9212   26.6491 C   0  0  0  0  0  0
   50.0326  100.4849   25.5306 C   0  0  0  0  0  0
   49.7000   99.4455   24.7145 N   0  0  0  0  0  0
   50.0431   98.2586   25.2121 N   0  0  0  0  0  0
   50.5970   98.5430   26.3680 C   0  0  0  0  0  0
   52.7814   96.7094   31.2109 H   0  0  0  0  0  0
   52.1836   98.0306   32.2010 H   0  0  0  0  0  0
   51.6165   97.8456   30.5464 H   0  0  0  0  0  0
   54.0030   98.3641   29.7211 H   0  0  0  0  0  0
   54.5117   98.4709   31.3739 H   0  0  0  0  0  0
   52.2674   98.9644   28.5661 H   0  0  0  0  0  0
   50.1574  102.4769   27.3812 H   0  0  0  0  0  0
   50.9663  103.6561   29.3153 H   0  0  0  0  0  0
   53.8380  101.4099   31.9046 H   0  0  0  0  0  0
   54.3844  103.7463   33.1951 H   0  0  0  0  0  0
   55.3059  102.3513   35.0226 H   0  0  0  0  0  0
   54.3554  100.9700   34.4822 H   0  0  0  0  0  0
   55.6423  101.6091   33.4680 H   0  0  0  0  0  0
   53.8883  104.8603   35.3199 H   0  0  0  0  0  0
   52.0957  105.6205   36.8248 H   0  0  0  0  0  0
   49.9097  104.5178   36.8140 H   0  0  0  0  0  0
   47.2431  102.3030   35.6111 H   0  0  0  0  0  0
   48.2700  102.7493   36.9763 H   0  0  0  0  0  0
   47.9051  103.9264   35.6909 H   0  0  0  0  0  0
   51.2983  101.7822   33.8190 H   0  0  0  0  0  0
   49.8105  101.5031   25.2495 H   0  0  0  0  0  0
   49.2438   99.5437   23.8120 H   0  0  0  0  0  0
   50.9721   97.7583   27.0091 H   0  0  0  0  0  0
  1  2  1  0  0  0
  1 28  1  0  0  0
  1 29  1  0  0  0
  1 30  1  0  0  0
  2  3  1  0  0  0
  2 31  1  0  0  0
  2 32  1  0  0  0
  3  4  1  0  0  0
  4  5  2  0  0  0
  4  9  1  0  0  0
  5  6  1  0  0  0
  5 33  1  0  0  0
  6  7  2  0  0  0
  6 23  1  0  0  0
  7  8  1  0  0  0
  7 34  1  0  0  0
  8  9  2  0  0  0
  8 35  1  0  0  0
  9 10  1  0  0  0
 10 11  2  0  0  0
 10 12  1  0  0  0
 12 13  1  0  0  0
 12 36  1  0  0  0
 13 14  1  0  0  0
 13 15  1  0  0  0
 13 37  1  0  0  0
 14 38  1  0  0  0
 14 39  1  0  0  0
 14 40  1  0  0  0
 15 16  2  0  0  0
 15 22  1  0  0  0
 16 17  1  0  0  0
 16 41  1  0  0  0
 17 18  2  0  0  0
 17 42  1  0  0  0
 18 19  1  0  0  0
 18 43  1  0  0  0
 19 20  1  0  0  0
 19 22  2  0  0  0
 20 21  1  0  0  0
 21 44  1  0  0  0
 21 45  1  0  0  0
 21 46  1  0  0  0
 22 47  1  0  0  0
 23 24  2  0  0  0
 23 27  1  0  0  0
 24 25  1  0  0  0
 24 48  1  0  0  0
 25 26  1  0  0  0
 25 49  1  0  0  0
 26 27  2  0  0  0
 27 50  1  0  0  0
M  END
> <s_m_entry_id>
28407

> <s_m_entry_name>
dock_pv.568

> <s_m_Source_Path>
/home/csk/Desktop/cluster/DUD-E-result/rock1

> <s_m_Source_File>
dock_pv.maegz

> <i_m_Source_File_Index>
568

> <chembl_id>
CHEMBL4111653

> <chembl_pref_name>
None

> <i_lp_mmshare_version>
53161

> <r_lp_tautomer_probability>
0.5

> <s_lp_Force_Field>
OPLS_2005

> <r_lp_Energy>
24.995985

> <b_lp_Chiralities_Consistent>
1

> <s_lp_Variant>
CHEMBL3231_lig857-1

> <s_i_glide_gridfile>
glide-grid_2etr

> <i_i_glide_lignum>
1210

> <i_i_glide_rotatable_bonds>
8

> <r_i_docking_score>
-7.2668981817613

> <r_i_glide_ligand_efficiency>
-0.26914437710227

> <r_i_glide_ligand_efficiency_sa>
-0.807433130419755

> <r_i_glide_ligand_efficiency_ln>
-1.6916140925343

> <r_i_glide_gscore>
-7.2668981817613

> <r_i_glide_lipo>
-2.35102242321119

> <r_i_glide_hbond>
-0.641186714561573

> <r_i_glide_metal>
0

> <r_i_glide_rewards>
-1.77186830032427

> <r_i_glide_evdw>
-42.3656616210938

> <r_i_glide_ecoul>
-6.19967174530029

> <r_i_glide_erotb>
0.605014936165463

> <r_i_glide_esite>
-0.059601836979999

> <r_i_glide_emodel>
-70.371020029465

> <r_i_glide_energy>
-48.565333366394

> <r_i_glide_einternal>
3.32152795791626

> <i_i_glide_confnum>
17

> <i_i_glide_posenum>
360

> <r_i_glide_eff_state_penalty>
0

> <s_user_duplicate_titles>
CHEMBL3231_lig857

> <i_f3d_flags>
0

> <s_m_subgroup_title>
dock_pv

> <s_m_subgroupid>
dock_pv

> <b_m_subgroup_collapsed>
1

$$$$
CHEMBL3231_lig1561
                    3D
 Schrodinger Suite 2021-1.
 32 35  0  0  1  0            999 V2000
   50.8606  103.5185   29.5483 O   0  0  0  0  0  0
   50.4430  102.4341   27.5850 N   0  0  0  0  0  0
   52.3180   97.5028   31.6372 N   0  0  0  0  0  0
   51.3245  101.1620   29.1876 C   0  0  0  0  0  0
   51.0534  100.3286   28.0059 C   0  0  0  0  0  0
   50.5007  101.1663   27.0628 C   0  0  0  0  0  0
   52.2758   99.6616   30.9830 C   0  0  0  0  0  0
   50.8777  102.5029   28.8496 C   0  0  0  0  0  0
   53.4537   99.4323   31.7838 C   0  0  0  0  0  0
   51.8475  100.9173   30.4098 C   0  0  0  0  0  0
   53.4451   98.0617   32.1865 C   0  0  0  0  0  0
   51.6118   98.4500   30.9490 C   0  0  0  0  0  0
   51.2430   98.9778   27.6906 C   0  0  0  0  0  0
   50.0895  100.7041   25.8137 C   0  0  0  0  0  0
   54.5158  100.2452   32.2149 C   0  0  0  0  0  0
   54.4403   97.5047   32.9942 C   0  0  0  0  0  0
   50.8421   98.4932   26.4410 C   0  0  0  0  0  0
   50.2601   99.3542   25.5062 C   0  0  0  0  0  0
   55.5069   99.6927   33.0262 C   0  0  0  0  0  0
   55.4647   98.3551   33.4063 C   0  0  0  0  0  0
   50.0629  103.2306   27.0965 H   0  0  0  0  0  0
   51.9977   96.5440   31.7487 H   0  0  0  0  0  0
   51.9672  101.7365   31.1072 H   0  0  0  0  0  0
   50.6729   98.1789   30.4875 H   0  0  0  0  0  0
   51.7110   98.2953   28.3800 H   0  0  0  0  0  0
   49.6375  101.3670   25.0924 H   0  0  0  0  0  0
   54.5741  101.2825   31.9183 H   0  0  0  0  0  0
   54.4271   96.4650   33.2868 H   0  0  0  0  0  0
   50.9877   97.4510   26.1986 H   0  0  0  0  0  0
   49.9462   98.9822   24.5425 H   0  0  0  0  0  0
   56.3346  100.3030   33.3559 H   0  0  0  0  0  0
   56.2621   97.9637   34.0215 H   0  0  0  0  0  0
  1  8  2  0  0  0
  2  6  1  0  0  0
  2  8  1  0  0  0
  2 21  1  0  0  0
  3 11  1  0  0  0
  3 12  1  0  0  0
  3 22  1  0  0  0
  4  5  1  0  0  0
  4  8  1  0  0  0
  4 10  2  3  0  0
  5  6  1  0  0  0
  5 13  2  0  0  0
  6 14  2  0  0  0
  7  9  1  0  0  0
  7 10  1  0  0  0
  7 12  2  0  0  0
  9 11  1  0  0  0
  9 15  2  0  0  0
 10 23  1  0  0  0
 11 16  2  0  0  0
 12 24  1  0  0  0
 13 17  1  0  0  0
 13 25  1  0  0  0
 14 18  1  0  0  0
 14 26  1  0  0  0
 15 19  1  0  0  0
 15 27  1  0  0  0
 16 20  1  0  0  0
 16 28  1  0  0  0
 17 18  2  0  0  0
 17 29  1  0  0  0
 18 30  1  0  0  0
 19 20  2  0  0  0
 19 31  1  0  0  0
 20 32  1  0  0  0
M  END
> <s_m_entry_id>
28408

> <s_m_entry_name>
dock_pv.569

> <s_m_Source_Path>
/home/csk/Desktop/cluster/DUD-E-result/rock1

> <s_m_Source_File>
dock_pv.maegz

> <i_m_Source_File_Index>
569

> <chembl_id>
CHEMBL1986590

> <chembl_pref_name>
None

> <i_lp_mmshare_version>
53161

> <r_lp_tautomer_probability>
1

> <s_lp_Force_Field>
OPLS_2005

> <r_lp_Energy>
36.742984

> <b_lp_Chiralities_Consistent>
1

> <s_lp_Variant>
CHEMBL3231_lig1561-1

> <s_i_glide_gridfile>
glide-grid_2etr

> <i_i_glide_lignum>
2211

> <i_i_glide_rotatable_bonds>
1

> <r_i_docking_score>
-7.26659291289739

> <r_i_glide_ligand_efficiency>
-0.363329645644869

> <r_i_glide_ligand_efficiency_sa>
-0.986228389784793

> <r_i_glide_ligand_efficiency_ln>
-1.81858853782367

> <r_i_glide_gscore>
-7.26659291289739

> <r_i_glide_lipo>
-2.29677654299261

> <r_i_glide_hbond>
-0.342162026478345

> <r_i_glide_metal>
0

> <r_i_glide_rewards>
-2.16936201125399

> <r_i_glide_evdw>
-33.0995597839355

> <r_i_glide_ecoul>
-5.30229949951172

> <r_i_glide_erotb>
0

> <r_i_glide_esite>
-0.00796941804891087

> <r_i_glide_emodel>
-55.2809281754781

> <r_i_glide_energy>
-38.4018592834473

> <r_i_glide_einternal>
0.379458844661713

> <i_i_glide_confnum>
1

> <i_i_glide_posenum>
243

> <r_i_glide_eff_state_penalty>
0

> <s_user_duplicate_titles>
CHEMBL3231_lig1561

> <i_f3d_flags>
0

> <s_m_subgroup_title>
dock_pv

> <s_m_subgroupid>
dock_pv

> <b_m_subgroup_collapsed>
1

$$$$
CHEMBL3231_lig932
                    3D
 Schrodinger Suite 2021-1.
 39 42  0  0  1  0            999 V2000
   52.6318   99.8882   31.4304 N   0  0  0  0  0  0
   52.8793  100.6379   32.4565 C   0  0  0  0  0  0
   52.5484  101.9815   32.4385 N   0  0  0  0  0  0
   51.9300  102.6892   31.4419 C   0  0  0  0  0  0
   52.0432  100.4685   30.3435 C   0  0  0  0  0  0
   51.6844  101.8170   30.3016 C   0  0  0  0  0  0
   50.9142  102.2501   28.8123 S   0  0  0  0  0  0
   51.0908  100.6174   28.2073 C   0  0  0  0  0  0
   51.7255   99.8087   29.1551 C   0  0  0  0  0  0
   50.6107  100.2473   26.8730 C   0  0  0  0  0  0
   50.1910  101.1026   25.8690 C   0  0  0  0  0  0
   49.8488  100.3084   24.8111 N   0  0  0  0  0  0
   50.0184   99.0143   25.0668 N   0  0  0  0  0  0
   50.4481   98.9635   26.3085 C   0  0  0  0  0  0
   51.6437  103.8751   31.5783 O   0  0  0  0  0  0
   50.6934   97.6183   26.9325 C   0  0  0  0  0  0
   53.5445  100.0893   33.7274 C   0  0  1  0  0  0
   52.5271   99.5202   34.6077 N   0  0  1  0  0  0
   53.2823   98.7469   35.5796 C   0  0  0  0  0  0
   54.3960   98.0732   34.7834 C   0  0  0  0  0  0
   54.5973   98.9700   33.5545 C   0  0  2  0  0  0
   56.0308   99.5022   33.3937 C   0  0  0  0  0  0
   52.7797  102.5321   33.2495 H   0  0  0  0  0  0
   51.9487   98.7644   29.0120 H   0  0  0  0  0  0
   50.1035  102.1772   25.8311 H   0  0  0  0  0  0
   49.4944  100.6324   23.9178 H   0  0  0  0  0  0
   51.7439   97.5044   27.1896 H   0  0  0  0  0  0
   50.1197   97.5040   27.8518 H   0  0  0  0  0  0
   50.4300   96.7820   26.2831 H   0  0  0  0  0  0
   54.0113  100.9072   34.2806 H   0  0  0  0  0  0
   51.9814  100.2465   35.0464 H   0  0  0  0  0  0
   53.6818   99.3737   36.3787 H   0  0  0  0  0  0
   52.6160   98.0110   36.0326 H   0  0  0  0  0  0
   55.3000   97.9790   35.3858 H   0  0  0  0  0  0
   54.1053   97.0640   34.4924 H   0  0  0  0  0  0
   54.3703   98.3634   32.6756 H   0  0  0  0  0  0
   56.3433  100.0958   34.2536 H   0  0  0  0  0  0
   56.7439   98.6854   33.2785 H   0  0  0  0  0  0
   56.1174  100.1292   32.5046 H   0  0  0  0  0  0
  1  5  1  0  0  0
  1  2  2  0  0  0
  2  3  1  0  0  0
  2 17  1  0  0  0
  3  4  1  0  0  0
  3 23  1  0  0  0
  4  6  1  0  0  0
  4 15  2  0  0  0
  5  6  2  0  0  0
  5  9  1  0  0  0
  6  7  1  0  0  0
  7  8  1  0  0  0
  8  9  2  0  0  0
  8 10  1  0  0  0
  9 24  1  0  0  0
 10 11  2  0  0  0
 10 14  1  0  0  0
 11 12  1  0  0  0
 11 25  1  0  0  0
 12 13  1  0  0  0
 12 26  1  0  0  0
 13 14  2  0  0  0
 14 16  1  0  0  0
 16 27  1  0  0  0
 16 28  1  0  0  0
 16 29  1  0  0  0
 17 18  1  0  0  0
 17 21  1  0  0  0
 17 30  1  0  0  0
 18 19  1  0  0  0
 18 31  1  0  0  0
 19 20  1  0  0  0
 19 32  1  0  0  0
 19 33  1  0  0  0
 20 21  1  0  0  0
 20 34  1  0  0  0
 20 35  1  0  0  0
 21 22  1  0  0  0
 21 36  1  0  0  0
 22 37  1  0  0  0
 22 38  1  0  0  0
 22 39  1  0  0  0
M  END
> <s_m_entry_id>
28409

> <s_m_entry_name>
dock_pv.570

> <s_m_Source_Path>
/home/csk/Desktop/cluster/DUD-E-result/rock1

> <s_m_Source_File>
dock_pv.maegz

> <i_m_Source_File_Index>
570

> <chembl_id>
CHEMBL4569914

> <chembl_pref_name>
None

> <i_lp_mmshare_version>
53161

> <r_lp_tautomer_probability>
0.5

> <s_lp_Force_Field>
OPLS_2005

> <r_lp_Energy>
36.458557

> <b_lp_Chiralities_Consistent>
1

> <s_lp_Variant>
CHEMBL3231_lig932-1

> <s_i_glide_gridfile>
glide-grid_2etr

> <i_i_glide_lignum>
1339

> <i_i_glide_rotatable_bonds>
2

> <r_i_docking_score>
-7.26599959268484

> <r_i_glide_ligand_efficiency>
-0.330272708758402

> <r_i_glide_ligand_efficiency_sa>
-0.925437118829612

> <r_i_glide_ligand_efficiency_ln>
-1.77607533422691

> <r_i_glide_gscore>
-7.26599959268484

> <r_i_glide_lipo>
-1.96788110538331

> <r_i_glide_hbond>
-0.368679432057158

> <r_i_glide_metal>
0

> <r_i_glide_rewards>
-2.50367468181818

> <r_i_glide_evdw>
-36.7714195251465

> <r_i_glide_ecoul>
-6.22266101837158

> <r_i_glide_erotb>
0.374008535043389

> <r_i_glide_esite>
-0.0278027794565233

> <r_i_glide_emodel>
-61.2500772806869

> <r_i_glide_energy>
-42.9940805435181

> <r_i_glide_einternal>
2.09678387641907

> <i_i_glide_confnum>
32

> <i_i_glide_posenum>
91

> <r_i_glide_eff_state_penalty>
0

> <s_user_duplicate_titles>
CHEMBL3231_lig932

> <i_f3d_flags>
0

> <s_m_subgroup_title>
dock_pv

> <s_m_subgroupid>
dock_pv

> <b_m_subgroup_collapsed>
1

$$$$
CHEMBL3231_lig2091
                    3D
 Schrodinger Suite 2021-1.
 35 37  0  0  1  0            999 V2000
   50.8008  101.2460   28.1433 C   0  0  0  0  0  0
   51.3670  101.0584   29.3286 N   0  0  0  0  0  0
   51.5050  102.1744   30.0098 C   0  0  0  0  0  0
   50.9240  103.5873   29.2110 S   0  0  0  0  0  0
   50.4519  102.5744   27.8938 C   0  0  0  0  0  0
   52.0570  102.3320   31.2718 N   0  0  0  0  0  0
   52.0838  101.4029   32.2487 C   0  0  0  0  0  0
   52.7119  101.8518   33.5748 C   0  0  0  0  0  0
   51.6432  100.2571   32.1451 O   0  0  0  0  0  0
   51.8768  102.9173   34.2931 C   0  0  0  0  0  0
   51.9700  104.2804   33.9583 C   0  0  0  0  0  0
   51.2167  105.2243   34.6583 C   0  0  0  0  0  0
   50.3489  104.8198   35.6733 C   0  0  0  0  0  0
   50.2377  103.4689   35.9973 C   0  0  0  0  0  0
   51.0025  102.5221   35.3157 C   0  0  0  0  0  0
   50.5968  100.1021   27.1975 C   0  0  0  0  0  0
   50.1585  100.3345   25.8855 C   0  0  0  0  0  0
   49.9815   99.2531   25.0245 C   0  0  0  0  0  0
   50.2023   97.9697   25.4014 N   0  0  0  0  0  0
   50.6382   97.7514   26.6646 C   0  0  0  0  0  0
   50.8430   98.7765   27.5860 C   0  0  0  0  0  0
   52.7840  104.7029   32.9339 O   0  0  0  0  0  0
   50.0087  103.0074   27.0109 H   0  0  0  0  0  0
   52.3934  103.2541   31.5199 H   0  0  0  0  0  0
   53.7194  102.2290   33.3882 H   0  0  0  0  0  0
   52.8389  100.9798   34.2179 H   0  0  0  0  0  0
   51.3011  106.2743   34.4109 H   0  0  0  0  0  0
   49.7670  105.5544   36.2096 H   0  0  0  0  0  0
   49.5635  103.1540   36.7810 H   0  0  0  0  0  0
   50.9124  101.4775   35.5821 H   0  0  0  0  0  0
   49.9583  101.3321   25.5243 H   0  0  0  0  0  0
   49.6431   99.4111   24.0112 H   0  0  0  0  0  0
   50.8422   96.7267   26.9343 H   0  0  0  0  0  0
   51.1918   98.5390   28.5816 H   0  0  0  0  0  0
   52.8422  105.6720   32.8129 H   0  0  0  0  0  0
  1  2  1  0  0  0
  1  5  2  0  0  0
  1 16  1  0  0  0
  2  3  2  0  0  0
  3  4  1  0  0  0
  3  6  1  0  0  0
  4  5  1  0  0  0
  5 23  1  0  0  0
  6  7  1  0  0  0
  6 24  1  0  0  0
  7  8  1  0  0  0
  7  9  2  0  0  0
  8 10  1  0  0  0
  8 25  1  0  0  0
  8 26  1  0  0  0
 10 11  2  0  0  0
 10 15  1  0  0  0
 11 12  1  0  0  0
 11 22  1  0  0  0
 12 13  2  0  0  0
 12 27  1  0  0  0
 13 14  1  0  0  0
 13 28  1  0  0  0
 14 15  2  0  0  0
 14 29  1  0  0  0
 15 30  1  0  0  0
 16 17  2  0  0  0
 16 21  1  0  0  0
 17 18  1  0  0  0
 17 31  1  0  0  0
 18 19  2  0  0  0
 18 32  1  0  0  0
 19 20  1  0  0  0
 20 21  2  0  0  0
 20 33  1  0  0  0
 21 34  1  0  0  0
 22 35  1  0  0  0
M  END
> <s_m_entry_id>
28410

> <s_m_entry_name>
dock_pv.571

> <s_m_Source_Path>
/home/csk/Desktop/cluster/DUD-E-result/rock1

> <s_m_Source_File>
dock_pv.maegz

> <i_m_Source_File_Index>
571

> <chembl_id>
CHEMBL3581122

> <chembl_pref_name>
None

> <i_lp_mmshare_version>
53161

> <r_lp_tautomer_probability>
0.999000488396533

> <s_lp_Force_Field>
OPLS_2005

> <r_lp_Energy>
9.192537

> <b_lp_Chiralities_Consistent>
1

> <s_lp_Variant>
CHEMBL3231_lig2091-1

> <s_i_glide_gridfile>
glide-grid_2etr

> <i_i_glide_lignum>
3019

> <i_i_glide_rotatable_bonds>
6

> <r_i_docking_score>
-7.26423816362419

> <r_i_glide_ligand_efficiency>
-0.3301926438011

> <r_i_glide_ligand_efficiency_sa>
-0.925212773670475

> <r_i_glide_ligand_efficiency_ln>
-1.7756447767148

> <r_i_glide_gscore>
-7.26423816362419

> <r_i_glide_lipo>
-2.3236404919047

> <r_i_glide_hbond>
-0.391268358280148

> <r_i_glide_metal>
0

> <r_i_glide_rewards>
-2.65284811127577

> <r_i_glide_evdw>
-33.2770347595215

> <r_i_glide_ecoul>
-7.63288927078247

> <r_i_glide_erotb>
0.956429311119262

> <r_i_glide_esite>
-0.0441253846893945

> <r_i_glide_emodel>
-59.5912539226878

> <r_i_glide_energy>
-40.909924030304

> <r_i_glide_einternal>
3.7082850933075

> <i_i_glide_confnum>
32

> <i_i_glide_posenum>
283

> <r_i_glide_eff_state_penalty>
0

> <s_user_duplicate_titles>
CHEMBL3231_lig2091

> <i_f3d_flags>
0

> <s_m_subgroup_title>
dock_pv

> <s_m_subgroupid>
dock_pv

> <b_m_subgroup_collapsed>
1

$$$$
CHEMBL3231_lig1717
                    3D
 Schrodinger Suite 2021-1.
 31 33  0  0  1  0            999 V2000
   55.2427  102.6415   32.6382 O   0  0  0  0  0  0
   52.0170  101.2974   29.9782 N   0  0  0  0  0  0
   51.4982  102.3025   30.6979 N   0  0  0  0  0  0
   52.2977  102.4568   31.8121 N   0  0  0  0  0  0
   49.9211   99.6387   25.1254 N   0  0  0  0  0  0
   50.0431   98.3035   25.2132 N   0  0  0  0  0  0
   51.4595  100.9140   28.7395 C   0  0  0  0  0  0
   53.2975  101.5873   31.7536 C   0  0  0  0  0  0
   53.1329  100.8088   30.6101 C   0  0  0  0  0  0
   54.3833  101.5368   32.8318 C   0  0  0  0  0  0
   50.8697   99.2407   27.1035 C   0  0  0  0  0  0
   50.3915  100.2724   26.2595 C   0  0  0  0  0  0
   51.4310   99.5676   28.3515 C   0  0  0  0  0  0
   50.9500  101.9031   27.8941 C   0  0  0  0  0  0
   50.4402  101.6147   26.6328 C   0  0  0  0  0  0
   50.6126   98.0496   26.3638 C   0  0  0  0  0  0
   55.2429  100.2602   32.7370 C   0  0  0  0  0  0
   53.8075  101.6883   34.2557 C   0  0  0  0  0  0
   55.6267  102.5705   31.7577 H   0  0  0  0  0  0
   49.5054  100.0582   24.3026 H   0  0  0  0  0  0
   53.7186  100.0064   30.1871 H   0  0  0  0  0  0
   51.8106   98.7923   29.0015 H   0  0  0  0  0  0
   50.9656  102.9368   28.2101 H   0  0  0  0  0  0
   50.0567  102.4042   26.0103 H   0  0  0  0  0  0
   50.8319   97.0381   26.6622 H   0  0  0  0  0  0
   54.6409   99.3634   32.8867 H   0  0  0  0  0  0
   56.0322  100.2502   33.4901 H   0  0  0  0  0  0
   55.7319  100.1677   31.7655 H   0  0  0  0  0  0
   53.1137  100.8798   34.4863 H   0  0  0  0  0  0
   54.5968  101.6686   35.0088 H   0  0  0  0  0  0
   53.2697  102.6293   34.3785 H   0  0  0  0  0  0
  1 10  1  0  0  0
  1 19  1  0  0  0
  2  3  1  0  0  0
  2  7  1  0  0  0
  2  9  1  0  0  0
  3  4  2  0  0  0
  4  8  1  0  0  0
  5  6  1  0  0  0
  5 12  1  0  0  0
  5 20  1  0  0  0
  6 16  2  0  0  0
  7 13  1  0  0  0
  7 14  2  0  0  0
  8  9  2  0  0  0
  8 10  1  0  0  0
  9 21  1  0  0  0
 10 17  1  0  0  0
 10 18  1  0  0  0
 11 12  1  0  0  0
 11 13  2  0  0  0
 11 16  1  0  0  0
 12 15  2  0  0  0
 13 22  1  0  0  0
 14 15  1  0  0  0
 14 23  1  0  0  0
 15 24  1  0  0  0
 16 25  1  0  0  0
 17 26  1  0  0  0
 17 27  1  0  0  0
 17 28  1  0  0  0
 18 29  1  0  0  0
 18 30  1  0  0  0
 18 31  1  0  0  0
M  END
> <s_m_entry_id>
28411

> <s_m_entry_name>
dock_pv.572

> <s_m_Source_Path>
/home/csk/Desktop/cluster/DUD-E-result/rock1

> <s_m_Source_File>
dock_pv.maegz

> <i_m_Source_File_Index>
572

> <chembl_id>
CHEMBL2001641

> <chembl_pref_name>
None

> <i_lp_mmshare_version>
53161

> <r_lp_tautomer_probability>
1

> <s_lp_Force_Field>
OPLS_2005

> <r_lp_Energy>
2.536225

> <b_lp_Chiralities_Consistent>
1

> <s_lp_Variant>
CHEMBL3231_lig1717-1

> <s_i_glide_gridfile>
glide-grid_2etr

> <i_i_glide_lignum>
2447

> <i_i_glide_rotatable_bonds>
3

> <r_i_docking_score>
-7.2626349840454

> <r_i_glide_ligand_efficiency>
-0.403479721335856

> <r_i_glide_ligand_efficiency_sa>
-1.05741600640997

> <r_i_glide_ligand_efficiency_ln>
-1.86682287349651

> <r_i_glide_gscore>
-7.2626349840454

> <r_i_glide_lipo>
-1.8684701234738

> <r_i_glide_hbond>
-0.52070987217096

> <r_i_glide_metal>
0

> <r_i_glide_rewards>
-2.86229686804595

> <r_i_glide_evdw>
-32.4502754211426

> <r_i_glide_ecoul>
-4.93376970291138

> <r_i_glide_erotb>
0.410758378964865

> <r_i_glide_esite>
-0.0593372728257191

> <r_i_glide_emodel>
-54.4919989811542

> <r_i_glide_energy>
-37.384045124054

> <r_i_glide_einternal>
0.99952507019043

> <i_i_glide_confnum>
3

> <i_i_glide_posenum>
47

> <r_i_glide_eff_state_penalty>
0

> <s_user_duplicate_titles>
CHEMBL3231_lig1717

> <i_f3d_flags>
0

> <s_m_subgroup_title>
dock_pv

> <s_m_subgroupid>
dock_pv

> <b_m_subgroup_collapsed>
1

$$$$
CHEMBL3231_lig1845
                    3D
 Schrodinger Suite 2021-1.
 29 31  0  0  1  0            999 V2000
   51.2398  103.0062   28.4662 Cl  0  0  0  0  0  0
   53.1644  100.8559   33.1950 S   0  0  0  0  0  0
   50.5033   97.2814   25.6856 O   0  0  0  0  0  0
   51.1562   98.4725   28.1559 N   0  0  0  0  0  0
   50.0186   99.2460   24.8110 N   0  0  0  0  0  0
   50.8622  100.6616   27.1348 C   0  0  0  0  0  0
   51.6468  100.4764   29.4466 C   0  0  0  0  0  0
   50.8268   99.2584   27.0982 C   0  0  0  0  0  0
   51.2505  101.2763   28.3354 C   0  0  0  0  0  0
   51.5618   99.0583   29.3124 C   0  0  0  0  0  0
   50.4386   98.4971   25.8482 C   0  0  0  0  0  0
   52.1278  101.0142   30.6706 C   0  0  0  0  0  0
   50.5374  101.4431   25.8639 C   0  0  0  0  0  0
   51.8928   98.2299   30.4129 C   0  0  0  0  0  0
   52.4957  100.1708   31.7158 C   0  0  0  0  0  0
   52.3588   98.7919   31.5974 C   0  0  0  0  0  0
   49.6264  100.6528   24.8993 C   0  0  0  0  0  0
   54.6968  101.6750   32.6657 C   0  0  0  0  0  0
   49.8491   98.7770   23.9348 H   0  0  0  0  0  0
   52.2329  102.0824   30.7857 H   0  0  0  0  0  0
   51.4773  101.6695   25.3585 H   0  0  0  0  0  0
   50.0781  102.4097   26.0703 H   0  0  0  0  0  0
   51.7998   97.1562   30.3268 H   0  0  0  0  0  0
   52.6378   98.1475   32.4188 H   0  0  0  0  0  0
   48.5852  100.7032   25.2109 H   0  0  0  0  0  0
   49.6218  101.1029   23.9091 H   0  0  0  0  0  0
   55.2351  102.0659   33.5286 H   0  0  0  0  0  0
   55.3467  100.9683   32.1474 H   0  0  0  0  0  0
   54.4822  102.5027   31.9894 H   0  0  0  0  0  0
  1  9  1  0  0  0
  2 15  1  0  0  0
  2 18  1  0  0  0
  3 11  2  0  0  0
  4  8  2  0  0  0
  4 10  1  0  0  0
  5 11  1  0  0  0
  5 17  1  0  0  0
  5 19  1  0  0  0
  6  8  1  0  0  0
  6  9  2  0  0  0
  6 13  1  0  0  0
  7  9  1  0  0  0
  7 10  1  0  0  0
  7 12  2  0  0  0
  8 11  1  0  0  0
 10 14  2  0  0  0
 12 15  1  0  0  0
 12 20  1  0  0  0
 13 17  1  0  0  0
 13 21  1  0  0  0
 13 22  1  0  0  0
 14 16  1  0  0  0
 14 23  1  0  0  0
 15 16  2  0  0  0
 16 24  1  0  0  0
 17 25  1  0  0  0
 17 26  1  0  0  0
 18 27  1  0  0  0
 18 28  1  0  0  0
 18 29  1  0  0  0
M  END
> <s_m_entry_id>
28412

> <s_m_entry_name>
dock_pv.573

> <s_m_Source_Path>
/home/csk/Desktop/cluster/DUD-E-result/rock1

> <s_m_Source_File>
dock_pv.maegz

> <i_m_Source_File_Index>
573

> <chembl_id>
CHEMBL1985074

> <chembl_pref_name>
None

> <i_lp_mmshare_version>
53161

> <r_lp_tautomer_probability>
1

> <s_lp_Force_Field>
OPLS_2005

> <r_lp_Energy>
19.621299

> <b_lp_Chiralities_Consistent>
1

> <s_lp_Variant>
CHEMBL3231_lig1845-1

> <s_i_glide_gridfile>
glide-grid_2etr

> <i_i_glide_lignum>
2665

> <i_i_glide_rotatable_bonds>
1

> <r_i_docking_score>
-7.26231590643953

> <r_i_glide_ligand_efficiency>
-0.403461994802196

> <r_i_glide_ligand_efficiency_sa>
-1.05736954974948

> <r_i_glide_ligand_efficiency_ln>
-1.86674085624322

> <r_i_glide_gscore>
-7.26231590643953

> <r_i_glide_lipo>
-2.08608573345167

> <r_i_glide_hbond>
-0.166364677895496

> <r_i_glide_metal>
0

> <r_i_glide_rewards>
-2.88267297399709

> <r_i_glide_evdw>
-34.334415435791

> <r_i_glide_ecoul>
-2.73647832870483

> <r_i_glide_erotb>
0

> <r_i_glide_esite>
0

> <r_i_glide_emodel>
-52.5100379612757

> <r_i_glide_energy>
-37.0708937644958

> <r_i_glide_einternal>
0.0672756657004356

> <i_i_glide_confnum>
1

> <i_i_glide_posenum>
348

> <r_i_glide_eff_state_penalty>
0

> <s_user_duplicate_titles>
CHEMBL3231_lig1845

> <i_f3d_flags>
0

> <s_m_subgroup_title>
dock_pv

> <s_m_subgroupid>
dock_pv

> <b_m_subgroup_collapsed>
1

$$$$
CHEMBL3231_lig255
                    3D
 Schrodinger Suite 2021-1.
 37 39  0  0  1  0            999 V2000
   50.0392   99.2965   24.8496 N   0  0  0  0  0  0
   50.0227  100.6494   24.9821 C   0  0  0  0  0  0
   50.4074  101.3222   26.0799 C   0  0  0  0  0  0
   50.4332   98.4448   25.8316 C   0  0  0  0  0  0
   50.8449   99.1328   27.1321 C   0  0  0  0  0  0
   50.8464  100.5378   27.2405 C   0  0  0  0  0  0
   51.2389  101.1459   28.4310 C   0  0  0  0  0  0
   51.6429  100.3794   29.5251 C   0  0  0  0  0  0
   51.6467   98.9775   29.4096 C   0  0  0  0  0  0
   51.2431   98.3577   28.2243 C   0  0  0  0  0  0
   51.9884  101.0878   30.6591 O   0  0  0  0  0  0
   52.5251  100.4230   31.8036 C   0  0  2  0  0  0
   50.4438   97.2364   25.6131 O   0  0  0  0  0  0
   52.3385  101.3691   33.0056 C   0  0  0  0  0  0
   53.6758  102.1156   33.2303 C   0  0  1  0  0  0
   54.5987  101.6640   32.0848 C   0  0  0  0  0  0
   54.0460  100.3092   31.6357 C   0  0  0  0  0  0
   53.5398  103.6506   33.3930 C   0  0  0  0  0  0
   52.9316  104.3029   32.2439 N   0  0  0  0  0  0
   49.7409   98.8744   23.9844 H   0  0  0  0  0  0
   49.6472  101.1029   24.0781 H   0  0  0  0  0  0
   50.3599  102.4014   26.1140 H   0  0  0  0  0  0
   51.2369  102.2213   28.5170 H   0  0  0  0  0  0
   51.9566   98.3440   30.2244 H   0  0  0  0  0  0
   51.2427   97.2787   28.1620 H   0  0  0  0  0  0
   52.0488   99.4661   32.0196 H   0  0  0  0  0  0
   52.0561  100.8061   33.8966 H   0  0  0  0  0  0
   51.5322  102.0794   32.8148 H   0  0  0  0  0  0
   54.1107  101.7451   34.1605 H   0  0  0  0  0  0
   54.5813  102.3682   31.2521 H   0  0  0  0  0  0
   55.6381  101.5780   32.4061 H   0  0  0  0  0  0
   54.4372   99.4987   32.2527 H   0  0  0  0  0  0
   54.3373  100.1048   30.6045 H   0  0  0  0  0  0
   54.5232  104.0932   33.5637 H   0  0  0  0  0  0
   52.9413  103.8757   34.2766 H   0  0  0  0  0  0
   52.9089  105.3095   32.4092 H   0  0  0  0  0  0
   53.5446  104.1797   31.4485 H   0  0  0  0  0  0
  1  4  1  0  0  0
  1  2  1  0  0  0
  1 20  1  0  0  0
  2  3  2  0  0  0
  2 21  1  0  0  0
  3  6  1  0  0  0
  3 22  1  0  0  0
  4 13  2  0  0  0
  4  5  1  0  0  0
  5 10  1  0  0  0
  5  6  2  0  0  0
  6  7  1  0  0  0
  7  8  2  0  0  0
  7 23  1  0  0  0
  8 11  1  0  0  0
  8  9  1  0  0  0
  9 10  2  0  0  0
  9 24  1  0  0  0
 10 25  1  0  0  0
 11 12  1  0  0  0
 12 14  1  0  0  0
 12 17  1  0  0  0
 12 26  1  0  0  0
 14 15  1  0  0  0
 14 27  1  0  0  0
 14 28  1  0  0  0
 15 16  1  0  0  0
 15 18  1  0  0  0
 15 29  1  0  0  0
 16 17  1  0  0  0
 16 30  1  0  0  0
 16 31  1  0  0  0
 17 32  1  0  0  0
 17 33  1  0  0  0
 18 19  1  0  0  0
 18 34  1  0  0  0
 18 35  1  0  0  0
 19 36  1  0  0  0
 19 37  1  0  0  0
M  END
> <s_m_entry_id>
28413

> <s_m_entry_name>
dock_pv.574

> <s_m_Source_Path>
/home/csk/Desktop/cluster/DUD-E-result/rock1

> <s_m_Source_File>
dock_pv.maegz

> <i_m_Source_File_Index>
574

> <chembl_id>
CHEMBL1667979

> <chembl_pref_name>
None

> <i_lp_mmshare_version>
53161

> <r_lp_tautomer_probability>
1

> <s_lp_Force_Field>
OPLS_2005

> <r_lp_Energy>
37.581574

> <b_lp_Chiralities_Consistent>
1

> <s_lp_Variant>
CHEMBL3231_lig255-1

> <s_i_glide_gridfile>
glide-grid_2etr

> <i_i_glide_lignum>
399

> <i_i_glide_rotatable_bonds>
3

> <r_i_docking_score>
-7.26172188579889

> <r_i_glide_ligand_efficiency>
-0.382195888726257

> <r_i_glide_ligand_efficiency_sa>
-1.01985213861093

> <r_i_glide_ligand_efficiency_ln>
-1.84100246553528

> <r_i_glide_gscore>
-7.26172188579889

> <r_i_glide_lipo>
-2.43408657673783

> <r_i_glide_hbond>
-0.375324991438625

> <r_i_glide_metal>
0

> <r_i_glide_rewards>
-2.56485831780613

> <r_i_glide_evdw>
-31.4960994720459

> <r_i_glide_ecoul>
-5.61361217498779

> <r_i_glide_erotb>
0.52939480003416

> <r_i_glide_esite>
0

> <r_i_glide_emodel>
-52.9473258959277

> <r_i_glide_energy>
-37.1097116470337

> <r_i_glide_einternal>
1.02610218524933

> <i_i_glide_confnum>
8

> <i_i_glide_posenum>
357

> <r_i_glide_eff_state_penalty>
0

> <s_user_duplicate_titles>
CHEMBL3231_lig255

> <i_f3d_flags>
0

> <s_m_subgroup_title>
dock_pv

> <s_m_subgroupid>
dock_pv

> <b_m_subgroup_collapsed>
1

$$$$
CHEMBL3231_lig937
                    3D
 Schrodinger Suite 2021-1.
 43 47  0  0  1  0            999 V2000
   51.8517  101.9153   30.1299 C   0  0  0  0  0  0
   53.2452  100.1485   31.0340 N   0  0  0  0  0  0
   52.4061  100.6368   30.0740 C   0  0  0  0  0  0
   53.5596  100.9301   32.0188 C   0  0  0  0  0  0
   52.1191  102.7958   31.2559 C   0  0  0  0  0  0
   53.0154  102.2002   32.1026 N   0  0  0  0  0  0
   51.1502  100.6772   28.0976 C   0  0  0  0  0  0
   50.8429  102.2613   28.7693 S   0  0  0  0  0  0
   52.0013   99.9459   28.9299 C   0  0  0  0  0  0
   50.5626  100.2728   26.8214 C   0  0  0  0  0  0
   49.6685  100.2865   24.8110 N   0  0  0  0  0  0
   50.1075  101.1030   25.8129 C   0  0  0  0  0  0
   49.8108   98.9977   25.1089 N   0  0  0  0  0  0
   50.3232   98.9773   26.3212 C   0  0  0  0  0  0
   50.5791   97.6515   26.9808 C   0  0  0  0  0  0
   51.6430  103.9029   31.4910 O   0  0  0  0  0  0
   54.5193  100.5024   33.1496 C   0  0  1  0  0  0
   53.7885  100.0769   34.3772 N   0  0  2  0  0  0
   54.7949   99.9446   35.4564 C   0  0  0  0  0  0
   55.9141   98.9087   35.1172 C   0  0  0  0  0  0
   55.6615   98.2682   33.7309 C   0  0  0  0  0  0
   55.5995   99.4386   32.7228 C   0  0  0  0  0  0
   54.2425   97.6551   33.7810 C   0  0  0  0  0  0
   53.1889   98.7374   34.1632 C   0  0  0  0  0  0
   53.2738  102.7652   32.8965 H   0  0  0  0  0  0
   52.3334   98.9412   28.7264 H   0  0  0  0  0  0
   49.2817  100.5879   23.9222 H   0  0  0  0  0  0
   50.0636  102.1772   25.7367 H   0  0  0  0  0  0
   50.1174   97.6018   27.9672 H   0  0  0  0  0  0
   50.2054   96.8018   26.4077 H   0  0  0  0  0  0
   51.6460   97.5031   27.1210 H   0  0  0  0  0  0
   55.0735  101.4052   33.4152 H   0  0  0  0  0  0
   55.2413  100.9190   35.6621 H   0  0  0  0  0  0
   54.2973   99.6631   36.3860 H   0  0  0  0  0  0
   55.9490   98.1280   35.8778 H   0  0  0  0  0  0
   56.8908   99.3964   35.1185 H   0  0  0  0  0  0
   56.4244   97.5350   33.4623 H   0  0  0  0  0  0
   55.4276   99.0270   31.7272 H   0  0  0  0  0  0
   56.5830   99.9041   32.6495 H   0  0  0  0  0  0
   53.9989   97.2230   32.8086 H   0  0  0  0  0  0
   54.2264   96.8388   34.5042 H   0  0  0  0  0  0
   52.6583   98.4341   35.0666 H   0  0  0  0  0  0
   52.4185   98.7936   33.3931 H   0  0  0  0  0  0
  1  5  1  0  0  0
  1  3  2  0  0  0
  1  8  1  0  0  0
  2  3  1  0  0  0
  2  4  2  0  0  0
  3  9  1  0  0  0
  4  6  1  0  0  0
  4 17  1  0  0  0
  5  6  1  0  0  0
  5 16  2  0  0  0
  6 25  1  0  0  0
  7  9  2  0  0  0
  7  8  1  0  0  0
  7 10  1  0  0  0
  9 26  1  0  0  0
 10 14  1  0  0  0
 10 12  2  0  0  0
 11 13  1  0  0  0
 11 12  1  0  0  0
 11 27  1  0  0  0
 12 28  1  0  0  0
 13 14  2  0  0  0
 14 15  1  0  0  0
 15 29  1  0  0  0
 15 30  1  0  0  0
 15 31  1  0  0  0
 17 22  1  0  0  0
 17 18  1  0  0  0
 17 32  1  0  0  0
 18 19  1  0  0  0
 18 24  1  0  0  0
 19 20  1  0  0  0
 19 33  1  0  0  0
 19 34  1  0  0  0
 20 21  1  0  0  0
 20 35  1  0  0  0
 20 36  1  0  0  0
 21 22  1  0  0  0
 21 23  1  0  0  0
 21 37  1  0  0  0
 22 38  1  0  0  0
 22 39  1  0  0  0
 23 24  1  0  0  0
 23 40  1  0  0  0
 23 41  1  0  0  0
 24 42  1  0  0  0
 24 43  1  0  0  0
M  END
> <s_m_entry_id>
28414

> <s_m_entry_name>
dock_pv.575

> <s_m_Source_Path>
/home/csk/Desktop/cluster/DUD-E-result/rock1

> <s_m_Source_File>
dock_pv.maegz

> <i_m_Source_File_Index>
575

> <chembl_id>
CHEMBL4297644

> <chembl_pref_name>
SIMUROSERTIB

> <i_lp_mmshare_version>
53161

> <r_lp_tautomer_probability>
0.5

> <s_lp_Force_Field>
OPLS_2005

> <r_lp_Energy>
56.566541

> <b_lp_Chiralities_Consistent>
1

> <s_lp_Variant>
CHEMBL3231_lig937-1

> <s_i_glide_gridfile>
glide-grid_2etr

> <i_i_glide_lignum>
1349

> <i_i_glide_rotatable_bonds>
2

> <r_i_docking_score>
-7.25988916034856

> <r_i_glide_ligand_efficiency>
-0.30249538168119

> <r_i_glide_ligand_efficiency_sa>
-0.872547667575009

> <r_i_glide_ligand_efficiency_ln>
-1.73762461067764

> <r_i_glide_gscore>
-7.25988916034856

> <r_i_glide_lipo>
-1.95312193593864

> <r_i_glide_hbond>
-0.445150634578103

> <r_i_glide_metal>
0

> <r_i_glide_rewards>
-2.31781443939394

> <r_i_glide_evdw>
-37.9289741516113

> <r_i_glide_ecoul>
-6.20266056060791

> <r_i_glide_erotb>
0.325108865381637

> <r_i_glide_esite>
-0.0420632241477643

> <r_i_glide_emodel>
-63.908627064915

> <r_i_glide_energy>
-44.1316347122192

> <r_i_glide_einternal>
0.137116342782974

> <i_i_glide_confnum>
4

> <i_i_glide_posenum>
206

> <r_i_glide_eff_state_penalty>
0

> <s_user_duplicate_titles>
CHEMBL3231_lig937

> <i_f3d_flags>
0

> <s_m_subgroup_title>
dock_pv

> <s_m_subgroupid>
dock_pv

> <b_m_subgroup_collapsed>
1

$$$$
CHEMBL3231_lig43
                    3D
 Schrodinger Suite 2021-1.
 43 46  0  0  1  0            999 V2000
   51.0525  103.5032   33.6110 C   0  0  0  0  0  0
   52.4041  103.0161   33.1019 C   0  0  0  0  0  0
   52.6767  102.4141   31.9131 C   0  0  0  0  0  0
   54.0944  101.8047   31.7443 C   0  0  1  0  0  0
   55.0396  102.5730   32.5922 N   0  0  0  0  0  0
   54.7207  103.1658   33.7718 C   0  0  0  0  0  0
   55.5602  103.6769   34.5087 O   0  0  0  0  0  0
   53.3909  103.2369   34.0181 N   0  0  0  0  0  0
   54.1534  100.2853   31.9662 C   0  0  0  0  0  0
   53.4560   99.6921   33.0272 C   0  0  0  0  0  0
   53.4477   98.3080   33.1761 C   0  0  0  0  0  0
   54.1347   97.5112   32.2649 C   0  0  0  0  0  0
   54.1270   96.1676   32.4103 F   0  0  0  0  0  0
   54.8298   98.0885   31.2071 C   0  0  0  0  0  0
   54.8430   99.4725   31.0580 C   0  0  0  0  0  0
   51.7361  102.3023   30.8009 C   0  0  0  0  0  0
   50.8129  103.1029   30.6345 O   0  0  0  0  0  0
   51.9743  101.2534   29.9785 N   0  0  0  0  0  0
   51.3770  100.9406   28.7473 C   0  0  0  0  0  0
   50.9110  101.9279   27.8720 C   0  0  0  0  0  0
   50.4287  101.6289   26.5989 C   0  0  0  0  0  0
   50.3711  100.2811   26.2457 C   0  0  0  0  0  0
   49.9282   99.6374   25.1068 N   0  0  0  0  0  0
   50.0431   98.3029   25.2122 N   0  0  0  0  0  0
   50.5700   98.0547   26.3840 C   0  0  0  0  0  0
   50.8135   99.2550   27.1157 C   0  0  0  0  0  0
   51.3425   99.5934   28.3729 C   0  0  0  0  0  0
   51.0211  104.5930   33.6095 H   0  0  0  0  0  0
   50.2158  103.1225   33.0270 H   0  0  0  0  0  0
   50.8834  103.1636   34.6348 H   0  0  0  0  0  0
   54.4435  101.9528   30.7189 H   0  0  0  0  0  0
   56.0219  102.3770   32.4699 H   0  0  0  0  0  0
   53.1666  103.6501   34.9090 H   0  0  0  0  0  0
   52.9147  100.2993   33.7367 H   0  0  0  0  0  0
   52.9121   97.8488   33.9926 H   0  0  0  0  0  0
   55.3773   97.4638   30.5167 H   0  0  0  0  0  0
   55.4013   99.9022   30.2385 H   0  0  0  0  0  0
   52.6406  100.5763   30.3196 H   0  0  0  0  0  0
   50.9641  102.9689   28.1547 H   0  0  0  0  0  0
   50.0882  102.4117   25.9378 H   0  0  0  0  0  0
   49.5379  100.0502   24.2687 H   0  0  0  0  0  0
   50.7707   97.0415   26.6983 H   0  0  0  0  0  0
   51.7075   98.8231   29.0370 H   0  0  0  0  0  0
  1  2  1  0  0  0
  1 28  1  0  0  0
  1 29  1  0  0  0
  1 30  1  0  0  0
  2  3  2  0  0  0
  2  8  1  0  0  0
  3  4  1  0  0  0
  3 16  1  0  0  0
  4  5  1  0  0  0
  4  9  1  0  0  0
  4 31  1  0  0  0
  5  6  1  0  0  0
  5 32  1  0  0  0
  6  7  2  0  0  0
  6  8  1  0  0  0
  8 33  1  0  0  0
  9 10  2  0  0  0
  9 15  1  0  0  0
 10 11  1  0  0  0
 10 34  1  0  0  0
 11 12  2  0  0  0
 11 35  1  0  0  0
 12 13  1  0  0  0
 12 14  1  0  0  0
 14 15  2  0  0  0
 14 36  1  0  0  0
 15 37  1  0  0  0
 16 17  2  0  0  0
 16 18  1  0  0  0
 18 19  1  0  0  0
 18 38  1  0  0  0
 19 20  2  0  0  0
 19 27  1  0  0  0
 20 21  1  0  0  0
 20 39  1  0  0  0
 21 22  2  0  0  0
 21 40  1  0  0  0
 22 23  1  0  0  0
 22 26  1  0  0  0
 23 24  1  0  0  0
 23 41  1  0  0  0
 24 25  2  0  0  0
 25 26  1  0  0  0
 25 42  1  0  0  0
 26 27  2  0  0  0
 27 43  1  0  0  0
M  END
> <s_m_entry_id>
28415

> <s_m_entry_name>
dock_pv.576

> <s_m_Source_Path>
/home/csk/Desktop/cluster/DUD-E-result/rock1

> <s_m_Source_File>
dock_pv.maegz

> <i_m_Source_File_Index>
576

> <chembl_id>
CHEMBL384073

> <chembl_pref_name>
GSK-180736A

> <i_lp_mmshare_version>
53161

> <r_lp_tautomer_probability>
0.980392156860701

> <s_lp_Force_Field>
OPLS_2005

> <r_lp_Energy>
45.729174

> <b_lp_Chiralities_Consistent>
1

> <s_lp_Variant>
CHEMBL3231_lig43-2

> <s_i_glide_gridfile>
glide-grid_2etr

> <i_i_glide_lignum>
44

> <i_i_glide_rotatable_bonds>
4

> <r_i_docking_score>
-7.25873033641498

> <r_i_glide_ligand_efficiency>
-0.268841864311666

> <r_i_glide_ligand_efficiency_sa>
-0.806525592048939

> <r_i_glide_ligand_efficiency_ln>
-1.68971275279513

> <r_i_glide_gscore>
-7.25873033641498

> <r_i_glide_lipo>
-1.86054873583347

> <r_i_glide_hbond>
-0.474492489689941

> <r_i_glide_metal>
0

> <r_i_glide_rewards>
-2.12911234237964

> <r_i_glide_evdw>
-43.645206451416

> <r_i_glide_ecoul>
-6.49306583404541

> <r_i_glide_erotb>
0.40347056192342

> <r_i_glide_esite>
-0.0418271327577324

> <r_i_glide_emodel>
-67.8959930347643

> <r_i_glide_energy>
-50.1382722854614

> <r_i_glide_einternal>
5.26084566116333

> <i_i_glide_confnum>
12

> <i_i_glide_posenum>
235

> <r_i_glide_eff_state_penalty>
0

> <s_user_duplicate_titles>
CHEMBL3231_lig43

> <i_f3d_flags>
0

> <s_m_subgroup_title>
dock_pv

> <s_m_subgroupid>
dock_pv

> <b_m_subgroup_collapsed>
1

$$$$
CHEMBL3231_lig2085
                    3D
 Schrodinger Suite 2021-1.
 42 44  0  0  1  0            999 V2000
   51.1761  101.0118   28.3831 C   0  0  0  0  0  0
   51.8055  100.5665   29.4608 N   0  0  0  0  0  0
   52.0905  101.5199   30.3182 C   0  0  0  0  0  0
   51.6006  103.1030   29.8420 S   0  0  0  0  0  0
   50.9236  102.3884   28.4112 C   0  0  0  0  0  0
   52.7528  101.3625   31.5230 N   0  0  0  0  0  0
   52.5196  100.3484   32.3820 C   0  0  0  0  0  0
   53.4225  100.2717   33.6252 C   0  0  0  0  0  0
   51.6345   99.5051   32.2266 O   0  0  0  0  0  0
   53.9126   98.8482   33.8885 C   0  0  0  0  0  0
   53.6620   98.2135   35.1086 C   0  0  0  0  0  0
   54.0931   96.9024   35.3176 C   0  0  0  0  0  0
   54.7642   96.2136   34.3056 C   0  0  0  0  0  0
   55.0147   96.8387   33.0777 C   0  0  0  0  0  0
   54.6147   98.1602   32.8942 C   0  0  0  0  0  0
   50.7980  100.0650   27.2828 C   0  0  0  0  0  0
   50.4027  100.5561   26.0295 C   0  0  0  0  0  0
   50.0423   99.6543   25.0278 C   0  0  0  0  0  0
   50.0429   98.3107   25.2112 N   0  0  0  0  0  0
   50.4434   97.8389   26.4166 C   0  0  0  0  0  0
   50.8305   98.6723   27.4662 C   0  0  0  0  0  0
   55.6431   96.2258   31.9883 N   0  0  0  0  0  0
   56.1366   94.5407   31.8827 S   0  0  0  0  0  0
   57.7397   94.5244   32.8555 C   0  0  0  0  0  0
   56.4424   94.3037   30.4702 O   0  0  0  0  0  0
   55.1250   93.7353   32.5728 O   0  0  0  0  0  0
   50.4240  102.9999   27.6750 H   0  0  0  0  0  0
   53.4059  102.0849   31.7898 H   0  0  0  0  0  0
   52.8538  100.6442   34.4780 H   0  0  0  0  0  0
   54.2911  100.9255   33.5243 H   0  0  0  0  0  0
   53.1338   98.7307   35.8964 H   0  0  0  0  0  0
   53.9046   96.4175   36.2632 H   0  0  0  0  0  0
   55.0826   95.1999   34.4954 H   0  0  0  0  0  0
   54.8180   98.6494   31.9510 H   0  0  0  0  0  0
   50.3726  101.6157   25.8256 H   0  0  0  0  0  0
   49.7293  100.0091   24.0556 H   0  0  0  0  0  0
   50.4508   96.7646   26.5330 H   0  0  0  0  0  0
   51.1335   98.2396   28.4084 H   0  0  0  0  0  0
   55.9255   96.8162   31.2192 H   0  0  0  0  0  0
   58.1577   93.5207   32.8109 H   0  0  0  0  0  0
   57.5285   94.7882   33.8903 H   0  0  0  0  0  0
   58.4261   95.2452   32.4118 H   0  0  0  0  0  0
  1  2  1  0  0  0
  1  5  2  0  0  0
  1 16  1  0  0  0
  2  3  2  0  0  0
  3  4  1  0  0  0
  3  6  1  0  0  0
  4  5  1  0  0  0
  5 27  1  0  0  0
  6  7  1  0  0  0
  6 28  1  0  0  0
  7  8  1  0  0  0
  7  9  2  0  0  0
  8 10  1  0  0  0
  8 29  1  0  0  0
  8 30  1  0  0  0
 10 11  2  0  0  0
 10 15  1  0  0  0
 11 12  1  0  0  0
 11 31  1  0  0  0
 12 13  2  0  0  0
 12 32  1  0  0  0
 13 14  1  0  0  0
 13 33  1  0  0  0
 14 15  2  0  0  0
 14 22  1  0  0  0
 15 34  1  0  0  0
 16 17  2  0  0  0
 16 21  1  0  0  0
 17 18  1  0  0  0
 17 35  1  0  0  0
 18 19  2  0  0  0
 18 36  1  0  0  0
 19 20  1  0  0  0
 20 21  2  0  0  0
 20 37  1  0  0  0
 21 38  1  0  0  0
 22 23  1  0  0  0
 22 39  1  0  0  0
 23 24  1  0  0  0
 23 25  2  0  0  0
 23 26  2  0  0  0
 24 40  1  0  0  0
 24 41  1  0  0  0
 24 42  1  0  0  0
M  END
> <s_m_entry_id>
28416

> <s_m_entry_name>
dock_pv.577

> <s_m_Source_Path>
/home/csk/Desktop/cluster/DUD-E-result/rock1

> <s_m_Source_File>
dock_pv.maegz

> <i_m_Source_File_Index>
577

> <chembl_id>
CHEMBL3581128

> <chembl_pref_name>
None

> <i_lp_mmshare_version>
53161

> <r_lp_tautomer_probability>
0.999000488399163

> <s_lp_Force_Field>
OPLS_2005

> <r_lp_Energy>
0.785722

> <b_lp_Chiralities_Consistent>
1

> <s_lp_Variant>
CHEMBL3231_lig2085-1

> <s_i_glide_gridfile>
glide-grid_2etr

> <i_i_glide_lignum>
3013

> <i_i_glide_rotatable_bonds>
7

> <r_i_docking_score>
-7.25792613013529

> <r_i_glide_ligand_efficiency>
-0.279151005005203

> <r_i_glide_ligand_efficiency_sa>
-0.82698375392175

> <r_i_glide_ligand_efficiency_ln>
-1.70450013646418

> <r_i_glide_gscore>
-7.25792613013529

> <r_i_glide_lipo>
-2.06292366702599

> <r_i_glide_hbond>
-0.248433778944184

> <r_i_glide_metal>
0

> <r_i_glide_rewards>
-2.23942837258982

> <r_i_glide_evdw>
-47.3165550231934

> <r_i_glide_ecoul>
-6.35443210601807

> <r_i_glide_erotb>
0.774693838262268

> <r_i_glide_esite>
-0.162841582775191

> <r_i_glide_emodel>
-75.2916852913074

> <r_i_glide_energy>
-53.6709871292114

> <r_i_glide_einternal>
4.27277851104736

> <i_i_glide_confnum>
22

> <i_i_glide_posenum>
301

> <r_i_glide_eff_state_penalty>
0

> <s_user_duplicate_titles>
CHEMBL3231_lig2085

> <i_f3d_flags>
0

> <s_m_subgroup_title>
dock_pv

> <s_m_subgroupid>
dock_pv

> <b_m_subgroup_collapsed>
1

$$$$
CHEMBL3231_lig974 
                    3D
 Schrodinger Suite 2021-1.
 55 57  0  0  1  0            999 V2000
   50.2348   98.2337   26.2710 C   0  0  0  0  0  0
   50.0407   98.8881   25.1007 N   0  0  0  0  0  0
   50.3850  100.1989   25.0474 C   0  0  0  0  0  0
   50.9436  100.8809   26.1297 C   0  0  0  0  0  0
   51.1633  100.1988   27.3366 C   0  0  0  0  0  0
   50.7797   98.8481   27.3976 C   0  0  0  0  0  0
   51.8171  100.8615   28.5052 C   0  0  0  0  0  0
   52.6738  100.1312   29.3277 C   0  0  0  0  0  0
   53.3148  100.6881   30.4407 C   0  0  0  0  0  0
   53.0823  102.0518   30.7683 C   0  0  0  0  0  0
   52.2438  102.7942   29.9129 C   0  0  0  0  0  0
   51.6171  102.2093   28.8118 C   0  0  0  0  0  0
   53.6567  102.6968   32.0321 C   0  0  0  0  0  0
   53.1567  103.8974   32.3953 N   0  0  0  0  0  0
   54.4643  102.1037   32.7476 O   0  0  0  0  0  0
   53.1078  104.4535   33.7572 C   0  0  1  0  0  0
   51.9804  103.8226   34.5871 C   0  0  0  0  0  0
   52.0549  102.4924   35.0217 C   0  0  0  0  0  0
   50.9981  101.9152   35.7239 C   0  0  0  0  0  0
   49.8583  102.6640   36.0113 C   0  0  0  0  0  0
   49.7764  104.0081   35.6136 C   0  0  0  0  0  0
   50.8464  104.5736   34.9165 C   0  0  0  0  0  0
   48.6977  104.8328   35.8587 O   0  0  0  0  0  0
   47.5104  104.2778   36.4061 C   0  0  0  0  0  0
   54.4595  104.5045   34.5010 C   0  0  0  0  0  0
   54.1740   99.8842   31.2180 N   0  0  0  0  0  0
   54.4654   98.4695   30.9943 C   0  0  0  0  0  0
   53.5276   97.5096   31.7525 C   0  0  0  0  0  0
   52.1756   97.5030   31.2120 N   0  0  0  0  0  0
   49.9473   97.1919   26.2993 H   0  0  0  0  0  0
   50.2122  100.6984   24.1046 H   0  0  0  0  0  0
   51.2270  101.9165   26.0174 H   0  0  0  0  0  0
   50.9066   98.2728   28.3024 H   0  0  0  0  0  0
   52.8418   99.0991   29.0788 H   0  0  0  0  0  0
   52.0465  103.8405   30.0904 H   0  0  0  0  0  0
   50.9681  102.8144   28.1963 H   0  0  0  0  0  0
   52.6790  104.4336   31.6925 H   0  0  0  0  0  0
   52.8477  105.5016   33.6116 H   0  0  0  0  0  0
   52.9239  101.8908   34.7980 H   0  0  0  0  0  0
   51.0645  100.8854   36.0434 H   0  0  0  0  0  0
   49.0561  102.1860   36.5540 H   0  0  0  0  0  0
   50.7825  105.6092   34.6169 H   0  0  0  0  0  0
   46.8411  105.1023   36.6230 H   0  0  0  0  0  0
   47.0150  103.6100   35.6972 H   0  0  0  0  0  0
   47.6552  103.7480   37.3466 H   0  0  0  0  0  0
   54.3904  105.1326   35.3897 H   0  0  0  0  0  0
   54.7959  103.5197   34.8239 H   0  0  0  0  0  0
   55.2375  104.9240   33.8617 H   0  0  0  0  0  0
   54.5098  100.3055   32.0773 H   0  0  0  0  0  0
   54.5026   98.2270   29.9321 H   0  0  0  0  0  0
   55.4892   98.3072   31.3373 H   0  0  0  0  0  0
   53.9275   96.4960   31.7001 H   0  0  0  0  0  0
   53.4915   97.7761   32.8103 H   0  0  0  0  0  0
   52.2043   97.1889   30.2549 H   0  0  0  0  0  0
   51.6490   96.7933   31.7098 H   0  0  0  0  0  0
  1  2  2  0  0  0
  1  6  1  0  0  0
  1 30  1  0  0  0
  2  3  1  0  0  0
  3  4  2  0  0  0
  3 31  1  0  0  0
  4  5  1  0  0  0
  4 32  1  0  0  0
  5  6  2  0  0  0
  5  7  1  0  0  0
  6 33  1  0  0  0
  7  8  2  0  0  0
  7 12  1  0  0  0
  8  9  1  0  0  0
  8 34  1  0  0  0
  9 10  2  0  0  0
  9 26  1  0  0  0
 10 11  1  0  0  0
 10 13  1  0  0  0
 11 12  2  0  0  0
 11 35  1  0  0  0
 12 36  1  0  0  0
 13 14  1  0  0  0
 13 15  2  0  0  0
 14 16  1  0  0  0
 14 37  1  0  0  0
 16 17  1  0  0  0
 16 25  1  0  0  0
 16 38  1  0  0  0
 17 18  2  0  0  0
 17 22  1  0  0  0
 18 19  1  0  0  0
 18 39  1  0  0  0
 19 20  2  0  0  0
 19 40  1  0  0  0
 20 21  1  0  0  0
 20 41  1  0  0  0
 21 22  2  0  0  0
 21 23  1  0  0  0
 22 42  1  0  0  0
 23 24  1  0  0  0
 24 43  1  0  0  0
 24 44  1  0  0  0
 24 45  1  0  0  0
 25 46  1  0  0  0
 25 47  1  0  0  0
 25 48  1  0  0  0
 26 27  1  0  0  0
 26 49  1  0  0  0
 27 28  1  0  0  0
 27 50  1  0  0  0
 27 51  1  0  0  0
 28 29  1  0  0  0
 28 52  1  0  0  0
 28 53  1  0  0  0
 29 54  1  0  0  0
 29 55  1  0  0  0
M  END
> <s_m_entry_id>
28417

> <s_m_entry_name>
dock_pv.578

> <s_m_Source_Path>
/home/csk/Desktop/cluster/DUD-E-result/rock1

> <s_m_Source_File>
dock_pv.maegz

> <i_m_Source_File_Index>
578

> <chembl_id>
CHEMBL4572198

> <chembl_pref_name>
None

> <i_lp_mmshare_version>
53161

> <r_lp_tautomer_probability>
1

> <s_lp_Force_Field>
OPLS_2005

> <r_lp_Energy>
22.414792

> <b_lp_Chiralities_Consistent>
1

> <s_lp_Variant>
CHEMBL3231_lig974 -1

> <s_i_glide_gridfile>
glide-grid_2etr

> <i_i_glide_lignum>
1388

> <i_i_glide_rotatable_bonds>
9

> <r_i_docking_score>
-7.25532521264137

> <r_i_glide_ligand_efficiency>
-0.250183628022116

> <r_i_glide_ligand_efficiency_sa>
-0.768643369020727

> <r_i_glide_ligand_efficiency_ln>
-1.66128549452164

> <r_i_glide_gscore>
-7.25532521264137

> <r_i_glide_lipo>
-2.94363655886339

> <r_i_glide_hbond>
-0.32

> <r_i_glide_metal>
0

> <r_i_glide_rewards>
-1.97872310066248

> <r_i_glide_evdw>
-48.7781944274902

> <r_i_glide_ecoul>
-2.29103207588196

> <r_i_glide_erotb>
0.895463198953668

> <r_i_glide_esite>
-0.125864219312357

> <r_i_glide_emodel>
-68.7648308913102

> <r_i_glide_energy>
-51.0692265033722

> <r_i_glide_einternal>
10.6951856613159

> <i_i_glide_confnum>
61

> <i_i_glide_posenum>
106

> <r_i_glide_eff_state_penalty>
0

> <s_user_duplicate_titles>
CHEMBL3231_lig974 

> <i_f3d_flags>
0

> <s_m_subgroup_title>
dock_pv

> <s_m_subgroupid>
dock_pv

> <b_m_subgroup_collapsed>
1

$$$$
CHEMBL3231_lig219
                    3D
 Schrodinger Suite 2021-1.
 43 46  0  0  1  0            999 V2000
   53.2429  102.4490   31.3169 C   0  0  0  0  0  0
   53.5891  102.1433   32.6316 C   0  0  0  0  0  0
   53.3045  100.8961   33.1900 C   0  0  0  0  0  0
   52.6537   99.9254   32.4255 C   0  0  0  0  0  0
   52.5928  101.4654   30.5576 C   0  0  0  0  0  0
   52.2952  100.1820   31.0916 C   0  0  0  0  0  0
   51.6421   99.3218   30.1528 C   0  0  0  0  0  0
   51.5015   99.9236   28.8939 C   0  0  0  0  0  0
   52.0459  101.5995   28.9031 S   0  0  0  0  0  0
   51.2093   97.9236   30.5798 C   0  0  0  0  0  0
   50.9646   99.3424   27.6081 C   0  0  0  0  0  0
   50.5771  100.2029   26.6161 N   0  0  0  0  0  0
   50.1364   99.6483   25.4568 C   0  0  0  0  0  0
   50.0405   98.3225   25.2033 N   0  0  0  0  0  0
   50.4417   97.4924   26.1900 C   0  0  0  0  0  0
   50.9204   97.9587   27.4069 C   0  0  0  0  0  0
   49.7716  100.5077   24.4285 N   0  0  0  0  0  0
   53.7172  100.5773   34.6302 C   0  0  2  0  0  0
   54.7061   99.4069   34.7059 C   0  0  0  0  0  0
   56.0710   99.6754   34.5638 C   0  0  0  0  0  0
   57.0010   98.6396   34.6043 C   0  0  0  0  0  0
   56.5689   97.3308   34.8002 C   0  0  0  0  0  0
   55.2142   97.0495   34.9589 C   0  0  0  0  0  0
   54.2831   98.0862   34.9145 C   0  0  0  0  0  0
   52.5391  100.3673   35.4648 N   0  0  0  0  0  0
   53.4865  103.4159   30.8965 H   0  0  0  0  0  0
   54.1046  102.8898   33.2188 H   0  0  0  0  0  0
   52.4536   98.9614   32.8666 H   0  0  0  0  0  0
   50.3642   97.5402   30.0120 H   0  0  0  0  0  0
   52.0221   97.1998   30.5045 H   0  0  0  0  0  0
   50.8635   97.8992   31.6110 H   0  0  0  0  0  0
   50.3988   96.4301   25.9977 H   0  0  0  0  0  0
   51.2666   97.2446   28.1321 H   0  0  0  0  0  0
   49.7912  101.4976   24.6171 H   0  0  0  0  0  0
   49.3573  100.1540   23.5653 H   0  0  0  0  0  0
   54.2195  101.4500   35.0503 H   0  0  0  0  0  0
   56.4189  100.6870   34.4112 H   0  0  0  0  0  0
   58.0533   98.8539   34.4752 H   0  0  0  0  0  0
   57.2908   96.5268   34.8250 H   0  0  0  0  0  0
   54.8888   96.0306   35.1079 H   0  0  0  0  0  0
   53.2341   97.8552   35.0241 H   0  0  0  0  0  0
   52.8407  100.1832   36.4109 H   0  0  0  0  0  0
   52.0021  101.2202   35.4898 H   0  0  0  0  0  0
  1  5  2  0  0  0
  1  2  1  0  0  0
  1 26  1  0  0  0
  2  3  2  0  0  0
  2 27  1  0  0  0
  3 18  1  0  0  0
  3  4  1  0  0  0
  4  6  2  0  0  0
  4 28  1  0  0  0
  5  9  1  0  0  0
  5  6  1  0  0  0
  6  7  1  0  0  0
  7  8  2  0  0  0
  7 10  1  0  0  0
  8 11  1  0  0  0
  8  9  1  0  0  0
 10 29  1  0  0  0
 10 30  1  0  0  0
 10 31  1  0  0  0
 11 16  1  0  0  0
 11 12  2  0  0  0
 12 13  1  0  0  0
 13 14  2  0  0  0
 13 17  1  0  0  0
 14 15  1  0  0  0
 15 16  2  0  0  0
 15 32  1  0  0  0
 16 33  1  0  0  0
 17 34  1  0  0  0
 17 35  1  0  0  0
 18 19  1  0  0  0
 18 25  1  0  0  0
 18 36  1  0  0  0
 19 20  2  0  0  0
 19 24  1  0  0  0
 20 21  1  0  0  0
 20 37  1  0  0  0
 21 22  2  0  0  0
 21 38  1  0  0  0
 22 23  1  0  0  0
 22 39  1  0  0  0
 23 24  2  0  0  0
 23 40  1  0  0  0
 24 41  1  0  0  0
 25 42  1  0  0  0
 25 43  1  0  0  0
M  END
> <s_m_entry_id>
28418

> <s_m_entry_name>
dock_pv.579

> <s_m_Source_Path>
/home/csk/Desktop/cluster/DUD-E-result/rock1

> <s_m_Source_File>
dock_pv.maegz

> <i_m_Source_File_Index>
579

> <chembl_id>
CHEMBL1083352

> <chembl_pref_name>
None

> <i_lp_mmshare_version>
53161

> <r_lp_tautomer_probability>
0.999999987636

> <s_lp_Force_Field>
OPLS_2005

> <r_lp_Energy>
2.970751

> <b_lp_Chiralities_Consistent>
1

> <s_lp_Variant>
CHEMBL3231_lig219-1

> <s_i_glide_gridfile>
glide-grid_2etr

> <i_i_glide_lignum>
356

> <i_i_glide_rotatable_bonds>
3

> <r_i_docking_score>
-7.25470013469922

> <r_i_glide_ligand_efficiency>
-0.290188005387969

> <r_i_glide_ligand_efficiency_sa>
-0.84851487426061

> <r_i_glide_ligand_efficiency_ln>
-1.71958133774318

> <r_i_glide_gscore>
-7.25470013469922

> <r_i_glide_lipo>
-1.54753466301223

> <r_i_glide_hbond>
-0.532060043102938

> <r_i_glide_metal>
0

> <r_i_glide_rewards>
-2.73265404671922

> <r_i_glide_evdw>
-38.0191535949707

> <r_i_glide_ecoul>
-5.82754850387573

> <r_i_glide_erotb>
0.332638573465064

> <r_i_glide_esite>
0

> <r_i_glide_emodel>
-62.4455787297631

> <r_i_glide_energy>
-43.8467020988464

> <r_i_glide_einternal>
1.05983638763428

> <i_i_glide_confnum>
3

> <i_i_glide_posenum>
46

> <r_i_glide_eff_state_penalty>
0

> <s_user_duplicate_titles>
CHEMBL3231_lig219

> <i_f3d_flags>
0

> <s_m_subgroup_title>
dock_pv

> <s_m_subgroupid>
dock_pv

> <b_m_subgroup_collapsed>
1

$$$$
CHEMBL3231_lig1060
                    3D
 Schrodinger Suite 2021-1.
 60 63  0  0  1  0            999 V2000
   52.0425   99.7882   28.8282 C   0  0  0  0  0  0
   51.2656  100.5268   27.9284 C   0  0  0  0  0  0
   51.0955  101.8952   28.1438 C   0  0  0  0  0  0
   51.7257  102.5235   29.2101 C   0  0  0  0  0  0
   52.5174  101.7857   30.1010 C   0  0  0  0  0  0
   52.6710  100.4012   29.9260 C   0  0  0  0  0  0
   50.6575   99.8853   26.7270 C   0  0  0  0  0  0
   49.9896  100.5023   25.6789 C   0  0  0  0  0  0
   49.6439   99.5092   24.8104 N   0  0  0  0  0  0
   50.0429   98.3021   25.2117 N   0  0  0  0  0  0
   50.6336   98.5249   26.3619 C   0  0  0  0  0  0
   53.2169  102.4148   31.1444 N   0  0  0  0  0  0
   52.7849  103.4470   31.8976 C   0  0  0  0  0  0
   53.7699  104.0817   32.9149 C   0  0  1  0  0  0
   51.6430  103.9029   31.8060 O   0  0  0  0  0  0
   53.0402  104.4283   34.2390 C   0  0  0  0  0  0
   52.4869  103.2599   34.8671 O   0  0  0  0  0  0
   54.9661  103.1701   33.2943 C   0  0  0  0  0  0
   54.4794  102.0018   34.1491 C   0  0  0  0  0  0
   53.3139  102.1472   34.9290 C   0  0  0  0  0  0
   52.8735  101.1087   35.7479 C   0  0  0  0  0  0
   53.6031   99.9219   35.8189 C   0  0  0  0  0  0
   54.7683   99.7550   35.0677 C   0  0  0  0  0  0
   55.1735  100.7920   34.2142 C   0  0  0  0  0  0
   55.4564   98.5683   35.2232 O   0  0  0  0  0  0
   56.7939   98.4795   34.7301 C   0  0  0  0  0  0
   53.4397   99.7149   30.8542 O   0  0  0  0  0  0
   53.6122   98.3039   30.7316 C   0  0  0  0  0  0
   54.2152   97.7635   32.0391 C   0  0  0  0  0  0
   54.3729   96.3034   32.0128 N   0  0  0  0  0  0
   55.5269   95.9006   31.2117 C   0  0  0  0  0  0
   54.5277   95.7783   33.3652 C   0  0  0  0  0  0
   52.1651   98.7332   28.6510 H   0  0  0  0  0  0
   50.5049  102.4899   27.4648 H   0  0  0  0  0  0
   51.6192  103.5938   29.3135 H   0  0  0  0  0  0
   49.7407  101.5321   25.4702 H   0  0  0  0  0  0
   49.1677   99.6546   23.9239 H   0  0  0  0  0  0
   51.0575   97.7089   26.9293 H   0  0  0  0  0  0
   54.0944  101.9850   31.3969 H   0  0  0  0  0  0
   54.1157  104.9884   32.4163 H   0  0  0  0  0  0
   52.2615  105.1764   34.0783 H   0  0  0  0  0  0
   53.7502  104.8855   34.9304 H   0  0  0  0  0  0
   55.6631  103.7377   33.9130 H   0  0  0  0  0  0
   55.5363  102.8376   32.4251 H   0  0  0  0  0  0
   51.9686  101.2216   36.3255 H   0  0  0  0  0  0
   53.2683   99.1281   36.4694 H   0  0  0  0  0  0
   56.0444  100.6740   33.5939 H   0  0  0  0  0  0
   57.2264   97.5255   35.0305 H   0  0  0  0  0  0
   57.4265   99.2679   35.1403 H   0  0  0  0  0  0
   56.8364   98.5236   33.6413 H   0  0  0  0  0  0
   52.6547   97.8065   30.5701 H   0  0  0  0  0  0
   54.2598   98.0986   29.8794 H   0  0  0  0  0  0
   55.1695   98.2526   32.2391 H   0  0  0  0  0  0
   53.5482   98.0472   32.8571 H   0  0  0  0  0  0
   55.6240   94.8148   31.1846 H   0  0  0  0  0  0
   55.4493   96.2394   30.1800 H   0  0  0  0  0  0
   56.4435   96.3025   31.6339 H   0  0  0  0  0  0
   54.6038   94.6904   33.3490 H   0  0  0  0  0  0
   55.4202   96.1695   33.8535 H   0  0  0  0  0  0
   53.6626   96.0313   33.9794 H   0  0  0  0  0  0
  1  6  1  0  0  0
  1  2  2  0  0  0
  1 33  1  0  0  0
  2  3  1  0  0  0
  2  7  1  0  0  0
  3  4  2  0  0  0
  3 34  1  0  0  0
  4  5  1  0  0  0
  4 35  1  0  0  0
  5  6  2  0  0  0
  5 12  1  0  0  0
  6 27  1  0  0  0
  7  8  2  0  0  0
  7 11  1  0  0  0
  8  9  1  0  0  0
  8 36  1  0  0  0
  9 10  1  0  0  0
  9 37  1  0  0  0
 10 11  2  0  0  0
 11 38  1  0  0  0
 12 13  1  0  0  0
 12 39  1  0  0  0
 13 14  1  0  0  0
 13 15  2  0  0  0
 14 16  1  0  0  0
 14 18  1  0  0  0
 14 40  1  0  0  0
 16 17  1  0  0  0
 16 41  1  0  0  0
 16 42  1  0  0  0
 17 20  1  0  0  0
 18 19  1  0  0  0
 18 43  1  0  0  0
 18 44  1  0  0  0
 19 20  2  0  0  0
 19 24  1  0  0  0
 20 21  1  0  0  0
 21 22  2  0  0  0
 21 45  1  0  0  0
 22 23  1  0  0  0
 22 46  1  0  0  0
 23 24  2  0  0  0
 23 25  1  0  0  0
 24 47  1  0  0  0
 25 26  1  0  0  0
 26 48  1  0  0  0
 26 49  1  0  0  0
 26 50  1  0  0  0
 27 28  1  0  0  0
 28 29  1  0  0  0
 28 51  1  0  0  0
 28 52  1  0  0  0
 29 30  1  0  0  0
 29 53  1  0  0  0
 29 54  1  0  0  0
 30 31  1  0  0  0
 30 32  1  0  0  0
 31 55  1  0  0  0
 31 56  1  0  0  0
 31 57  1  0  0  0
 32 58  1  0  0  0
 32 59  1  0  0  0
 32 60  1  0  0  0
M  END
> <s_m_entry_id>
28419

> <s_m_entry_name>
dock_pv.580

> <s_m_Source_Path>
/home/csk/Desktop/cluster/DUD-E-result/rock1

> <s_m_Source_File>
dock_pv.maegz

> <i_m_Source_File_Index>
580

> <chembl_id>
CHEMBL482336

> <chembl_pref_name>
None

> <i_lp_mmshare_version>
53161

> <r_lp_tautomer_probability>
0.5

> <s_lp_Force_Field>
OPLS_2005

> <r_lp_Energy>
37.138371

> <b_lp_Chiralities_Consistent>
1

> <s_lp_Variant>
CHEMBL3231_lig1060-2

> <s_i_glide_gridfile>
glide-grid_2etr

> <i_i_glide_lignum>
1484

> <i_i_glide_rotatable_bonds>
9

> <r_i_docking_score>
-7.25272514140157

> <r_i_glide_ligand_efficiency>
-0.226647660668799

> <r_i_glide_ligand_efficiency_sa>
-0.719561469112296

> <r_i_glide_ligand_efficiency_ln>
-1.62408286098033

> <r_i_glide_gscore>
-7.25272514140157

> <r_i_glide_lipo>
-1.97086513472762

> <r_i_glide_hbond>
-0.671360704834294

> <r_i_glide_metal>
0

> <r_i_glide_rewards>
-1.3722660390954

> <r_i_glide_evdw>
-44.5167465209961

> <r_i_glide_ecoul>
-9.62875080108643

> <r_i_glide_erotb>
0.512627426994214

> <r_i_glide_esite>
-0.0807107435257068

> <r_i_glide_emodel>
-75.8970183420523

> <r_i_glide_energy>
-54.1454973220825

> <r_i_glide_einternal>
7.61870193481445

> <i_i_glide_confnum>
4

> <i_i_glide_posenum>
13

> <r_i_glide_eff_state_penalty>
0

> <s_user_duplicate_titles>
CHEMBL3231_lig1060

> <i_f3d_flags>
0

> <s_m_subgroup_title>
dock_pv

> <s_m_subgroupid>
dock_pv

> <b_m_subgroup_collapsed>
1

$$$$
CHEMBL3231_lig878
                    3D
 Schrodinger Suite 2021-1.
 35 38  0  0  1  0            999 V2000
   53.3544  100.1871   31.0573 N   0  0  0  0  0  0
   53.6417  100.9965   32.0208 C   0  0  0  0  0  0
   53.0543  102.2470   32.0956 N   0  0  0  0  0  0
   52.1371  102.7985   31.2404 C   0  0  0  0  0  0
   52.4798  100.6251   30.1040 C   0  0  0  0  0  0
   51.8785  101.8840   30.1381 C   0  0  0  0  0  0
   50.8430  102.1635   28.7780 S   0  0  0  0  0  0
   51.2228  100.5850   28.1318 C   0  0  0  0  0  0
   52.0825   99.8943   28.9867 C   0  0  0  0  0  0
   50.6844  100.1319   26.8551 C   0  0  0  0  0  0
   50.3141  100.9129   25.7736 C   0  0  0  0  0  0
   49.8893  100.0445   24.8106 N   0  0  0  0  0  0
   49.9757   98.7727   25.1935 N   0  0  0  0  0  0
   50.4321   98.8127   26.4255 C   0  0  0  0  0  0
   51.6431  103.9013   31.4520 O   0  0  0  0  0  0
   50.6119   97.5200   27.1747 C   0  0  0  0  0  0
   54.6223  100.5879   33.1069 C   0  0  0  0  0  0
   53.9443  100.0893   34.2969 N   0  0  0  0  0  0
   53.6542   98.7731   34.5760 C   0  0  0  0  0  0
   53.0196   98.6981   35.8062 C   0  0  0  0  0  0
   52.8930  100.0025   36.2872 C   0  0  0  0  0  0
   53.4688  100.8435   35.3466 C   0  0  0  0  0  0
   53.3094  102.8476   32.8634 H   0  0  0  0  0  0
   52.4432   98.8966   28.8099 H   0  0  0  0  0  0
   50.3142  101.9781   25.6118 H   0  0  0  0  0  0
   49.5407  100.3036   23.8933 H   0  0  0  0  0  0
   50.0070   97.5030   28.0803 H   0  0  0  0  0  0
   50.3506   96.6509   26.5724 H   0  0  0  0  0  0
   51.6431   97.3907   27.4848 H   0  0  0  0  0  0
   55.3045   99.8146   32.7466 H   0  0  0  0  0  0
   55.2517  101.4294   33.3972 H   0  0  0  0  0  0
   53.9401   97.9984   33.8782 H   0  0  0  0  0  0
   52.6932   97.7965   36.3041 H   0  0  0  0  0  0
   52.4434  100.2976   37.2249 H   0  0  0  0  0  0
   53.5883  101.9167   35.3399 H   0  0  0  0  0  0
  1  5  1  0  0  0
  1  2  2  0  0  0
  2  3  1  0  0  0
  2 17  1  0  0  0
  3  4  1  0  0  0
  3 23  1  0  0  0
  4  6  1  0  0  0
  4 15  2  0  0  0
  5  6  2  0  0  0
  5  9  1  0  0  0
  6  7  1  0  0  0
  7  8  1  0  0  0
  8  9  2  0  0  0
  8 10  1  0  0  0
  9 24  1  0  0  0
 10 11  2  0  0  0
 10 14  1  0  0  0
 11 12  1  0  0  0
 11 25  1  0  0  0
 12 13  1  0  0  0
 12 26  1  0  0  0
 13 14  2  0  0  0
 14 16  1  0  0  0
 16 27  1  0  0  0
 16 28  1  0  0  0
 16 29  1  0  0  0
 17 18  1  0  0  0
 17 30  1  0  0  0
 17 31  1  0  0  0
 18 19  1  0  0  0
 18 22  1  0  0  0
 19 20  2  0  0  0
 19 32  1  0  0  0
 20 21  1  0  0  0
 20 33  1  0  0  0
 21 22  2  0  0  0
 21 34  1  0  0  0
 22 35  1  0  0  0
M  END
> <s_m_entry_id>
28420

> <s_m_entry_name>
dock_pv.581

> <s_m_Source_Path>
/home/csk/Desktop/cluster/DUD-E-result/rock1

> <s_m_Source_File>
dock_pv.maegz

> <i_m_Source_File_Index>
581

> <chembl_id>
CHEMBL4096077

> <chembl_pref_name>
None

> <i_lp_mmshare_version>
53161

> <r_lp_tautomer_probability>
0.5

> <s_lp_Force_Field>
OPLS_2005

> <r_lp_Energy>
19.109863

> <b_lp_Chiralities_Consistent>
1

> <s_lp_Variant>
CHEMBL3231_lig878-1

> <s_i_glide_gridfile>
glide-grid_2etr

> <i_i_glide_lignum>
1244

> <i_i_glide_rotatable_bonds>
3

> <r_i_docking_score>
-7.25070850952051

> <r_i_glide_ligand_efficiency>
-0.32957765952366

> <r_i_glide_ligand_efficiency_sa>
-0.923489563539129

> <r_i_glide_ligand_efficiency_ln>
-1.77233763574574

> <r_i_glide_gscore>
-7.25070850952051

> <r_i_glide_lipo>
-1.93712199689669

> <r_i_glide_hbond>
-0.47897251657479

> <r_i_glide_metal>
0

> <r_i_glide_rewards>
-2.53116395454545

> <r_i_glide_evdw>
-36.8761367797852

> <r_i_glide_ecoul>
-6.5431694984436

> <r_i_glide_erotb>
0.573846901093822

> <r_i_glide_esite>
-0.0520146788416028

> <r_i_glide_emodel>
-62.4759769589375

> <r_i_glide_energy>
-43.4193062782288

> <r_i_glide_einternal>
0.245467901229858

> <i_i_glide_confnum>
2

> <i_i_glide_posenum>
143

> <r_i_glide_eff_state_penalty>
0

> <s_user_duplicate_titles>
CHEMBL3231_lig878

> <i_f3d_flags>
0

> <s_m_subgroup_title>
dock_pv

> <s_m_subgroupid>
dock_pv

> <b_m_subgroup_collapsed>
1

$$$$
CHEMBL3231_lig1699
                    3D
 Schrodinger Suite 2021-1.
 30 31  0  0  1  0            999 V2000
   51.1683   97.8201   26.3302 O   0  0  0  0  0  0
   49.6431   99.3095   24.5217 O   0  0  0  0  0  0
   51.0356   97.1030   30.8110 O   0  0  0  0  0  0
   55.4054   98.0831   32.4107 O   0  0  0  0  0  0
   52.9765  100.1793   30.5858 C   0  0  0  0  0  0
   51.4868  101.1715   27.8045 C   0  0  0  0  0  0
   51.0044   99.1658   26.5005 C   0  0  0  0  0  0
   50.2218   99.9056   25.6160 C   0  0  0  0  0  0
   51.6469   99.8011   27.5610 C   0  0  0  0  0  0
   52.0389   97.9962   31.0214 C   0  0  0  0  0  0
   54.2742   98.4901   31.7577 C   0  0  0  0  0  0
   54.1706   99.7687   31.1992 C   0  0  0  0  0  0
   51.8958   99.2952   30.5592 C   0  0  0  0  0  0
   52.8727  101.5188   29.9776 C   0  0  0  0  0  0
   52.2235  101.9227   28.8583 C   0  0  0  0  0  0
   50.6306  101.8820   26.9567 C   0  0  0  0  0  0
   53.2112   97.5978   31.6525 C   0  0  0  0  0  0
   50.0396  101.2623   25.8571 C   0  0  0  0  0  0
   51.6436   97.4037   27.0530 H   0  0  0  0  0  0
   49.2416   99.9031   23.8750 H   0  0  0  0  0  0
   51.2230   96.2714   31.2738 H   0  0  0  0  0  0
   56.2449   98.3034   31.9748 H   0  0  0  0  0  0
   52.3350   99.2182   28.1484 H   0  0  0  0  0  0
   55.0164  100.4403   31.2509 H   0  0  0  0  0  0
   50.9566   99.5868   30.1144 H   0  0  0  0  0  0
   53.3696  102.2940   30.5452 H   0  0  0  0  0  0
   52.2763  102.9865   28.6749 H   0  0  0  0  0  0
   50.4434  102.9352   27.1141 H   0  0  0  0  0  0
   53.3107   96.5947   32.0418 H   0  0  0  0  0  0
   49.3971  101.8404   25.2111 H   0  0  0  0  0  0
  1  7  1  0  0  0
  1 19  1  0  0  0
  2  8  1  0  0  0
  2 20  1  0  0  0
  3 10  1  0  0  0
  3 21  1  0  0  0
  4 11  1  0  0  0
  4 22  1  0  0  0
  5 12  2  0  0  0
  5 13  1  0  0  0
  5 14  1  0  0  0
  6  9  1  0  0  0
  6 15  1  0  0  0
  6 16  2  0  0  0
  7  8  1  0  0  0
  7  9  2  0  0  0
  8 18  2  0  0  0
  9 23  1  0  0  0
 10 13  2  0  0  0
 10 17  1  0  0  0
 11 12  1  0  0  0
 11 17  2  0  0  0
 12 24  1  0  0  0
 13 25  1  0  0  0
 14 15  2  3  0  0
 14 26  1  0  0  0
 15 27  1  0  0  0
 16 18  1  0  0  0
 16 28  1  0  0  0
 17 29  1  0  0  0
 18 30  1  0  0  0
M  END
> <s_m_entry_id>
28421

> <s_m_entry_name>
dock_pv.582

> <s_m_Source_Path>
/home/csk/Desktop/cluster/DUD-E-result/rock1

> <s_m_Source_File>
dock_pv.maegz

> <i_m_Source_File_Index>
582

> <chembl_id>
CHEMBL1972346

> <chembl_pref_name>
None

> <i_lp_mmshare_version>
53161

> <r_lp_tautomer_probability>
1

> <s_lp_Force_Field>
OPLS_2005

> <r_lp_Energy>
17.219267

> <b_lp_Chiralities_Consistent>
1

> <s_lp_Variant>
CHEMBL3231_lig1699-2

> <s_i_glide_gridfile>
glide-grid_2etr

> <i_i_glide_lignum>
2424

> <i_i_glide_rotatable_bonds>
6

> <r_i_docking_score>
-7.25032040622804

> <r_i_glide_ligand_efficiency>
-0.40279557812378

> <r_i_glide_ligand_efficiency_sa>
-1.05562304397625

> <r_i_glide_ligand_efficiency_ln>
-1.86365747476762

> <r_i_glide_gscore>
-7.25032040622804

> <r_i_glide_lipo>
-2.10093246333123

> <r_i_glide_hbond>
-0.435431078274972

> <r_i_glide_metal>
0

> <r_i_glide_rewards>
-2.03098581247632

> <r_i_glide_evdw>
-23.4867153167725

> <r_i_glide_ecoul>
-13.9428148269653

> <r_i_glide_erotb>
0.582786937737895

> <r_i_glide_esite>
0

> <r_i_glide_emodel>
-52.2169441642166

> <r_i_glide_energy>
-37.4295301437378

> <r_i_glide_einternal>
4.18461132049561

> <i_i_glide_confnum>
10

> <i_i_glide_posenum>
332

> <r_i_glide_eff_state_penalty>
0

> <s_user_duplicate_titles>
CHEMBL3231_lig1699,CHEMBL3231_lig1699

> <i_f3d_flags>
0

> <s_m_subgroup_title>
dock_pv

> <s_m_subgroupid>
dock_pv

> <b_m_subgroup_collapsed>
1

$$$$
CHEMBL3231_lig745
                    3D
 Schrodinger Suite 2021-1.
 43 45  0  0  1  0            999 V2000
   54.0744   99.1612   30.5414 C   0  0  0  0  0  0
   53.5548  100.4636   30.8005 O   0  0  0  0  0  0
   52.6325  101.0410   29.9422 C   0  0  0  0  0  0
   52.0979  100.3603   28.8352 C   0  0  0  0  0  0
   51.1602  100.9555   27.9864 C   0  0  0  0  0  0
   50.7506  102.2634   28.2591 C   0  0  0  0  0  0
   51.2635  102.9561   29.3483 C   0  0  0  0  0  0
   52.2065  102.3627   30.1956 C   0  0  0  0  0  0
   52.7352  103.1749   31.3528 C   0  0  0  0  0  0
   51.9758  103.9025   31.9953 O   0  0  0  0  0  0
   54.0559  103.0960   31.5732 N   0  0  0  0  0  0
   54.7723  103.7723   32.6573 C   0  0  0  0  0  0
   54.6372  103.0991   34.0285 C   0  0  0  0  0  0
   54.8530  101.7143   34.1463 C   0  0  0  0  0  0
   55.1833  100.9721   33.0661 F   0  0  0  0  0  0
   54.7534  101.0814   35.3845 C   0  0  0  0  0  0
   54.4418  101.8171   36.5246 C   0  0  0  0  0  0
   54.2363  103.1932   36.4251 C   0  0  0  0  0  0
   54.3362  103.8377   35.1896 C   0  0  0  0  0  0
   54.1014  105.5541   35.1562 Cl  0  0  0  0  0  0
   50.6205  100.2526   26.7772 C   0  0  0  0  0  0
   50.0425  100.8632   25.6770 C   0  0  0  0  0  0
   49.7138   99.8673   24.8098 N   0  0  0  0  0  0
   50.0418   98.6610   25.2663 N   0  0  0  0  0  0
   50.5521   98.8728   26.4617 C   0  0  0  0  0  0
   50.9618   97.6743   27.2811 C   0  0  0  0  0  0
   54.7926   98.9042   31.3206 H   0  0  0  0  0  0
   53.2889   98.4031   30.5506 H   0  0  0  0  0  0
   54.6007   99.1232   29.5881 H   0  0  0  0  0  0
   52.4343   99.3634   28.6160 H   0  0  0  0  0  0
   50.0428  102.7645   27.6154 H   0  0  0  0  0  0
   50.9322  103.9719   29.5150 H   0  0  0  0  0  0
   54.5702  102.3765   31.0787 H   0  0  0  0  0  0
   55.8337  103.8003   32.4109 H   0  0  0  0  0  0
   54.4445  104.8139   32.6834 H   0  0  0  0  0  0
   54.9330  100.0177   35.4582 H   0  0  0  0  0  0
   54.3713  101.3264   37.4845 H   0  0  0  0  0  0
   54.0039  103.7632   37.3133 H   0  0  0  0  0  0
   49.8356  101.8986   25.4490 H   0  0  0  0  0  0
   49.2754   99.9969   23.9016 H   0  0  0  0  0  0
   50.6330   97.7600   28.3171 H   0  0  0  0  0  0
   50.5519   96.7439   26.8838 H   0  0  0  0  0  0
   52.0437   97.5634   27.2884 H   0  0  0  0  0  0
  1  2  1  0  0  0
  1 27  1  0  0  0
  1 28  1  0  0  0
  1 29  1  0  0  0
  2  3  1  0  0  0
  3  4  2  0  0  0
  3  8  1  0  0  0
  4  5  1  0  0  0
  4 30  1  0  0  0
  5  6  2  0  0  0
  5 21  1  0  0  0
  6  7  1  0  0  0
  6 31  1  0  0  0
  7  8  2  0  0  0
  7 32  1  0  0  0
  8  9  1  0  0  0
  9 10  2  0  0  0
  9 11  1  0  0  0
 11 12  1  0  0  0
 11 33  1  0  0  0
 12 13  1  0  0  0
 12 34  1  0  0  0
 12 35  1  0  0  0
 13 14  2  0  0  0
 13 19  1  0  0  0
 14 15  1  0  0  0
 14 16  1  0  0  0
 16 17  2  0  0  0
 16 36  1  0  0  0
 17 18  1  0  0  0
 17 37  1  0  0  0
 18 19  2  0  0  0
 18 38  1  0  0  0
 19 20  1  0  0  0
 21 22  2  0  0  0
 21 25  1  0  0  0
 22 23  1  0  0  0
 22 39  1  0  0  0
 23 24  1  0  0  0
 23 40  1  0  0  0
 24 25  2  0  0  0
 25 26  1  0  0  0
 26 41  1  0  0  0
 26 42  1  0  0  0
 26 43  1  0  0  0
M  END
> <s_m_entry_id>
28422

> <s_m_entry_name>
dock_pv.583

> <s_m_Source_Path>
/home/csk/Desktop/cluster/DUD-E-result/rock1

> <s_m_Source_File>
dock_pv.maegz

> <i_m_Source_File_Index>
583

> <chembl_id>
CHEMBL3930850

> <chembl_pref_name>
None

> <i_lp_mmshare_version>
53161

> <r_lp_tautomer_probability>
0.5

> <s_lp_Force_Field>
OPLS_2005

> <r_lp_Energy>
23.098426

> <b_lp_Chiralities_Consistent>
1

> <s_lp_Variant>
CHEMBL3231_lig745-1

> <s_i_glide_gridfile>
glide-grid_2etr

> <i_i_glide_lignum>
1060

> <i_i_glide_rotatable_bonds>
6

> <r_i_docking_score>
-7.2481215183333

> <r_i_glide_ligand_efficiency>
-0.278773904551281

> <r_i_glide_ligand_efficiency_sa>
-0.825866595310823

> <r_i_glide_ligand_efficiency_ln>
-1.70219755555404

> <r_i_glide_gscore>
-7.2481215183333

> <r_i_glide_lipo>
-2.02794786079155

> <r_i_glide_hbond>
-0.406393146048888

> <r_i_glide_metal>
0

> <r_i_glide_rewards>
-2.11348564418515

> <r_i_glide_evdw>
-40.0013160705566

> <r_i_glide_ecoul>
-6.53887510299683

> <r_i_glide_erotb>
0.387322339666396

> <r_i_glide_esite>
-0.106720137996752

> <r_i_glide_emodel>
-65.0381213954111

> <r_i_glide_energy>
-46.5401911735535

> <r_i_glide_einternal>
4.19278478622437

> <i_i_glide_confnum>
33

> <i_i_glide_posenum>
232

> <r_i_glide_eff_state_penalty>
0

> <s_user_duplicate_titles>
CHEMBL3231_lig745,CHEMBL3231_lig745

> <i_f3d_flags>
0

> <s_m_subgroup_title>
dock_pv

> <s_m_subgroupid>
dock_pv

> <b_m_subgroup_collapsed>
1

$$$$
CHEMBL3231_lig221
                    3D
 Schrodinger Suite 2021-1.
 36 38  0  0  1  0            999 V2000
   53.7244  102.7909   30.9344 C   0  0  0  0  0  0
   54.3884  102.4919   32.1199 C   0  0  0  0  0  0
   54.2724  101.2412   32.7261 C   0  0  0  0  0  0
   53.4586  100.2590   32.1514 C   0  0  0  0  0  0
   52.9416  101.7880   30.3456 C   0  0  0  0  0  0
   52.7948  100.5016   30.9355 C   0  0  0  0  0  0
   51.9601   99.6271   30.1624 C   0  0  0  0  0  0
   51.6043  100.1984   28.9360 C   0  0  0  0  0  0
   52.0473  101.9023   28.8528 S   0  0  0  0  0  0
   51.6014   98.2397   30.6736 C   0  0  0  0  0  0
   50.9361   99.5701   27.7377 C   0  0  0  0  0  0
   50.3596  100.4115   26.8329 N   0  0  0  0  0  0
   49.8649   99.8540   25.7032 C   0  0  0  0  0  0
   49.8951   98.5419   25.3769 N   0  0  0  0  0  0
   50.4431   97.7182   26.3004 C   0  0  0  0  0  0
   50.9811   98.1898   27.4983 C   0  0  0  0  0  0
   49.2430  100.7030   24.8109 N   0  0  0  0  0  0
   55.0640  100.9421   34.0010 C   0  0  1  0  0  0
   54.1720  100.6473   35.1107 N   0  0  0  0  0  0
   56.0395   99.7624   33.8271 C   0  0  0  0  0  0
   53.8444  103.7609   30.4703 H   0  0  0  0  0  0
   55.0247  103.2472   32.5595 H   0  0  0  0  0  0
   53.3810   99.2959   32.6311 H   0  0  0  0  0  0
   52.3986   97.5186   30.4910 H   0  0  0  0  0  0
   51.4174   98.2382   31.7478 H   0  0  0  0  0  0
   50.6878   97.8458   30.2291 H   0  0  0  0  0  0
   50.4563   96.6674   26.0568 H   0  0  0  0  0  0
   51.4423   97.5031   28.1836 H   0  0  0  0  0  0
   49.2412  101.6918   25.0097 H   0  0  0  0  0  0
   48.9536  100.3442   23.9023 H   0  0  0  0  0  0
   55.6429  101.8268   34.2706 H   0  0  0  0  0  0
   54.7118  100.2968   35.8893 H   0  0  0  0  0  0
   53.7224  101.4969   35.4174 H   0  0  0  0  0  0
   56.6864   99.9031   32.9598 H   0  0  0  0  0  0
   55.5190   98.8155   33.6828 H   0  0  0  0  0  0
   56.6918   99.6543   34.6948 H   0  0  0  0  0  0
  1  5  2  0  0  0
  1  2  1  0  0  0
  1 21  1  0  0  0
  2  3  2  0  0  0
  2 22  1  0  0  0
  3  4  1  0  0  0
  3 18  1  0  0  0
  4  6  2  0  0  0
  4 23  1  0  0  0
  5  6  1  0  0  0
  5  9  1  0  0  0
  6  7  1  0  0  0
  7 10  1  0  0  0
  7  8  2  0  0  0
  8 11  1  0  0  0
  8  9  1  0  0  0
 10 24  1  0  0  0
 10 25  1  0  0  0
 10 26  1  0  0  0
 11 12  2  0  0  0
 11 16  1  0  0  0
 12 13  1  0  0  0
 13 14  2  0  0  0
 13 17  1  0  0  0
 14 15  1  0  0  0
 15 16  2  0  0  0
 15 27  1  0  0  0
 16 28  1  0  0  0
 17 29  1  0  0  0
 17 30  1  0  0  0
 18 19  1  0  0  0
 18 20  1  0  0  0
 18 31  1  0  0  0
 19 32  1  0  0  0
 19 33  1  0  0  0
 20 34  1  0  0  0
 20 35  1  0  0  0
 20 36  1  0  0  0
M  END
> <s_m_entry_id>
28423

> <s_m_entry_name>
dock_pv.584

> <s_m_Source_Path>
/home/csk/Desktop/cluster/DUD-E-result/rock1

> <s_m_Source_File>
dock_pv.maegz

> <i_m_Source_File_Index>
584

> <chembl_id>
CHEMBL1083965

> <chembl_pref_name>
None

> <i_lp_mmshare_version>
53161

> <r_lp_tautomer_probability>
0.999999987636

> <s_lp_Force_Field>
OPLS_2005

> <r_lp_Energy>
-0.297561

> <b_lp_Chiralities_Consistent>
1

> <s_lp_Variant>
CHEMBL3231_lig221-2

> <s_i_glide_gridfile>
glide-grid_2etr

> <i_i_glide_lignum>
360

> <i_i_glide_rotatable_bonds>
2

> <r_i_docking_score>
-7.24719519368349

> <r_i_glide_ligand_efficiency>
-0.362359759684174

> <r_i_glide_ligand_efficiency_sa>
-0.983595714249624

> <r_i_glide_ligand_efficiency_ln>
-1.81373392848403

> <r_i_glide_gscore>
-7.24719519368349

> <r_i_glide_lipo>
-1.6032023195895

> <r_i_glide_hbond>
-0.320402163433983

> <r_i_glide_metal>
0

> <r_i_glide_rewards>
-3.04557925808969

> <r_i_glide_evdw>
-35.7923622131348

> <r_i_glide_ecoul>
-4.75017404556274

> <r_i_glide_erotb>
0.224132764920828

> <r_i_glide_esite>
0

> <r_i_glide_emodel>
-57.6490393206305

> <r_i_glide_energy>
-40.5425362586975

> <r_i_glide_einternal>
0.167833402752876

> <i_i_glide_confnum>
1

> <i_i_glide_posenum>
25

> <r_i_glide_eff_state_penalty>
0

> <s_user_duplicate_titles>
CHEMBL3231_lig221

> <i_f3d_flags>
0

> <s_m_subgroup_title>
dock_pv

> <s_m_subgroupid>
dock_pv

> <b_m_subgroup_collapsed>
1

$$$$
CHEMBL3231_lig406
                    3D
 Schrodinger Suite 2021-1.
 56 60  0  0  1  0            999 V2000
   51.3839   99.8228   28.1076 C   0  0  0  0  0  0
   51.4615   98.7241   28.9778 C   0  0  0  0  0  0
   52.0790   98.8461   30.2237 C   0  0  0  0  0  0
   51.9263  101.0533   28.4993 C   0  0  0  0  0  0
   52.5614  101.1600   29.7391 C   0  0  0  0  0  0
   52.6412  100.0624   30.5978 C   0  0  0  0  0  0
   53.2681  100.1516   31.8459 N   0  0  0  0  0  0
   53.8416  101.2441   32.2165 C   0  0  0  0  0  0
   53.8079  102.3426   31.3908 N   0  0  0  0  0  0
   53.2012  102.4497   30.1871 C   0  0  0  0  0  0
   53.1865  103.5092   29.5764 O   0  0  0  0  0  0
   50.7594   99.6777   26.7642 C   0  0  0  0  0  0
   54.5972  101.3249   33.5690 C   0  0  1  0  0  0
   54.5485  102.7111   34.0928 N   0  0  0  0  0  0
   50.2317  100.6624   25.9383 C   0  0  0  0  0  0
   49.8057  100.0160   24.8111 N   0  0  0  0  0  0
   50.0288   98.7031   24.8474 N   0  0  0  0  0  0
   50.5828   98.5002   26.0175 C   0  0  0  0  0  0
   54.1784  100.2260   34.5690 C   0  0  0  0  0  0
   54.7837   98.9649   34.4911 C   0  0  0  0  0  0
   54.3779   97.9379   35.3381 C   0  0  0  0  0  0
   53.3807   98.1741   36.2810 C   0  0  0  0  0  0
   52.8041   99.4368   36.3974 C   0  0  0  0  0  0
   53.1967  100.4603   35.5400 C   0  0  0  0  0  0
   52.8443   96.8889   37.3000 Cl  0  0  0  0  0  0
   55.2791  103.1794   35.1223 C   0  0  0  0  0  0
   55.1051  104.6382   35.4654 C   0  0  0  0  0  0
   56.0419  102.4752   35.7812 O   0  0  0  0  0  0
   54.9336  105.6093   34.4669 C   0  0  0  0  0  0
   54.8372  106.9567   34.8114 C   0  0  0  0  0  0
   54.8812  107.3443   36.1527 C   0  0  0  0  0  0
   55.0344  106.3805   37.1504 C   0  0  0  0  0  0
   55.1557  105.0367   36.8080 C   0  0  0  0  0  0
   54.7485  108.8107   36.5347 C   0  0  0  0  0  0
   56.0431  109.4088   36.8110 N   0  0  0  0  0  0
   51.0427   97.7697   28.6945 H   0  0  0  0  0  0
   52.1403   97.9992   30.8912 H   0  0  0  0  0  0
   51.8849  101.9035   27.8317 H   0  0  0  0  0  0
   54.3164  103.1721   31.6524 H   0  0  0  0  0  0
   55.6430  101.1283   33.3333 H   0  0  0  0  0  0
   53.8425  103.3188   33.7071 H   0  0  0  0  0  0
   50.1261  101.7325   26.0451 H   0  0  0  0  0  0
   49.3771  100.4548   24.0033 H   0  0  0  0  0  0
   50.8814   97.5082   26.3236 H   0  0  0  0  0  0
   55.5470   98.7674   33.7507 H   0  0  0  0  0  0
   54.8297   96.9601   35.2545 H   0  0  0  0  0  0
   52.0431   99.6197   37.1412 H   0  0  0  0  0  0
   52.7262  101.4287   35.6219 H   0  0  0  0  0  0
   54.8986  105.3417   33.4187 H   0  0  0  0  0  0
   54.7096  107.6949   34.0308 H   0  0  0  0  0  0
   55.0654  106.6726   38.1905 H   0  0  0  0  0  0
   55.2884  104.3055   37.5943 H   0  0  0  0  0  0
   54.2548  109.3685   35.7372 H   0  0  0  0  0  0
   54.1170  108.8954   37.4199 H   0  0  0  0  0  0
   56.5807  108.8582   37.4625 H   0  0  0  0  0  0
   56.5914  109.5021   35.9472 H   0  0  0  0  0  0
  1  2  2  0  0  0
  1  4  1  0  0  0
  1 12  1  0  0  0
  2  3  1  0  0  0
  2 36  1  0  0  0
  3  6  2  0  0  0
  3 37  1  0  0  0
  4  5  2  0  0  0
  4 38  1  0  0  0
  5  6  1  0  0  0
  5 10  1  0  0  0
  6  7  1  0  0  0
  7  8  2  0  0  0
  8  9  1  0  0  0
  8 13  1  0  0  0
  9 10  1  0  0  0
  9 39  1  0  0  0
 10 11  2  0  0  0
 12 15  2  0  0  0
 12 18  1  0  0  0
 13 14  1  0  0  0
 13 19  1  0  0  0
 13 40  1  0  0  0
 14 26  1  0  0  0
 14 41  1  0  0  0
 15 16  1  0  0  0
 15 42  1  0  0  0
 16 17  1  0  0  0
 16 43  1  0  0  0
 17 18  2  0  0  0
 18 44  1  0  0  0
 19 20  2  0  0  0
 19 24  1  0  0  0
 20 21  1  0  0  0
 20 45  1  0  0  0
 21 22  2  0  0  0
 21 46  1  0  0  0
 22 23  1  0  0  0
 22 25  1  0  0  0
 23 24  2  0  0  0
 23 47  1  0  0  0
 24 48  1  0  0  0
 26 27  1  0  0  0
 26 28  2  0  0  0
 27 29  2  0  0  0
 27 33  1  0  0  0
 29 30  1  0  0  0
 29 49  1  0  0  0
 30 31  2  0  0  0
 30 50  1  0  0  0
 31 32  1  0  0  0
 31 34  1  0  0  0
 32 33  2  0  0  0
 32 51  1  0  0  0
 33 52  1  0  0  0
 34 35  1  0  0  0
 34 53  1  0  0  0
 34 54  1  0  0  0
 35 55  1  0  0  0
 35 56  1  0  0  0
M  END
> <s_m_entry_id>
28424

> <s_m_entry_name>
dock_pv.585

> <s_m_Source_Path>
/home/csk/Desktop/cluster/DUD-E-result/rock1

> <s_m_Source_File>
dock_pv.maegz

> <i_m_Source_File_Index>
585

> <chembl_id>
CHEMBL2333884

> <chembl_pref_name>
None

> <i_lp_mmshare_version>
53161

> <r_lp_tautomer_probability>
0.469196969327016

> <s_lp_Force_Field>
OPLS_2005

> <r_lp_Energy>
30.049695

> <b_lp_Chiralities_Consistent>
1

> <s_lp_Variant>
CHEMBL3231_lig406-2

> <s_i_glide_gridfile>
glide-grid_2etr

> <i_i_glide_lignum>
570

> <i_i_glide_rotatable_bonds>
7

> <r_i_docking_score>
-7.24713292365745

> <r_i_glide_ligand_efficiency>
-0.207060940675927

> <r_i_glide_ligand_efficiency_sa>
-0.677310066398292

> <r_i_glide_ligand_efficiency_ln>
-1.59090651819214

> <r_i_glide_gscore>
-7.24713292365745

> <r_i_glide_lipo>
-1.89543517800751

> <r_i_glide_hbond>
-0.536899870461328

> <r_i_glide_metal>
0

> <r_i_glide_rewards>
-1.31433846393588

> <r_i_glide_evdw>
-48.9581527709961

> <r_i_glide_ecoul>
-8.93524837493896

> <r_i_glide_erotb>
0.362761801224999

> <r_i_glide_esite>
-0.0750263176870755

> <r_i_glide_emodel>
-79.9704821579697

> <r_i_glide_energy>
-57.8934011459351

> <r_i_glide_einternal>
6.57798433303833

> <i_i_glide_confnum>
11

> <i_i_glide_posenum>
50

> <r_i_glide_eff_state_penalty>
0

> <s_user_duplicate_titles>
CHEMBL3231_lig406

> <i_f3d_flags>
0

> <s_m_subgroup_title>
dock_pv

> <s_m_subgroupid>
dock_pv

> <b_m_subgroup_collapsed>
1

$$$$
CHEMBL3231_lig479
                    3D
 Schrodinger Suite 2021-1.
 44 48  0  0  1  0            999 V2000
   54.0433  104.3407   32.8259 C   0  0  0  0  0  0
   54.3224  103.4628   33.8642 C   0  0  0  0  0  0
   54.0095  102.1135   33.7459 C   0  0  0  0  0  0
   53.4758  103.8840   31.6429 C   0  0  0  0  0  0
   53.1357  102.5195   31.4915 C   0  0  0  0  0  0
   53.3724  101.6138   32.5702 C   0  0  0  0  0  0
   52.9946  100.2503   32.3666 C   0  0  0  0  0  0
   52.4518   99.8096   31.1995 N   0  0  0  0  0  0
   52.2352  100.6777   30.1731 C   0  0  0  0  0  0
   52.5736  102.0306   30.2895 C   0  0  0  0  0  0
   51.6354  100.1090   28.9142 C   0  0  0  0  0  0
   51.0458  100.9500   27.9527 C   0  0  0  0  0  0
   51.1249   98.1668   27.5031 C   0  0  0  0  0  0
   51.6419   98.7271   28.6699 C   0  0  0  0  0  0
   50.5746   99.0070   26.5327 C   0  0  0  0  0  0
   50.5245  100.4108   26.7673 C   0  0  0  0  0  0
   49.8871  100.9184   25.6107 C   0  0  0  0  0  0
   49.6471   99.8308   24.8112 N   0  0  0  0  0  0
   50.0432   98.6526   25.3213 N   0  0  0  0  0  0
   53.1020   99.2975   33.3797 N   0  0  0  0  0  0
   52.4494   99.4924   34.6891 C   0  0  0  0  0  0
   53.1660   98.7533   35.8397 C   0  0  0  0  0  0
   53.2431   97.3247   35.5673 N   0  0  0  0  0  0
   53.9816   97.1197   34.3227 C   0  0  0  0  0  0
   53.3449   97.8644   33.1219 C   0  0  0  0  0  0
   54.3017  105.3872   32.9180 H   0  0  0  0  0  0
   54.7998  103.8297   34.7610 H   0  0  0  0  0  0
   54.2711  101.4416   34.5491 H   0  0  0  0  0  0
   53.3141  104.5733   30.8289 H   0  0  0  0  0  0
   52.4380  102.7231   29.4737 H   0  0  0  0  0  0
   50.9875  102.0160   28.1070 H   0  0  0  0  0  0
   51.1596   97.1020   27.3529 H   0  0  0  0  0  0
   52.0656   98.0554   29.4005 H   0  0  0  0  0  0
   49.5864  101.9027   25.2923 H   0  0  0  0  0  0
   49.2092   99.8922   23.8957 H   0  0  0  0  0  0
   52.3227  100.5454   34.9366 H   0  0  0  0  0  0
   51.4340   99.1036   34.6136 H   0  0  0  0  0  0
   52.6376   98.9037   36.7820 H   0  0  0  0  0  0
   54.1675   99.1588   35.9956 H   0  0  0  0  0  0
   53.7219   96.8498   36.3211 H   0  0  0  0  0  0
   54.0296   96.0483   34.1209 H   0  0  0  0  0  0
   55.0192   97.4344   34.4548 H   0  0  0  0  0  0
   52.4078   97.3750   32.8673 H   0  0  0  0  0  0
   53.9993   97.7603   32.2553 H   0  0  0  0  0  0
  1  2  2  0  0  0
  1  4  1  0  0  0
  1 26  1  0  0  0
  2  3  1  0  0  0
  2 27  1  0  0  0
  3  6  2  0  0  0
  3 28  1  0  0  0
  4  5  2  0  0  0
  4 29  1  0  0  0
  5  6  1  0  0  0
  5 10  1  0  0  0
  6  7  1  0  0  0
  7  8  2  0  0  0
  7 20  1  0  0  0
  8  9  1  0  0  0
  9 10  2  0  0  0
  9 11  1  0  0  0
 10 30  1  0  0  0
 11 14  1  0  0  0
 11 12  2  0  0  0
 12 31  1  0  0  0
 12 16  1  0  0  0
 13 15  1  0  0  0
 13 32  1  0  0  0
 13 14  2  0  0  0
 14 33  1  0  0  0
 15 19  2  0  0  0
 15 16  1  0  0  0
 16 17  2  0  0  0
 17 18  1  0  0  0
 17 34  1  0  0  0
 18 35  1  0  0  0
 18 19  1  0  0  0
 20 21  1  0  0  0
 20 25  1  0  0  0
 21 22  1  0  0  0
 21 36  1  0  0  0
 21 37  1  0  0  0
 22 23  1  0  0  0
 22 38  1  0  0  0
 22 39  1  0  0  0
 23 24  1  0  0  0
 23 40  1  0  0  0
 24 25  1  0  0  0
 24 41  1  0  0  0
 24 42  1  0  0  0
 25 43  1  0  0  0
 25 44  1  0  0  0
M  END
> <s_m_entry_id>
28425

> <s_m_entry_name>
dock_pv.586

> <s_m_Source_Path>
/home/csk/Desktop/cluster/DUD-E-result/rock1

> <s_m_Source_File>
dock_pv.maegz

> <i_m_Source_File_Index>
586

> <chembl_id>
CHEMBL3338841

> <chembl_pref_name>
None

> <i_lp_mmshare_version>
53161

> <r_lp_tautomer_probability>
0.0196078431372549

> <s_lp_Force_Field>
OPLS_2005

> <r_lp_Energy>
52.621051

> <b_lp_Chiralities_Consistent>
1

> <s_lp_Variant>
CHEMBL3231_lig479-2

> <s_i_glide_gridfile>
glide-grid_2etr

> <i_i_glide_lignum>
676

> <i_i_glide_rotatable_bonds>
2

> <r_i_docking_score>
-7.24142752293795

> <r_i_glide_ligand_efficiency>
-0.289657100917518

> <r_i_glide_ligand_efficiency_sa>
-0.846962500173381

> <r_i_glide_ligand_efficiency_ln>
-1.71643533100768

> <r_i_glide_gscore>
-7.24142752293795

> <r_i_glide_lipo>
-2.02199651596918

> <r_i_glide_hbond>
-0.32

> <r_i_glide_metal>
0

> <r_i_glide_rewards>
-2.44152633333333

> <r_i_glide_evdw>
-38.3846130371094

> <r_i_glide_ecoul>
-5.81074905395508

> <r_i_glide_erotb>
0.34642902061579

> <r_i_glide_esite>
-0.0134906843024971

> <r_i_glide_emodel>
-63.1100117356121

> <r_i_glide_energy>
-44.1953620910645

> <r_i_glide_einternal>
0.584520161151886

> <i_i_glide_confnum>
6

> <i_i_glide_posenum>
343

> <r_i_glide_eff_state_penalty>
0

> <s_user_duplicate_titles>
CHEMBL3231_lig479,CHEMBL3231_lig479

> <i_f3d_flags>
0

> <s_m_subgroup_title>
dock_pv

> <s_m_subgroupid>
dock_pv

> <b_m_subgroup_collapsed>
1

$$$$
CHEMBL3231_lig214
                    3D
 Schrodinger Suite 2021-1.
 47 50  0  0  1  0            999 V2000
   53.1279  102.9938   31.2125 C   0  0  0  0  0  0
   53.3458  102.8299   32.5753 C   0  0  0  0  0  0
   52.9991  101.6531   33.2402 C   0  0  0  0  0  0
   52.4498  100.5841   32.5179 C   0  0  0  0  0  0
   52.5419  101.9333   30.5088 C   0  0  0  0  0  0
   52.2125  100.6983   31.1359 C   0  0  0  0  0  0
   51.6503   99.7418   30.2241 C   0  0  0  0  0  0
   51.5431  100.2588   28.9338 C   0  0  0  0  0  0
   52.1083  101.9177   28.8215 S   0  0  0  0  0  0
   51.2239   98.3581   30.6902 C   0  0  0  0  0  0
   51.0153   99.6104   27.6892 C   0  0  0  0  0  0
   50.3901  100.4320   26.8024 N   0  0  0  0  0  0
   49.9282   99.8663   25.6649 C   0  0  0  0  0  0
   50.0410   98.5637   25.3126 N   0  0  0  0  0  0
   50.6639   97.7630   26.2144 C   0  0  0  0  0  0
   51.1691   98.2449   27.4229 C   0  0  0  0  0  0
   49.2440  100.7031   24.8067 N   0  0  0  0  0  0
   53.2128  101.5846   34.7632 C   0  0  1  0  0  0
   52.2008  102.4288   35.5401 C   0  0  0  0  0  0
   52.6418  103.2957   36.5438 C   0  0  0  0  0  0
   51.7347  104.1102   37.2179 C   0  0  0  0  0  0
   50.3800  104.0705   36.8901 C   0  0  0  0  0  0
   49.9145  103.2045   35.8857 C   0  0  0  0  0  0
   50.8345  102.3869   35.2272 C   0  0  0  0  0  0
   53.2344  100.2301   35.2973 N   0  0  0  0  0  0
   48.5964  103.1067   35.4837 O   0  0  0  0  0  0
   47.6205  103.9033   36.1434 C   0  0  0  0  0  0
   53.4002  103.9196   30.7203 H   0  0  0  0  0  0
   53.7808  103.6488   33.1316 H   0  0  0  0  0  0
   52.1907   99.6715   33.0309 H   0  0  0  0  0  0
   50.5043   97.8788   30.0275 H   0  0  0  0  0  0
   52.0745   97.6829   30.7961 H   0  0  0  0  0  0
   50.7297   98.4019   31.6553 H   0  0  0  0  0  0
   50.7587   96.7186   25.9537 H   0  0  0  0  0  0
   51.6648   97.5819   28.1115 H   0  0  0  0  0  0
   49.1933  101.6827   25.0430 H   0  0  0  0  0  0
   48.9615  100.3613   23.8915 H   0  0  0  0  0  0
   54.2077  101.9959   34.9416 H   0  0  0  0  0  0
   53.6916  103.3478   36.7954 H   0  0  0  0  0  0
   52.0842  104.7836   37.9877 H   0  0  0  0  0  0
   49.7081  104.7256   37.4221 H   0  0  0  0  0  0
   50.4830  101.7207   34.4526 H   0  0  0  0  0  0
   53.9869   99.7225   34.8513 H   0  0  0  0  0  0
   53.4595  100.2589   36.2822 H   0  0  0  0  0  0
   46.6259  103.6560   35.7711 H   0  0  0  0  0  0
   47.6347  103.7173   37.2173 H   0  0  0  0  0  0
   47.7855  104.9657   35.9621 H   0  0  0  0  0  0
  1  5  2  0  0  0
  1  2  1  0  0  0
  1 28  1  0  0  0
  2  3  2  0  0  0
  2 29  1  0  0  0
  3 18  1  0  0  0
  3  4  1  0  0  0
  4  6  2  0  0  0
  4 30  1  0  0  0
  5  9  1  0  0  0
  5  6  1  0  0  0
  6  7  1  0  0  0
  7  8  2  0  0  0
  7 10  1  0  0  0
  8 11  1  0  0  0
  8  9  1  0  0  0
 10 31  1  0  0  0
 10 32  1  0  0  0
 10 33  1  0  0  0
 11 16  1  0  0  0
 11 12  2  0  0  0
 12 13  1  0  0  0
 13 14  2  0  0  0
 13 17  1  0  0  0
 14 15  1  0  0  0
 15 16  2  0  0  0
 15 34  1  0  0  0
 16 35  1  0  0  0
 17 36  1  0  0  0
 17 37  1  0  0  0
 18 19  1  0  0  0
 18 25  1  0  0  0
 18 38  1  0  0  0
 19 20  2  0  0  0
 19 24  1  0  0  0
 20 21  1  0  0  0
 20 39  1  0  0  0
 21 22  2  0  0  0
 21 40  1  0  0  0
 22 23  1  0  0  0
 22 41  1  0  0  0
 23 24  2  0  0  0
 23 26  1  0  0  0
 24 42  1  0  0  0
 25 43  1  0  0  0
 25 44  1  0  0  0
 26 27  1  0  0  0
 27 45  1  0  0  0
 27 46  1  0  0  0
 27 47  1  0  0  0
M  END
> <s_m_entry_id>
28426

> <s_m_entry_name>
dock_pv.587

> <s_m_Source_Path>
/home/csk/Desktop/cluster/DUD-E-result/rock1

> <s_m_Source_File>
dock_pv.maegz

> <i_m_Source_File_Index>
587

> <chembl_id>
CHEMBL1083073

> <chembl_pref_name>
None

> <i_lp_mmshare_version>
53161

> <r_lp_tautomer_probability>
0.999999987636

> <s_lp_Force_Field>
OPLS_2005

> <r_lp_Energy>
11.386181

> <b_lp_Chiralities_Consistent>
1

> <s_lp_Variant>
CHEMBL3231_lig214-2

> <s_i_glide_gridfile>
glide-grid_2etr

> <i_i_glide_lignum>
347

> <i_i_glide_rotatable_bonds>
4

> <r_i_docking_score>
-7.24074858234027

> <r_i_glide_ligand_efficiency>
-0.26817587342001

> <r_i_glide_ligand_efficiency_sa>
-0.804527619376166

> <r_i_glide_ligand_efficiency_ln>
-1.68552689689892

> <r_i_glide_gscore>
-7.24074858234027

> <r_i_glide_lipo>
-2.36547491677485

> <r_i_glide_hbond>
-0.367551666939965

> <r_i_glide_metal>
0

> <r_i_glide_rewards>
-1.7842618970002

> <r_i_glide_evdw>
-44.5226211547852

> <r_i_glide_ecoul>
-5.22765254974365

> <r_i_glide_erotb>
0.28681883857555

> <r_i_glide_esite>
0

> <r_i_glide_emodel>
-69.7456615119692

> <r_i_glide_energy>
-49.7502737045288

> <r_i_glide_einternal>
3.98905277252197

> <i_i_glide_confnum>
7

> <i_i_glide_posenum>
49

> <r_i_glide_eff_state_penalty>
0

> <s_user_duplicate_titles>
CHEMBL3231_lig214,630307

> <i_f3d_flags>
0

> <s_m_subgroup_title>
dock_pv

> <s_m_subgroupid>
dock_pv

> <b_m_subgroup_collapsed>
1

$$$$
CHEMBL3231_lig693
                    3D
 Schrodinger Suite 2021-1.
 44 46  0  0  1  0            999 V2000
   51.2696   97.3630   30.4030 C   0  0  0  0  0  0
   51.2427   98.1395   29.2074 O   0  0  0  0  0  0
   51.5580   99.4869   29.2508 C   0  0  0  0  0  0
   52.1581  100.0835   30.3730 C   0  0  0  0  0  0
   52.4460  101.4524   30.4196 C   0  0  0  0  0  0
   52.0900  102.2425   29.3170 C   0  0  0  0  0  0
   51.4967  101.6625   28.2004 C   0  0  0  0  0  0
   51.2493  100.2896   28.1329 C   0  0  0  0  0  0
   50.6648   99.7604   26.8505 C   0  0  0  0  0  0
   50.5905   98.4305   26.3942 C   0  0  0  0  0  0
   50.0424   98.3030   25.2107 N   0  0  0  0  0  0
   49.7486   99.5531   24.8405 N   0  0  0  0  0  0
   50.0923  100.4692   25.7953 C   0  0  0  0  0  0
   53.1131  102.0368   31.6516 C   0  0  0  0  0  0
   53.2807  101.3480   32.6591 O   0  0  0  0  0  0
   53.4777  103.3308   31.5917 N   0  0  0  0  0  0
   54.1106  104.1199   32.6564 C   0  0  0  0  0  0
   53.4723  104.0104   34.0683 C   0  0  2  0  0  0
   52.0002  104.0781   34.0363 C   0  0  0  0  0  0
   50.8436  104.1264   34.0131 N   0  0  0  0  0  0
   54.0079  104.9763   35.1298 C   0  0  0  0  0  0
   54.4453  106.2695   34.8108 C   0  0  0  0  0  0
   54.8662  107.1369   35.8158 C   0  0  0  0  0  0
   54.8678  106.7089   37.1404 C   0  0  0  0  0  0
   54.4515  105.4211   37.4697 C   0  0  0  0  0  0
   54.0197  104.5588   36.4648 C   0  0  0  0  0  0
   50.9105   96.3581   30.1813 H   0  0  0  0  0  0
   52.2770   97.2635   30.8095 H   0  0  0  0  0  0
   50.6131   97.7811   31.1685 H   0  0  0  0  0  0
   52.4224   99.4729   31.2260 H   0  0  0  0  0  0
   52.2770  103.3061   29.2948 H   0  0  0  0  0  0
   51.2433  102.3009   27.3681 H   0  0  0  0  0  0
   50.9468   97.5563   26.9196 H   0  0  0  0  0  0
   49.3214   99.7683   23.9468 H   0  0  0  0  0  0
   49.9109  101.5213   25.6371 H   0  0  0  0  0  0
   53.4427  103.7824   30.6902 H   0  0  0  0  0  0
   54.0433  105.1484   32.3024 H   0  0  0  0  0  0
   55.1770  103.8838   32.7011 H   0  0  0  0  0  0
   53.6982  103.0102   34.4378 H   0  0  0  0  0  0
   54.4429  106.6300   33.7931 H   0  0  0  0  0  0
   55.1897  108.1380   35.5618 H   0  0  0  0  0  0
   55.1953  107.3823   37.9196 H   0  0  0  0  0  0
   54.4560  105.0944   38.4987 H   0  0  0  0  0  0
   53.6849  103.5647   36.7274 H   0  0  0  0  0  0
  1  2  1  0  0  0
  1 27  1  0  0  0
  1 28  1  0  0  0
  1 29  1  0  0  0
  2  3  1  0  0  0
  3  4  2  0  0  0
  3  8  1  0  0  0
  4  5  1  0  0  0
  4 30  1  0  0  0
  5  6  2  0  0  0
  5 14  1  0  0  0
  6  7  1  0  0  0
  6 31  1  0  0  0
  7  8  2  0  0  0
  7 32  1  0  0  0
  8  9  1  0  0  0
  9 10  1  0  0  0
  9 13  2  0  0  0
 10 11  2  0  0  0
 10 33  1  0  0  0
 11 12  1  0  0  0
 12 13  1  0  0  0
 12 34  1  0  0  0
 13 35  1  0  0  0
 14 15  2  0  0  0
 14 16  1  0  0  0
 16 17  1  0  0  0
 16 36  1  0  0  0
 17 18  1  0  0  0
 17 37  1  0  0  0
 17 38  1  0  0  0
 18 19  1  0  0  0
 18 21  1  0  0  0
 18 39  1  0  0  0
 19 20  3  0  0  0
 21 22  2  0  0  0
 21 26  1  0  0  0
 22 23  1  0  0  0
 22 40  1  0  0  0
 23 24  2  0  0  0
 23 41  1  0  0  0
 24 25  1  0  0  0
 24 42  1  0  0  0
 25 26  2  0  0  0
 25 43  1  0  0  0
 26 44  1  0  0  0
M  END
> <s_m_entry_id>
28427

> <s_m_entry_name>
dock_pv.588

> <s_m_Source_Path>
/home/csk/Desktop/cluster/DUD-E-result/rock1

> <s_m_Source_File>
dock_pv.maegz

> <i_m_Source_File_Index>
588

> <chembl_id>
CHEMBL3903819

> <chembl_pref_name>
None

> <i_lp_mmshare_version>
53161

> <r_lp_tautomer_probability>
0.5

> <s_lp_Force_Field>
OPLS_2005

> <r_lp_Energy>
23.571092

> <b_lp_Chiralities_Consistent>
1

> <s_lp_Variant>
CHEMBL3231_lig693-1

> <s_i_glide_gridfile>
glide-grid_2etr

> <i_i_glide_lignum>
987

> <i_i_glide_rotatable_bonds>
7

> <r_i_docking_score>
-7.24058247055229

> <r_i_glide_ligand_efficiency>
-0.278483941175088

> <r_i_glide_ligand_efficiency_sa>
-0.825007579949803

> <r_i_glide_ligand_efficiency_ln>
-1.70042703492031

> <r_i_glide_gscore>
-7.24058247055229

> <r_i_glide_lipo>
-1.84783796574612

> <r_i_glide_hbond>
-0.535670143392915

> <r_i_glide_metal>
0

> <r_i_glide_rewards>
-1.99459722232933

> <r_i_glide_evdw>
-39.2574005126953

> <r_i_glide_ecoul>
-9.04421424865723

> <r_i_glide_erotb>
0.554588655613883

> <r_i_glide_esite>
-0.097563631764462

> <r_i_glide_emodel>
-68.6243728943201

> <r_i_glide_energy>
-48.3016147613525

> <r_i_glide_einternal>
3.68821024894714

> <i_i_glide_confnum>
35

> <i_i_glide_posenum>
191

> <r_i_glide_eff_state_penalty>
0

> <s_user_duplicate_titles>
CHEMBL3231_lig693

> <i_f3d_flags>
0

> <s_m_subgroup_title>
dock_pv

> <s_m_subgroupid>
dock_pv

> <b_m_subgroup_collapsed>
1

$$$$
CHEMBL3231_lig1755
                    3D
 Schrodinger Suite 2021-1.
 45 49  0  0  1  0            999 V2000
   51.5975  100.2773   28.8126 C   0  0  0  0  0  0
   51.1381   98.1489   27.7079 C   0  0  0  0  0  0
   51.0014  100.9746   27.7514 C   0  0  0  0  0  0
   50.4879  100.2616   26.6601 C   0  0  0  0  0  0
   50.5666   98.8368   26.6317 C   0  0  0  0  0  0
   49.6431   99.3930   24.8110 N   0  0  0  0  0  0
   49.8449  100.5881   25.4444 C   0  0  0  0  0  0
   52.2027  101.0425   29.9551 C   0  0  0  0  0  0
   51.7239  102.2377   30.2651 N   0  0  0  0  0  0
   53.2815  100.6756   30.7879 C   0  0  0  0  0  0
   53.5488  101.7915   31.5476 N   0  0  0  0  0  0
   52.5395  102.7137   31.2331 C   0  0  0  0  0  0
   52.4520  103.9032   31.8422 N   0  0  0  0  0  0
   53.4190  104.2036   32.7527 C   0  0  0  0  0  0
   54.4665  103.3488   33.0895 C   0  0  0  0  0  0
   54.5217  102.1069   32.4640 C   0  0  0  0  0  0
   53.7501   98.4421   31.8283 C   0  0  0  0  0  0
   54.5961   97.2199   31.4195 C   0  0  0  0  0  0
   54.4451   96.0490   32.4112 C   0  0  0  0  0  0
   54.7358   96.4768   33.8620 C   0  0  0  0  0  0
   53.8960   97.7014   34.2733 C   0  0  0  0  0  0
   54.0684   98.8679   33.2828 C   0  0  0  0  0  0
   50.0432   98.3034   25.4859 N   0  0  0  0  0  0
   54.0450   99.5379   30.9066 N   0  0  0  0  0  0
   51.6428   98.8810   28.7813 C   0  0  0  0  0  0
   51.2041   97.0734   27.7058 H   0  0  0  0  0  0
   50.9562  102.0542   27.7598 H   0  0  0  0  0  0
   49.5255  101.5032   24.9766 H   0  0  0  0  0  0
   53.3476  105.1769   33.2134 H   0  0  0  0  0  0
   55.2199  103.6455   33.8041 H   0  0  0  0  0  0
   55.2983  101.3762   32.6380 H   0  0  0  0  0  0
   52.6905   98.1972   31.7428 H   0  0  0  0  0  0
   54.3448   96.8921   30.4113 H   0  0  0  0  0  0
   55.6429   97.5074   31.3771 H   0  0  0  0  0  0
   53.4303   95.6580   32.3558 H   0  0  0  0  0  0
   55.1071   95.2315   32.1246 H   0  0  0  0  0  0
   54.5429   95.6462   34.5414 H   0  0  0  0  0  0
   55.7966   96.7123   33.9618 H   0  0  0  0  0  0
   52.8433   97.4183   34.3211 H   0  0  0  0  0  0
   54.1725   98.0222   35.2778 H   0  0  0  0  0  0
   55.0950   99.2330   33.3500 H   0  0  0  0  0  0
   53.4209   99.6916   33.5876 H   0  0  0  0  0  0
   49.2101   99.3244   23.8956 H   0  0  0  0  0  0
   54.9964   99.5186   30.5586 H   0  0  0  0  0  0
   52.0903   98.3346   29.5955 H   0  0  0  0  0  0
  1 25  1  0  0  0
  1  8  1  0  0  0
  1  3  2  0  0  0
  2  5  1  0  0  0
  2 26  1  0  0  0
  2 25  2  0  0  0
  3 27  1  0  0  0
  3  4  1  0  0  0
  4  5  1  0  0  0
  4  7  2  0  0  0
  5 23  2  0  0  0
  6 43  1  0  0  0
  6 23  1  0  0  0
  6  7  1  0  0  0
  7 28  1  0  0  0
  8  9  1  0  0  0
  8 10  2  0  0  0
  9 12  2  0  0  0
 10 11  1  0  0  0
 10 24  1  0  0  0
 11 12  1  0  0  0
 11 16  1  0  0  0
 12 13  1  0  0  0
 13 14  2  0  0  0
 14 15  1  0  0  0
 14 29  1  0  0  0
 15 16  2  0  0  0
 15 30  1  0  0  0
 16 31  1  0  0  0
 17 18  1  0  0  0
 17 22  1  0  0  0
 17 24  1  0  0  0
 17 32  1  0  0  0
 18 19  1  0  0  0
 18 33  1  0  0  0
 18 34  1  0  0  0
 19 20  1  0  0  0
 19 35  1  0  0  0
 19 36  1  0  0  0
 20 21  1  0  0  0
 20 37  1  0  0  0
 20 38  1  0  0  0
 21 22  1  0  0  0
 21 39  1  0  0  0
 21 40  1  0  0  0
 22 41  1  0  0  0
 22 42  1  0  0  0
 24 44  1  0  0  0
 25 45  1  0  0  0
M  END
> <s_m_entry_id>
28428

> <s_m_entry_name>
dock_pv.589

> <s_m_Source_Path>
/home/csk/Desktop/cluster/DUD-E-result/rock1

> <s_m_Source_File>
dock_pv.maegz

> <i_m_Source_File_Index>
589

> <chembl_id>
CHEMBL1682552

> <chembl_pref_name>
None

> <i_lp_mmshare_version>
53161

> <r_lp_tautomer_probability>
0.0196078431372549

> <s_lp_Force_Field>
OPLS_2005

> <r_lp_Energy>
38.8572

> <b_lp_Chiralities_Consistent>
1

> <s_lp_Variant>
CHEMBL3231_lig1755-2

> <s_i_glide_gridfile>
glide-grid_2etr

> <i_i_glide_lignum>
2505

> <i_i_glide_rotatable_bonds>
3

> <r_i_docking_score>
-7.23988199667743

> <r_i_glide_ligand_efficiency>
-0.289595279867097

> <r_i_glide_ligand_efficiency_sa>
-0.84678173432555

> <r_i_glide_ligand_efficiency_ln>
-1.71606899496825

> <r_i_glide_gscore>
-7.23988199667743

> <r_i_glide_lipo>
-2.04683115761688

> <r_i_glide_hbond>
-0.371842262523029

> <r_i_glide_metal>
0

> <r_i_glide_rewards>
-2.36771159090909

> <r_i_glide_evdw>
-41.8003005981445

> <r_i_glide_ecoul>
-5.16108703613281

> <r_i_glide_erotb>
0.511370091182575

> <r_i_glide_esite>
-0.100688991483859

> <r_i_glide_emodel>
-67.0141315734837

> <r_i_glide_energy>
-46.9613876342773

> <r_i_glide_einternal>
1.87749481201172

> <i_i_glide_confnum>
14

> <i_i_glide_posenum>
399

> <r_i_glide_eff_state_penalty>
0

> <s_user_duplicate_titles>
CHEMBL3231_lig1755,CHEMBL3231_lig1755

> <i_f3d_flags>
0

> <s_m_subgroup_title>
dock_pv

> <s_m_subgroupid>
dock_pv

> <b_m_subgroup_collapsed>
1

$$$$
CHEMBL3231_lig1434
                    3D
 Schrodinger Suite 2021-1.
 37 38  0  0  1  0            999 V2000
   53.2245  101.4658   31.1457 C   0  0  0  0  0  0
   52.2688  100.5401   31.5908 C   0  0  0  0  0  0
   51.6434  100.6962   32.7922 N   0  0  0  0  0  0
   51.9379  101.7797   33.5645 C   0  0  0  0  0  0
   52.8796  102.7432   33.1730 C   0  0  0  0  0  0
   53.5213  102.5784   31.9311 C   0  0  0  0  0  0
   54.4419  103.4958   31.4156 N   0  0  0  0  0  0
   53.1816  103.8712   34.0573 C   0  0  0  0  0  0
   53.4209  104.7584   34.7619 N   0  0  0  0  0  0
   51.2512  101.9481   34.7592 O   0  0  0  0  0  0
   50.2793  101.0058   35.2104 C   0  0  0  0  0  0
   49.2341  101.7864   36.0107 C   0  0  0  0  0  0
   51.8282   99.3603   30.7378 C   0  0  0  0  0  0
   52.1091   99.4275   29.4212 N   0  0  0  0  0  0
   51.6049   98.5029   28.3988 C   0  0  0  0  0  0
   50.9600   99.1743   27.1923 C   0  0  0  0  0  0
   50.7387  100.5573   27.1232 C   0  0  0  0  0  0
   50.1760  101.1081   25.9729 C   0  0  0  0  0  0
   49.8484  100.2592   24.9175 C   0  0  0  0  0  0
   50.0430   98.9160   24.9628 N   0  0  0  0  0  0
   50.5920   98.3961   26.0899 C   0  0  0  0  0  0
   51.1814   98.4255   31.2128 O   0  0  0  0  0  0
   53.7250  101.3420   30.1951 H   0  0  0  0  0  0
   54.6778  104.3450   31.9121 H   0  0  0  0  0  0
   54.9510  103.2612   30.5731 H   0  0  0  0  0  0
   50.7662  100.2596   35.8379 H   0  0  0  0  0  0
   49.7688  100.4700   34.4105 H   0  0  0  0  0  0
   48.4603  101.1274   36.4071 H   0  0  0  0  0  0
   48.7391  102.5317   35.3866 H   0  0  0  0  0  0
   49.6941  102.3060   36.8498 H   0  0  0  0  0  0
   52.7719  100.1191   29.1048 H   0  0  0  0  0  0
   52.4426   97.9034   28.0429 H   0  0  0  0  0  0
   50.8827   97.7930   28.8098 H   0  0  0  0  0  0
   50.9967  101.2122   27.9411 H   0  0  0  0  0  0
   49.9996  102.1713   25.9053 H   0  0  0  0  0  0
   49.4172  100.6584   24.0112 H   0  0  0  0  0  0
   50.7508   97.3273   26.0898 H   0  0  0  0  0  0
  1  6  1  0  0  0
  1  2  2  0  0  0
  1 23  1  0  0  0
  2 13  1  0  0  0
  2  3  1  0  0  0
  3  4  2  0  0  0
  4  5  1  0  0  0
  4 10  1  0  0  0
  5  6  2  0  0  0
  5  8  1  0  0  0
  6  7  1  0  0  0
  7 24  1  0  0  0
  7 25  1  0  0  0
  8  9  3  0  0  0
 10 11  1  0  0  0
 11 12  1  0  0  0
 11 26  1  0  0  0
 11 27  1  0  0  0
 12 28  1  0  0  0
 12 29  1  0  0  0
 12 30  1  0  0  0
 13 14  1  0  0  0
 13 22  2  0  0  0
 14 15  1  0  0  0
 14 31  1  0  0  0
 15 16  1  0  0  0
 15 32  1  0  0  0
 15 33  1  0  0  0
 16 17  2  0  0  0
 16 21  1  0  0  0
 17 18  1  0  0  0
 17 34  1  0  0  0
 18 19  2  0  0  0
 18 35  1  0  0  0
 19 20  1  0  0  0
 19 36  1  0  0  0
 20 21  2  0  0  0
 21 37  1  0  0  0
M  END
> <s_m_entry_id>
28429

> <s_m_entry_name>
dock_pv.590

> <s_m_Source_Path>
/home/csk/Desktop/cluster/DUD-E-result/rock1

> <s_m_Source_File>
dock_pv.maegz

> <i_m_Source_File_Index>
590

> <chembl_id>
CHEMBL209534

> <chembl_pref_name>
None

> <i_lp_mmshare_version>
53161

> <r_lp_tautomer_probability>
1

> <s_lp_Force_Field>
OPLS_2005

> <r_lp_Energy>
16.36253

> <b_lp_Chiralities_Consistent>
1

> <s_lp_Variant>
CHEMBL3231_lig1434-1

> <s_i_glide_gridfile>
glide-grid_2etr

> <i_i_glide_lignum>
2011

> <i_i_glide_rotatable_bonds>
6

> <r_i_docking_score>
-7.23957337562051

> <r_i_glide_ligand_efficiency>
-0.329071517073659

> <r_i_glide_ligand_efficiency_sa>
-0.922071332488775

> <r_i_glide_ligand_efficiency_ln>
-1.7696158028567

> <r_i_glide_gscore>
-7.23957337562051

> <r_i_glide_lipo>
-2.48752774468947

> <r_i_glide_hbond>
-0.16274171547835

> <r_i_glide_metal>
0

> <r_i_glide_rewards>
-2.79196072555775

> <r_i_glide_evdw>
-37.7811889648438

> <r_i_glide_ecoul>
-4.4780125617981

> <r_i_glide_erotb>
0.829625725513786

> <r_i_glide_esite>
-0.0662075828968194

> <r_i_glide_emodel>
-62.4104649297395

> <r_i_glide_energy>
-42.2592015266418

> <r_i_glide_einternal>
2.37785077095032

> <i_i_glide_confnum>
2

> <i_i_glide_posenum>
343

> <r_i_glide_eff_state_penalty>
0

> <s_user_duplicate_titles>
CHEMBL3231_lig1434

> <i_f3d_flags>
0

> <s_m_subgroup_title>
dock_pv

> <s_m_subgroupid>
dock_pv

> <b_m_subgroup_collapsed>
1

$$$$
CHEMBL3231_lig1319
                    3D
 Schrodinger Suite 2021-1.
 26 27  0  0  1  0            999 V2000
   53.9463   99.4326   31.5933 S   0  0  0  0  0  0
   54.0883   97.2550   33.6458 S   0  0  0  0  0  0
   50.8430   97.8439   29.9724 O   0  0  0  0  0  0
   50.0453   98.3518   25.4568 O   0  0  0  0  0  0
   49.2430  100.8558   24.8110 O   0  0  0  0  0  0
   52.3258   97.5030   31.6238 N   0  0  0  0  0  0
   52.6903   99.3528   30.3479 C   0  0  0  0  0  0
   51.8483   98.1953   30.5829 C   0  0  0  0  0  0
   51.6430  100.3453   28.1870 C   0  0  0  0  0  0
   52.5485  100.2596   29.3538 C   0  0  0  0  0  0
   53.3914   97.9529   32.3164 C   0  0  0  0  0  0
   50.4551   99.3937   26.2691 C   0  0  0  0  0  0
   51.2619   99.2414   27.4129 C   0  0  0  0  0  0
   50.0430  100.6763   25.9082 C   0  0  0  0  0  0
   51.2191  101.6144   27.7960 C   0  0  0  0  0  0
   50.4425  101.7822   26.6546 C   0  0  0  0  0  0
   50.6859   97.1030   25.6278 C   0  0  0  0  0  0
   49.1537  100.0676   24.2657 H   0  0  0  0  0  0
   51.8808   96.6315   31.8985 H   0  0  0  0  0  0
   53.2510  101.0787   29.3924 H   0  0  0  0  0  0
   51.6278   98.2659   27.6907 H   0  0  0  0  0  0
   51.5103  102.4870   28.3638 H   0  0  0  0  0  0
   50.1232  102.7708   26.3593 H   0  0  0  0  0  0
   50.4430   96.4329   24.8110 H   0  0  0  0  0  0
   51.7593   97.2414   25.6110 H   0  0  0  0  0  0
   50.3994   96.6306   26.5655 H   0  0  0  0  0  0
  1  7  1  0  0  0
  1 11  1  0  0  0
  2 11  2  0  0  0
  3  8  2  0  0  0
  4 12  1  0  0  0
  4 17  1  0  0  0
  5 14  1  0  0  0
  5 18  1  0  0  0
  6  8  1  0  0  0
  6 11  1  0  0  0
  6 19  1  0  0  0
  7  8  1  0  0  0
  7 10  2  3  0  0
  9 10  1  0  0  0
  9 13  1  0  0  0
  9 15  2  0  0  0
 10 20  1  0  0  0
 12 13  2  0  0  0
 12 14  1  0  0  0
 13 21  1  0  0  0
 14 16  2  0  0  0
 15 16  1  0  0  0
 15 22  1  0  0  0
 16 23  1  0  0  0
 17 24  1  0  0  0
 17 25  1  0  0  0
 17 26  1  0  0  0
M  END
> <s_m_entry_id>
28430

> <s_m_entry_name>
dock_pv.591

> <s_m_Source_Path>
/home/csk/Desktop/cluster/DUD-E-result/rock1

> <s_m_Source_File>
dock_pv.maegz

> <i_m_Source_File_Index>
591

> <chembl_id>
CHEMBL1973098

> <chembl_pref_name>
None

> <i_lp_mmshare_version>
53161

> <r_lp_tautomer_probability>
1

> <s_lp_Force_Field>
OPLS_2005

> <r_lp_Energy>
14.715685

> <b_lp_Chiralities_Consistent>
1

> <s_lp_Variant>
CHEMBL3231_lig1319-1

> <s_i_glide_gridfile>
glide-grid_2etr

> <i_i_glide_lignum>
1831

> <i_i_glide_rotatable_bonds>
3

> <r_i_docking_score>
-7.23345918311048

> <r_i_glide_ligand_efficiency>
-0.425497599006499

> <r_i_glide_ligand_efficiency_sa>
-1.09407414216144

> <r_i_glide_ligand_efficiency_ln>
-1.88704841965728

> <r_i_glide_gscore>
-7.23345918311048

> <r_i_glide_lipo>
-1.91859824976445

> <r_i_glide_hbond>
-0.362396233458945

> <r_i_glide_metal>
0

> <r_i_glide_rewards>
-2.93112900917102

> <r_i_glide_evdw>
-31.6419258117676

> <r_i_glide_ecoul>
-4.50231218338013

> <r_i_glide_erotb>
0.249501434128099

> <r_i_glide_esite>
-0.0133940067487649

> <r_i_glide_emodel>
-51.5695630936451

> <r_i_glide_energy>
-36.1442379951477

> <r_i_glide_einternal>
1.84776186943054

> <i_i_glide_confnum>
4

> <i_i_glide_posenum>
353

> <r_i_glide_eff_state_penalty>
0

> <s_user_duplicate_titles>
CHEMBL3231_lig1319

> <i_f3d_flags>
0

> <s_m_subgroup_title>
dock_pv

> <s_m_subgroupid>
dock_pv

> <b_m_subgroup_collapsed>
1

$$$$
CHEMBL3231_lig165
                    3D
 Schrodinger Suite 2021-1.
 45 48  0  0  1  0            999 V2000
   49.7175   99.6036   24.8424 N   0  0  0  0  0  0
   49.9784  100.7715   25.4446 N   0  0  0  0  0  0
   50.0493   98.4908   25.5774 C   0  0  0  0  0  0
   50.6052   98.9808   26.7820 C   0  0  0  0  0  0
   50.5323  100.3939   26.6357 C   0  0  0  0  0  0
   51.0149  101.2325   27.6475 C   0  0  0  0  0  0
   51.6203  100.6789   28.7890 C   0  0  0  0  0  0
   51.6504   99.2813   28.9230 C   0  0  0  0  0  0
   51.1487   98.4236   27.9449 C   0  0  0  0  0  0
   52.2706  101.5696   29.8077 C   0  0  0  0  0  0
   52.6437  102.8897   29.5210 C   0  0  0  0  0  0
   52.6027  101.0281   31.0172 N   0  0  0  0  0  0
   53.3175  101.7791   31.9052 C   0  0  0  0  0  0
   53.6908  103.0957   31.5723 C   0  0  0  0  0  0
   53.3453  103.6511   30.3892 N   0  0  0  0  0  0
   54.4433  103.9029   32.4273 N   0  0  0  0  0  0
   53.8264  101.1559   33.0563 N   0  0  0  0  0  0
   52.9661  100.3532   33.9212 C   0  0  0  0  0  0
   52.5106   98.9655   33.4464 C   0  0  0  0  0  0
   55.1903  100.6453   32.9135 C   0  0  0  0  0  0
   53.5954   97.9672   33.0188 C   0  0  0  0  0  0
   55.4634   99.3406   32.1270 C   0  0  0  0  0  0
   54.3802   98.3890   31.8623 N   0  0  1  0  0  0
   54.8428   97.2738   31.0445 C   0  0  0  0  0  0
   49.2919   99.5799   23.9200 H   0  0  0  0  0  0
   49.8698   97.5026   25.1996 H   0  0  0  0  0  0
   50.9408  102.2999   27.5147 H   0  0  0  0  0  0
   52.1108   98.8340   29.7920 H   0  0  0  0  0  0
   51.2080   97.3526   28.0751 H   0  0  0  0  0  0
   52.4432  103.3587   28.5723 H   0  0  0  0  0  0
   54.8151  103.4874   33.2672 H   0  0  0  0  0  0
   54.8671  104.7399   32.0272 H   0  0  0  0  0  0
   52.0607  100.9491   34.0483 H   0  0  0  0  0  0
   53.3814  100.3357   34.9296 H   0  0  0  0  0  0
   51.7006   99.0248   32.7188 H   0  0  0  0  0  0
   52.0431   98.5178   34.3207 H   0  0  0  0  0  0
   55.6733  100.5952   33.8908 H   0  0  0  0  0  0
   55.7733  101.4207   32.4171 H   0  0  0  0  0  0
   54.2477   97.7056   33.8549 H   0  0  0  0  0  0
   53.0332   97.0711   32.7432 H   0  0  0  0  0  0
   56.1692   98.8127   32.7719 H   0  0  0  0  0  0
   56.0423   99.5615   31.2274 H   0  0  0  0  0  0
   55.2577   97.6334   30.1026 H   0  0  0  0  0  0
   55.6154   96.6990   31.5580 H   0  0  0  0  0  0
   54.0181   96.6032   30.8109 H   0  0  0  0  0  0
  1 25  1  0  0  0
  1  2  1  0  0  0
  1  3  1  0  0  0
  2  5  2  0  0  0
  3  4  2  0  0  0
  3 26  1  0  0  0
  4  9  1  0  0  0
  4  5  1  0  0  0
  5  6  1  0  0  0
  6 27  1  0  0  0
  6  7  2  0  0  0
  7 10  1  0  0  0
  7  8  1  0  0  0
  8 28  1  0  0  0
  8  9  2  0  0  0
  9 29  1  0  0  0
 10 12  1  0  0  0
 10 11  2  0  0  0
 11 15  1  0  0  0
 11 30  1  0  0  0
 12 13  2  0  0  0
 13 14  1  0  0  0
 13 17  1  0  0  0
 14 15  2  0  0  0
 14 16  1  0  0  0
 16 31  1  0  0  0
 16 32  1  0  0  0
 17 18  1  0  0  0
 17 20  1  0  0  0
 18 19  1  0  0  0
 18 33  1  0  0  0
 18 34  1  0  0  0
 19 21  1  0  0  0
 19 35  1  0  0  0
 19 36  1  0  0  0
 20 22  1  0  0  0
 20 37  1  0  0  0
 20 38  1  0  0  0
 21 23  1  0  0  0
 21 39  1  0  0  0
 21 40  1  0  0  0
 22 23  1  0  0  0
 22 41  1  0  0  0
 22 42  1  0  0  0
 23 24  1  0  0  0
 24 43  1  0  0  0
 24 44  1  0  0  0
 24 45  1  0  0  0
M  END
> <s_m_entry_id>
28431

> <s_m_entry_name>
dock_pv.592

> <s_m_Source_Path>
/home/csk/Desktop/cluster/DUD-E-result/rock1

> <s_m_Source_File>
dock_pv.maegz

> <i_m_Source_File_Index>
592

> <chembl_id>
CHEMBL589577

> <chembl_pref_name>
None

> <i_lp_mmshare_version>
53161

> <r_lp_tautomer_probability>
0.0196078412395234

> <s_lp_Force_Field>
OPLS_2005

> <r_lp_Energy>
57.617575

> <b_lp_Chiralities_Consistent>
1

> <s_lp_Variant>
CHEMBL3231_lig165-2

> <s_i_glide_gridfile>
glide-grid_2etr

> <i_i_glide_lignum>
292

> <i_i_glide_rotatable_bonds>
2

> <r_i_docking_score>
-7.23139640353372

> <r_i_glide_ligand_efficiency>
-0.301308183480572

> <r_i_glide_ligand_efficiency_sa>
-0.869123195389213

> <r_i_glide_ligand_efficiency_ln>
-1.73080498652443

> <r_i_glide_gscore>
-7.23139640353372

> <r_i_glide_lipo>
-2.07166370040901

> <r_i_glide_hbond>
-0.608

> <r_i_glide_metal>
0

> <r_i_glide_rewards>
-2.41245465151515

> <r_i_glide_evdw>
-38.7866401672363

> <r_i_glide_ecoul>
-3.36737132072449

> <r_i_glide_erotb>
0.357862156708167

> <r_i_glide_esite>
-0.0527025018472355

> <r_i_glide_emodel>
-58.3068100715643

> <r_i_glide_energy>
-42.1540114879608

> <r_i_glide_einternal>
3.48321104049683

> <i_i_glide_confnum>
66

> <i_i_glide_posenum>
140

> <r_i_glide_eff_state_penalty>
0

> <s_user_duplicate_titles>
CHEMBL3231_lig165

> <i_f3d_flags>
0

> <s_m_subgroup_title>
dock_pv

> <s_m_subgroupid>
dock_pv

> <b_m_subgroup_collapsed>
1

$$$$
CHEMBL3231_lig20
                    3D
 Schrodinger Suite 2021-1.
 38 40  0  0  1  0            999 V2000
   49.6419  100.5818   24.5739 O   0  0  0  0  0  0
   50.0456   99.6785   25.5205 C   0  0  0  0  0  0
   50.0429   98.3539   25.2579 N   0  0  0  0  0  0
   50.4453   97.5024   26.2227 C   0  0  0  0  0  0
   50.8694   97.9114   27.4790 C   0  0  0  0  0  0
   50.8694   99.2966   27.8147 C   0  0  0  0  0  0
   51.2542   99.8224   29.1028 C   0  0  0  0  0  0
   51.2430  101.2041   29.3008 C   0  0  0  0  0  0
   50.8438  102.0803   28.3058 C   0  0  0  0  0  0
   50.4447  101.6020   27.0680 C   0  0  0  0  0  0
   50.4500  100.2095   26.7889 C   0  0  0  0  0  0
   51.6504   98.8222   30.5678 S   0  0  0  0  0  0
   51.2900   99.6140   31.7483 O   0  0  0  0  0  0
   51.0334   97.5029   30.4089 O   0  0  0  0  0  0
   53.4165   98.6268   30.5674 N   0  0  1  0  0  0
   54.2580   99.8495   30.6022 C   0  0  0  0  0  0
   54.3952  100.5194   31.9842 C   0  0  0  0  0  0
   54.8603   99.6112   33.1336 C   0  0  0  0  0  0
   53.8735   98.6086   33.5082 N   0  0  1  0  0  0
   53.8686   97.3583   32.7541 C   0  0  0  0  0  0
   53.9504   97.4022   31.2107 C   0  0  0  0  0  0
   49.3035  100.1648   23.7713 H   0  0  0  0  0  0
   50.4435   96.4509   25.9680 H   0  0  0  0  0  0
   51.2129   97.1600   28.1654 H   0  0  0  0  0  0
   51.5301  101.6135   30.2591 H   0  0  0  0  0  0
   50.8403  103.1432   28.4959 H   0  0  0  0  0  0
   50.1311  102.3030   26.3066 H   0  0  0  0  0  0
   55.2269   99.6248   30.1516 H   0  0  0  0  0  0
   53.8142  100.5789   29.9277 H   0  0  0  0  0  0
   55.1128  101.3328   31.8852 H   0  0  0  0  0  0
   53.4576  101.0014   32.2620 H   0  0  0  0  0  0
   55.7931   99.1134   32.8596 H   0  0  0  0  0  0
   55.0744  100.2332   34.0037 H   0  0  0  0  0  0
   53.9503   98.4154   34.4972 H   0  0  0  0  0  0
   53.0160   96.7570   33.0705 H   0  0  0  0  0  0
   54.7431   96.8096   33.1040 H   0  0  0  0  0  0
   53.4176   96.5435   30.8115 H   0  0  0  0  0  0
   54.9816   97.2773   30.8741 H   0  0  0  0  0  0
  1  2  1  0  0  0
  1 22  1  0  0  0
  2  3  1  0  0  0
  2 11  2  0  0  0
  3  4  2  0  0  0
  4  5  1  0  0  0
  4 23  1  0  0  0
  5  6  2  0  0  0
  5 24  1  0  0  0
  6  7  1  0  0  0
  6 11  1  0  0  0
  7  8  2  0  0  0
  7 12  1  0  0  0
  8  9  1  0  0  0
  8 25  1  0  0  0
  9 10  2  0  0  0
  9 26  1  0  0  0
 10 11  1  0  0  0
 10 27  1  0  0  0
 12 13  2  0  0  0
 12 14  2  0  0  0
 12 15  1  0  0  0
 15 16  1  0  0  0
 15 21  1  0  0  0
 16 17  1  0  0  0
 16 28  1  0  0  0
 16 29  1  0  0  0
 17 18  1  0  0  0
 17 30  1  0  0  0
 17 31  1  0  0  0
 18 19  1  0  0  0
 18 32  1  0  0  0
 18 33  1  0  0  0
 19 20  1  0  0  0
 19 34  1  0  0  0
 20 21  1  0  0  0
 20 35  1  0  0  0
 20 36  1  0  0  0
 21 37  1  0  0  0
 21 38  1  0  0  0
M  END
> <s_m_entry_id>
28432

> <s_m_entry_name>
dock_pv.593

> <s_m_Source_Path>
/home/csk/Desktop/cluster/DUD-E-result/rock1

> <s_m_Source_File>
dock_pv.maegz

> <i_m_Source_File_Index>
593

> <chembl_id>
CHEMBL1233300

> <chembl_pref_name>
HYDROXYFASUDIL

> <i_lp_mmshare_version>
53161

> <r_lp_tautomer_probability>
1

> <s_lp_Force_Field>
OPLS_2005

> <r_lp_Energy>
14.653375

> <b_lp_Chiralities_Consistent>
1

> <s_lp_Variant>
CHEMBL3231_lig20-1

> <s_i_glide_gridfile>
glide-grid_2etr

> <i_i_glide_lignum>
20

> <i_i_glide_rotatable_bonds>
3

> <r_i_docking_score>
-7.22716065540377

> <r_i_glide_ligand_efficiency>
-0.34415050740018

> <r_i_glide_ligand_efficiency_sa>
-0.949485154216609

> <r_i_glide_ligand_efficiency_ln>
-1.7869008681954

> <r_i_glide_gscore>
-7.22716065540377

> <r_i_glide_lipo>
-2.36853312830011

> <r_i_glide_hbond>
-0.488348103104921

> <r_i_glide_metal>
0

> <r_i_glide_rewards>
-1.88140827655464

> <r_i_glide_evdw>
-37.6439094543457

> <r_i_glide_ecoul>
-6.63747644424438

> <r_i_glide_erotb>
0.391334232962245

> <r_i_glide_esite>
-0.00238844105240901

> <r_i_glide_emodel>
-59.8245910105671

> <r_i_glide_energy>
-44.2813858985901

> <r_i_glide_einternal>
2.20119166374207

> <i_i_glide_confnum>
51

> <i_i_glide_posenum>
303

> <r_i_glide_eff_state_penalty>
0

> <s_user_duplicate_titles>
CHEMBL3231_lig20

> <i_f3d_flags>
0

> <s_m_subgroup_title>
dock_pv

> <s_m_subgroupid>
dock_pv

> <b_m_subgroup_collapsed>
1

$$$$
CHEMBL3231_lig887
                    3D
 Schrodinger Suite 2021-1.
 49 53  0  0  1  0            999 V2000
   53.3023  100.2079   31.5323 N   0  0  0  0  0  0
   53.5258  101.2205   32.3094 C   0  0  0  0  0  0
   53.0342  102.4719   31.9959 N   0  0  0  0  0  0
   52.1771  102.8048   30.9881 C   0  0  0  0  0  0
   52.5644  100.4350   30.4001 C   0  0  0  0  0  0
   52.0087  101.6793   30.0965 C   0  0  0  0  0  0
   51.0808  101.6815   28.6451 S   0  0  0  0  0  0
   51.4572  100.0034   28.3818 C   0  0  0  0  0  0
   52.2591   99.4948   29.4113 C   0  0  0  0  0  0
   50.9280   99.2923   27.2323 C   0  0  0  0  0  0
   50.8264   97.9012   27.1270 C   0  0  0  0  0  0
   50.2909   97.5029   26.0017 N   0  0  0  0  0  0
   50.0431   98.6364   25.3458 N   0  0  0  0  0  0
   50.4086   99.7621   26.0257 C   0  0  0  0  0  0
   51.6430  103.9029   30.9339 O   0  0  0  0  0  0
   50.2061  101.1263   25.4209 C   0  0  0  0  0  0
   54.2612  101.0770   33.6441 C   0  0  0  0  0  0
   53.4037  101.0725   34.8440 N   0  0  1  0  0  0
   52.6505  102.2769   35.1745 C   0  0  0  0  0  0
   51.6458  101.8848   36.2652 C   0  0  2  0  0  0
   51.6459  100.3412   36.2387 C   0  0  0  0  0  0
   52.4810   99.9627   35.0117 C   0  0  0  0  0  0
   50.2958  102.5993   36.1188 C   0  0  0  0  0  0
   49.2795  102.0592   35.3206 C   0  0  0  0  0  0
   48.0538  102.7091   35.2071 C   0  0  0  0  0  0
   47.8410  103.9015   35.8938 C   0  0  0  0  0  0
   48.8427  104.4498   36.6908 C   0  0  0  0  0  0
   50.0677  103.7967   36.8062 C   0  0  0  0  0  0
   53.2465  103.2305   32.6246 H   0  0  0  0  0  0
   52.6026   98.4726   29.4546 H   0  0  0  0  0  0
   51.1302   97.1862   27.8782 H   0  0  0  0  0  0
   49.6060   98.6549   24.4365 H   0  0  0  0  0  0
   51.1624  101.6079   25.2128 H   0  0  0  0  0  0
   49.6516  101.0937   24.4822 H   0  0  0  0  0  0
   49.6438  101.7860   26.0806 H   0  0  0  0  0  0
   54.8458  100.1553   33.6344 H   0  0  0  0  0  0
   54.9853  101.8873   33.7412 H   0  0  0  0  0  0
   53.2741  103.1377   35.4180 H   0  0  0  0  0  0
   52.1083  102.6215   34.2961 H   0  0  0  0  0  0
   52.0760  102.2086   37.2141 H   0  0  0  0  0  0
   50.6531   99.9034   36.1843 H   0  0  0  0  0  0
   52.1628   99.9313   37.1084 H   0  0  0  0  0  0
   51.8762   99.7908   34.1199 H   0  0  0  0  0  0
   53.0543   99.0443   35.1483 H   0  0  0  0  0  0
   49.4348  101.1369   34.7821 H   0  0  0  0  0  0
   47.2675  102.2884   34.5967 H   0  0  0  0  0  0
   46.8847  104.3966   35.8129 H   0  0  0  0  0  0
   48.6702  105.3776   37.2148 H   0  0  0  0  0  0
   50.8414  104.2275   37.4247 H   0  0  0  0  0  0
  1  5  1  0  0  0
  1  2  2  0  0  0
  2  3  1  0  0  0
  2 17  1  0  0  0
  3  4  1  0  0  0
  3 29  1  0  0  0
  4  6  1  0  0  0
  4 15  2  0  0  0
  5  6  2  0  0  0
  5  9  1  0  0  0
  6  7  1  0  0  0
  7  8  1  0  0  0
  8  9  2  0  0  0
  8 10  1  0  0  0
  9 30  1  0  0  0
 10 14  2  0  0  0
 10 11  1  0  0  0
 11 31  1  0  0  0
 11 12  2  0  0  0
 12 13  1  0  0  0
 13 32  1  0  0  0
 13 14  1  0  0  0
 14 16  1  0  0  0
 16 33  1  0  0  0
 16 34  1  0  0  0
 16 35  1  0  0  0
 17 18  1  0  0  0
 17 36  1  0  0  0
 17 37  1  0  0  0
 18 19  1  0  0  0
 18 22  1  0  0  0
 19 20  1  0  0  0
 19 38  1  0  0  0
 19 39  1  0  0  0
 20 21  1  0  0  0
 20 23  1  0  0  0
 20 40  1  0  0  0
 21 22  1  0  0  0
 21 41  1  0  0  0
 21 42  1  0  0  0
 22 43  1  0  0  0
 22 44  1  0  0  0
 23 24  2  0  0  0
 23 28  1  0  0  0
 24 25  1  0  0  0
 24 45  1  0  0  0
 25 26  2  0  0  0
 25 46  1  0  0  0
 26 27  1  0  0  0
 26 47  1  0  0  0
 27 28  2  0  0  0
 27 48  1  0  0  0
 28 49  1  0  0  0
M  END
> <s_m_entry_id>
28433

> <s_m_entry_name>
dock_pv.594

> <s_m_Source_Path>
/home/csk/Desktop/cluster/DUD-E-result/rock1

> <s_m_Source_File>
dock_pv.maegz

> <i_m_Source_File_Index>
594

> <chembl_id>
CHEMBL4105646

> <chembl_pref_name>
None

> <i_lp_mmshare_version>
53161

> <r_lp_tautomer_probability>
0.5

> <s_lp_Force_Field>
OPLS_2005

> <r_lp_Energy>
48.150059

> <b_lp_Chiralities_Consistent>
1

> <s_lp_Variant>
CHEMBL3231_lig887-3

> <s_i_glide_gridfile>
glide-grid_2etr

> <i_i_glide_lignum>
1268

> <i_i_glide_rotatable_bonds>
4

> <r_i_docking_score>
-7.22667605948856

> <r_i_glide_ligand_efficiency>
-0.258095573553163

> <r_i_glide_ligand_efficiency_sa>
-0.783730171470942

> <r_i_glide_ligand_efficiency_ln>
-1.66812901895906

> <r_i_glide_gscore>
-7.22667605948856

> <r_i_glide_lipo>
-3.72768341762362

> <r_i_glide_hbond>
-0.16

> <r_i_glide_metal>
0

> <r_i_glide_rewards>
-1.09817192424242

> <r_i_glide_evdw>
-48.4393920898438

> <r_i_glide_ecoul>
-1.89771056175232

> <r_i_glide_erotb>
0.509319189091206

> <r_i_glide_esite>
-0.0435137179586829

> <r_i_glide_emodel>
-65.2425344414905

> <r_i_glide_energy>
-50.3371026515961

> <r_i_glide_einternal>
13.6085634231567

> <i_i_glide_confnum>
17

> <i_i_glide_posenum>
28

> <r_i_glide_eff_state_penalty>
0

> <s_user_duplicate_titles>
CHEMBL3231_lig887,CHEMBL3231_lig887

> <i_f3d_flags>
0

> <s_m_subgroup_title>
dock_pv

> <s_m_subgroupid>
dock_pv

> <b_m_subgroup_collapsed>
1

$$$$
CHEMBL3231_lig843
                    3D
 Schrodinger Suite 2021-1.
 42 44  0  0  1  0            999 V2000
   55.6122   99.2152   34.4229 C   0  0  0  0  0  0
   55.1708   98.0336   33.5310 C   0  0  2  0  0  0
   54.2957   98.4671   32.4368 N   0  0  0  0  0  0
   53.0364   98.9271   32.5369 C   0  0  0  0  0  0
   52.4446   99.1677   33.5883 O   0  0  0  0  0  0
   52.3635   99.1071   31.2150 C   0  0  0  0  0  0
   51.7885   98.0126   30.5727 C   0  0  0  0  0  0
   51.2431   98.1644   29.3029 C   0  0  0  0  0  0
   51.2491   99.4027   28.6441 C   0  0  0  0  0  0
   50.6723   99.4120   27.2547 C   0  0  0  0  0  0
   50.6265   98.3337   26.3487 C   0  0  0  0  0  0
   50.0431   98.6146   25.2094 N   0  0  0  0  0  0
   49.7040   99.8963   25.3263 N   0  0  0  0  0  0
   50.0438  100.4274   26.5414 C   0  0  0  0  0  0
   51.7921  100.5196   29.3162 C   0  0  0  0  0  0
   52.3450  100.3569   30.5940 C   0  0  0  0  0  0
   51.8512  101.9036   28.6769 C   0  0  0  0  0  0
   50.6746  102.5231   28.8019 F   0  0  0  0  0  0
   52.7949  102.6812   29.2105 F   0  0  0  0  0  0
   54.6248   96.7824   34.2461 C   0  0  0  0  0  0
   54.6167   95.5778   33.5292 C   0  0  0  0  0  0
   54.1249   94.4067   34.1022 C   0  0  0  0  0  0
   53.6426   94.4198   35.4067 C   0  0  0  0  0  0
   53.6432   95.6071   36.1340 C   0  0  0  0  0  0
   54.1248   96.7852   35.5615 C   0  0  0  0  0  0
   54.0803   97.9132   36.3046 F   0  0  0  0  0  0
   56.3028   98.8887   35.2014 H   0  0  0  0  0  0
   56.1333   99.9670   33.8290 H   0  0  0  0  0  0
   54.7705   99.7166   34.9015 H   0  0  0  0  0  0
   56.0931   97.7032   33.0464 H   0  0  0  0  0  0
   54.6612   98.3138   31.5090 H   0  0  0  0  0  0
   51.7818   97.0385   31.0424 H   0  0  0  0  0  0
   50.8215   97.2906   28.8324 H   0  0  0  0  0  0
   51.0198   97.3451   26.5299 H   0  0  0  0  0  0
   49.2343  100.3919   24.5799 H   0  0  0  0  0  0
   49.8064  101.4537   26.7773 H   0  0  0  0  0  0
   52.7929  101.2032   31.1000 H   0  0  0  0  0  0
   52.0912  101.8368   27.6157 H   0  0  0  0  0  0
   54.9888   95.5481   32.5154 H   0  0  0  0  0  0
   54.1188   93.4877   33.5374 H   0  0  0  0  0  0
   53.2632   93.5108   35.8502 H   0  0  0  0  0  0
   53.2604   95.6209   37.1435 H   0  0  0  0  0  0
  1  2  1  0  0  0
  1 27  1  0  0  0
  1 28  1  0  0  0
  1 29  1  0  0  0
  2  3  1  0  0  0
  2 20  1  0  0  0
  2 30  1  0  0  0
  3  4  1  0  0  0
  3 31  1  0  0  0
  4  5  2  0  0  0
  4  6  1  0  0  0
  6  7  2  0  0  0
  6 16  1  0  0  0
  7  8  1  0  0  0
  7 32  1  0  0  0
  8  9  2  0  0  0
  8 33  1  0  0  0
  9 10  1  0  0  0
  9 15  1  0  0  0
 10 11  1  0  0  0
 10 14  2  0  0  0
 11 12  2  0  0  0
 11 34  1  0  0  0
 12 13  1  0  0  0
 13 14  1  0  0  0
 13 35  1  0  0  0
 14 36  1  0  0  0
 15 16  2  0  0  0
 15 17  1  0  0  0
 16 37  1  0  0  0
 17 18  1  0  0  0
 17 19  1  0  0  0
 17 38  1  0  0  0
 20 21  2  0  0  0
 20 25  1  0  0  0
 21 22  1  0  0  0
 21 39  1  0  0  0
 22 23  2  0  0  0
 22 40  1  0  0  0
 23 24  1  0  0  0
 23 41  1  0  0  0
 24 25  2  0  0  0
 24 42  1  0  0  0
 25 26  1  0  0  0
M  END
> <s_m_entry_id>
28434

> <s_m_entry_name>
dock_pv.595

> <s_m_Source_Path>
/home/csk/Desktop/cluster/DUD-E-result/rock1

> <s_m_Source_File>
dock_pv.maegz

> <i_m_Source_File_Index>
595

> <chembl_id>
CHEMBL3899293

> <chembl_pref_name>
None

> <i_lp_mmshare_version>
53161

> <r_lp_tautomer_probability>
0.5

> <s_lp_Force_Field>
OPLS_2005

> <r_lp_Energy>
20.474038

> <b_lp_Chiralities_Consistent>
1

> <s_lp_Variant>
CHEMBL3231_lig843-1

> <s_i_glide_gridfile>
glide-grid_2etr

> <i_i_glide_lignum>
1188

> <i_i_glide_rotatable_bonds>
6

> <r_i_docking_score>
-7.22592407298981

> <r_i_glide_ligand_efficiency>
-0.277920156653454

> <r_i_glide_ligand_efficiency_sa>
-0.823337370522848

> <r_i_glide_ligand_efficiency_ln>
-1.69698455835088

> <r_i_glide_gscore>
-7.22592407298981

> <r_i_glide_lipo>
-2.37278044656281

> <r_i_glide_hbond>
-0.0803221074136573

> <r_i_glide_metal>
0

> <r_i_glide_rewards>
-2.61917534946933

> <r_i_glide_evdw>
-41.5942039489746

> <r_i_glide_ecoul>
-4.12399625778198

> <r_i_glide_erotb>
0.59371137588012

> <r_i_glide_esite>
-0.0490479093081055

> <r_i_glide_emodel>
-57.629062051291

> <r_i_glide_energy>
-45.7182002067566

> <r_i_glide_einternal>
17.6124210357666

> <i_i_glide_confnum>
4

> <i_i_glide_posenum>
119

> <r_i_glide_eff_state_penalty>
0

> <s_user_duplicate_titles>
CHEMBL3231_lig843,CHEMBL3231_lig845

> <i_f3d_flags>
0

> <s_m_subgroup_title>
dock_pv

> <s_m_subgroupid>
dock_pv

> <b_m_subgroup_collapsed>
1

$$$$
CHEMBL3231_lig1174
                    3D
 Schrodinger Suite 2021-1.
 20 22  0  0  1  0            999 V2000
   50.1370  104.8067   28.4110 Br  0  0  0  0  0  0
   50.0226   99.3359   25.4219 N   0  0  0  0  0  0
   50.0430   98.0150   25.2110 N   0  0  0  0  0  0
   50.4874   99.6711   26.6623 C   0  0  0  0  0  0
   50.7204  100.8048   27.5488 C   0  0  0  0  0  0
   50.8491   98.4961   27.2446 C   0  0  0  0  0  0
   51.2923  100.2714   28.7097 C   0  0  0  0  0  0
   51.4129   98.7522   28.6165 C   0  0  0  0  0  0
   50.4430  102.1583   27.4377 C   0  0  0  0  0  0
   50.5290   97.5030   26.3186 C   0  0  0  0  0  0
   51.6412  101.1351   29.7523 C   0  0  0  0  0  0
   50.7059  102.9974   28.5150 C   0  0  0  0  0  0
   51.3369  102.4980   29.6586 C   0  0  0  0  0  0
   49.6813   99.9885   24.7295 H   0  0  0  0  0  0
   50.8430   98.2500   29.3983 H   0  0  0  0  0  0
   52.4430   98.4187   28.7114 H   0  0  0  0  0  0
   49.9803  102.5569   26.5478 H   0  0  0  0  0  0
   50.6634   96.4391   26.4404 H   0  0  0  0  0  0
   52.1060  100.7552   30.6505 H   0  0  0  0  0  0
   51.5720  103.1560   30.4815 H   0  0  0  0  0  0
  1 12  1  0  0  0
  2  3  1  0  0  0
  2  4  1  0  0  0
  2 14  1  0  0  0
  3 10  2  0  0  0
  4  5  1  0  0  0
  4  6  2  0  0  0
  5  7  1  0  0  0
  5  9  2  0  0  0
  6  8  1  0  0  0
  6 10  1  0  0  0
  7  8  1  0  0  0
  7 11  2  0  0  0
  8 15  1  0  0  0
  8 16  1  0  0  0
  9 12  1  0  0  0
  9 17  1  0  0  0
 10 18  1  0  0  0
 11 13  1  0  0  0
 11 19  1  0  0  0
 12 13  2  0  0  0
 13 20  1  0  0  0
M  END
> <s_m_entry_id>
28436

> <s_m_entry_name>
dock_pv.597

> <s_m_Source_Path>
/home/csk/Desktop/cluster/DUD-E-result/rock1

> <s_m_Source_File>
dock_pv.maegz

> <i_m_Source_File_Index>
597

> <chembl_id>
CHEMBL1995172

> <chembl_pref_name>
None

> <i_lp_mmshare_version>
53161

> <r_lp_tautomer_probability>
0.5

> <s_lp_Force_Field>
OPLS_2005

> <r_lp_Energy>
40.180146

> <b_lp_Chiralities_Consistent>
1

> <s_lp_Variant>
CHEMBL3231_lig1174-1

> <s_i_glide_gridfile>
glide-grid_2etr

> <i_i_glide_lignum>
1624

> <i_i_glide_rotatable_bonds>
0

> <r_i_docking_score>
-7.22416718188226

> <r_i_glide_ligand_efficiency>
-0.555705167837097

> <r_i_glide_ligand_efficiency_sa>
-1.30664883616389

> <r_i_glide_ligand_efficiency_ln>
-2.02644314336805

> <r_i_glide_gscore>
-7.22416718188226

> <r_i_glide_lipo>
-2.11987130576675

> <r_i_glide_hbond>
-0.32

> <r_i_glide_metal>
0

> <r_i_glide_rewards>
-3.0896061969697

> <r_i_glide_evdw>
-27.0622386932373

> <r_i_glide_ecoul>
-2.27718496322632

> <r_i_glide_erotb>
0

> <r_i_glide_esite>
0

> <r_i_glide_emodel>
-41.729925569625

> <r_i_glide_energy>
-29.3394236564636

> <r_i_glide_einternal>
0

> <i_i_glide_confnum>
1

> <i_i_glide_posenum>
25

> <r_i_glide_eff_state_penalty>
0

> <s_user_duplicate_titles>
CHEMBL3231_lig1174

> <i_f3d_flags>
0

> <s_m_subgroup_title>
dock_pv

> <s_m_subgroupid>
dock_pv

> <b_m_subgroup_collapsed>
1

$$$$
CHEMBL3231_lig565
                    3D
 Schrodinger Suite 2021-1.
 35 37  0  0  1  0            999 V2000
   52.6386  102.5573   32.6798 O   0  0  0  0  0  0
   53.6235  102.0568   32.1321 C   0  0  0  0  0  0
   54.8098  101.9007   32.7417 N   0  0  0  0  0  0
   55.0545  102.0942   34.1775 C   0  0  0  0  0  0
   54.9903  103.5261   34.7203 C   0  0  0  0  0  0
   54.9271  104.6496   33.8828 C   0  0  0  0  0  0
   54.8420  105.9182   34.4534 C   0  0  0  0  0  0
   54.8205  106.1237   35.7961 N   0  0  0  0  0  0
   54.8675  105.0316   36.6011 C   0  0  0  0  0  0
   54.9606  103.7286   36.1061 C   0  0  0  0  0  0
   53.6441  101.5726   30.8735 N   0  0  0  0  0  0
   52.6087  101.6743   29.9549 C   0  0  0  0  0  0
   52.3643  100.7373   29.0707 N   0  0  0  0  0  0
   51.3833  101.0571   28.2371 C   0  0  0  0  0  0
   50.8403  102.3279   28.4418 C   0  0  0  0  0  0
   51.6312  103.1040   29.7741 S   0  0  0  0  0  0
   50.9310  100.0939   27.1893 C   0  0  0  0  0  0
   50.9750   98.7103   27.4030 C   0  0  0  0  0  0
   50.5176   97.8580   26.4001 C   0  0  0  0  0  0
   50.0442   98.3037   25.2108 N   0  0  0  0  0  0
   50.0196   99.6437   25.0047 C   0  0  0  0  0  0
   50.4411  100.5656   25.9645 C   0  0  0  0  0  0
   55.6199  101.6987   32.1712 H   0  0  0  0  0  0
   56.0429  101.6973   34.4154 H   0  0  0  0  0  0
   54.3506  101.4745   34.7371 H   0  0  0  0  0  0
   54.9263  104.5529   32.8072 H   0  0  0  0  0  0
   54.7719  106.7971   33.8263 H   0  0  0  0  0  0
   54.8335  105.2171   37.6661 H   0  0  0  0  0  0
   54.9983  102.8899   36.7861 H   0  0  0  0  0  0
   54.4745  101.0847   30.5681 H   0  0  0  0  0  0
   50.0457  102.8185   27.8976 H   0  0  0  0  0  0
   51.3450   98.3025   28.3328 H   0  0  0  0  0  0
   50.5309   96.7866   26.5438 H   0  0  0  0  0  0
   49.6441   99.9766   24.0494 H   0  0  0  0  0  0
   50.3948  101.6238   25.7519 H   0  0  0  0  0  0
  1  2  2  0  0  0
  2  3  1  0  0  0
  2 11  1  0  0  0
  3  4  1  0  0  0
  3 23  1  0  0  0
  4  5  1  0  0  0
  4 24  1  0  0  0
  4 25  1  0  0  0
  5  6  2  0  0  0
  5 10  1  0  0  0
  6  7  1  0  0  0
  6 26  1  0  0  0
  7  8  2  0  0  0
  7 27  1  0  0  0
  8  9  1  0  0  0
  9 10  2  0  0  0
  9 28  1  0  0  0
 10 29  1  0  0  0
 11 12  1  0  0  0
 11 30  1  0  0  0
 12 13  2  0  0  0
 12 16  1  0  0  0
 13 14  1  0  0  0
 14 15  2  0  0  0
 14 17  1  0  0  0
 15 16  1  0  0  0
 15 31  1  0  0  0
 17 18  2  0  0  0
 17 22  1  0  0  0
 18 19  1  0  0  0
 18 32  1  0  0  0
 19 20  2  0  0  0
 19 33  1  0  0  0
 20 21  1  0  0  0
 21 22  2  0  0  0
 21 34  1  0  0  0
 22 35  1  0  0  0
M  END
> <s_m_entry_id>
28437

> <s_m_entry_name>
dock_pv.598

> <s_m_Source_Path>
/home/csk/Desktop/cluster/DUD-E-result/rock1

> <s_m_Source_File>
dock_pv.maegz

> <i_m_Source_File_Index>
598

> <chembl_id>
CHEMBL3973907

> <chembl_pref_name>
None

> <i_lp_mmshare_version>
53161

> <r_lp_tautomer_probability>
0.999000488399163

> <s_lp_Force_Field>
OPLS_2005

> <r_lp_Energy>
2.874176

> <b_lp_Chiralities_Consistent>
1

> <s_lp_Variant>
CHEMBL3231_lig565-1

> <s_i_glide_gridfile>
glide-grid_2etr

> <i_i_glide_lignum>
843

> <i_i_glide_rotatable_bonds>
6

> <r_i_docking_score>
-7.22409581585592

> <r_i_glide_ligand_efficiency>
-0.328367991629815

> <r_i_glide_ligand_efficiency_sa>
-0.920100026527037

> <r_i_glide_ligand_efficiency_ln>
-1.76583252269252

> <r_i_glide_gscore>
-7.22409581585592

> <r_i_glide_lipo>
-2.08710976602501

> <r_i_glide_hbond>
-0.333860365085051

> <r_i_glide_metal>
0

> <r_i_glide_rewards>
-2.60460564135661

> <r_i_glide_evdw>
-38.5685997009277

> <r_i_glide_ecoul>
-7.67296028137207

> <r_i_glide_erotb>
0.956411501823036

> <r_i_glide_esite>
-0.0755575179600894

> <r_i_glide_emodel>
-67.0441940190949

> <r_i_glide_energy>
-46.2415599822998

> <r_i_glide_einternal>
2.54456877708435

> <i_i_glide_confnum>
6

> <i_i_glide_posenum>
376

> <r_i_glide_eff_state_penalty>
0

> <s_user_duplicate_titles>
CHEMBL3231_lig565

> <i_f3d_flags>
0

> <s_m_subgroup_title>
dock_pv

> <s_m_subgroupid>
dock_pv

> <b_m_subgroup_collapsed>
1

$$$$
CHEMBL3231_lig910
                    3D
 Schrodinger Suite 2021-1.
 34 36  0  0  1  0            999 V2000
   54.8177  101.1314   33.6809 C   0  0  0  0  0  0
   53.4651  101.0631   32.9209 C   0  0  2  0  0  0
   52.3913  100.1953   33.6237 C   0  0  0  0  0  0
   53.7838  100.3811   31.6489 N   0  0  0  0  0  0
   52.9504  102.4298   32.6355 N   0  0  0  0  0  0
   52.1819  102.7989   31.5831 C   0  0  0  0  0  0
   52.8684  100.5676   30.6375 C   0  0  0  0  0  0
   52.1230  101.7422   30.6119 C   0  0  0  0  0  0
   51.1276  101.8129   29.1923 S   0  0  0  0  0  0
   51.6371  100.2206   28.6922 C   0  0  0  0  0  0
   52.5803   99.7047   29.5817 C   0  0  0  0  0  0
   51.0504   99.5859   27.4744 C   0  0  0  0  0  0
   50.9741   98.1900   27.4114 C   0  0  0  0  0  0
   50.4445   97.5899   26.2717 C   0  0  0  0  0  0
   50.0002   98.3037   25.2109 N   0  0  0  0  0  0
   50.0545   99.6561   25.2800 C   0  0  0  0  0  0
   50.5735  100.3314   26.3846 C   0  0  0  0  0  0
   51.6468  103.9024   31.5483 O   0  0  0  0  0  0
   54.8315  101.9063   35.0196 C   0  0  0  0  0  0
   53.9880  101.3886   35.9127 F   0  0  0  0  0  0
   54.5024  103.1893   34.8570 F   0  0  0  0  0  0
   56.0429  101.8835   35.5665 F   0  0  0  0  0  0
   55.5699  101.5910   33.0339 H   0  0  0  0  0  0
   55.1824  100.1213   33.8747 H   0  0  0  0  0  0
   51.4926  100.0763   33.0192 H   0  0  0  0  0  0
   52.7703   99.1959   33.8474 H   0  0  0  0  0  0
   52.0730  100.6403   34.5655 H   0  0  0  0  0  0
   54.3512   99.5494   31.7295 H   0  0  0  0  0  0
   53.0685  103.1305   33.3504 H   0  0  0  0  0  0
   53.0515   98.7411   29.4615 H   0  0  0  0  0  0
   51.3204   97.5717   28.2271 H   0  0  0  0  0  0
   50.3903   96.5138   26.1919 H   0  0  0  0  0  0
   49.6860  100.1978   24.4193 H   0  0  0  0  0  0
   50.6149  101.4109   26.3835 H   0  0  0  0  0  0
  1  2  1  0  0  0
  1 19  1  0  0  0
  1 23  1  0  0  0
  1 24  1  0  0  0
  2  3  1  0  0  0
  2  4  1  0  0  0
  2  5  1  0  0  0
  3 25  1  0  0  0
  3 26  1  0  0  0
  3 27  1  0  0  0
  4  7  1  0  0  0
  4 28  1  0  0  0
  5  6  1  0  0  0
  5 29  1  0  0  0
  6  8  1  0  0  0
  6 18  2  0  0  0
  7  8  2  0  0  0
  7 11  1  0  0  0
  8  9  1  0  0  0
  9 10  1  0  0  0
 10 11  2  0  0  0
 10 12  1  0  0  0
 11 30  1  0  0  0
 12 13  2  0  0  0
 12 17  1  0  0  0
 13 14  1  0  0  0
 13 31  1  0  0  0
 14 15  2  0  0  0
 14 32  1  0  0  0
 15 16  1  0  0  0
 16 17  2  0  0  0
 16 33  1  0  0  0
 17 34  1  0  0  0
 19 20  1  0  0  0
 19 21  1  0  0  0
 19 22  1  0  0  0
M  END
> <s_m_entry_id>
28438

> <s_m_entry_name>
dock_pv.599

> <s_m_Source_Path>
/home/csk/Desktop/cluster/DUD-E-result/rock1

> <s_m_Source_File>
dock_pv.maegz

> <i_m_Source_File_Index>
599

> <chembl_id>
CHEMBL4202743

> <chembl_pref_name>
None

> <i_lp_mmshare_version>
53161

> <r_lp_tautomer_probability>
0.99999637101317

> <s_lp_Force_Field>
OPLS_2005

> <r_lp_Energy>
22.71429

> <b_lp_Chiralities_Consistent>
1

> <s_lp_Variant>
CHEMBL3231_lig910-1

> <s_i_glide_gridfile>
glide-grid_2etr

> <i_i_glide_lignum>
1304

> <i_i_glide_rotatable_bonds>
3

> <r_i_docking_score>
-7.2228371408212

> <r_i_glide_ligand_efficiency>
-0.328310779128237

> <r_i_glide_ligand_efficiency_sa>
-0.919939714847575

> <r_i_glide_ligand_efficiency_ln>
-1.76552485660275

> <r_i_glide_gscore>
-7.2228371408212

> <r_i_glide_lipo>
-2.03608133648145

> <r_i_glide_hbond>
-0.387067681575876

> <r_i_glide_metal>
0

> <r_i_glide_rewards>
-2.54332039355294

> <r_i_glide_evdw>
-33.3786315917969

> <r_i_glide_ecoul>
-5.24566841125488

> <r_i_glide_erotb>
0.35031340277003

> <r_i_glide_esite>
-0.150899290702894

> <r_i_glide_emodel>
-55.8639818399147

> <r_i_glide_energy>
-38.6243000030518

> <r_i_glide_einternal>
1.17497563362122

> <i_i_glide_confnum>
2

> <i_i_glide_posenum>
11

> <r_i_glide_eff_state_penalty>
0

> <s_user_duplicate_titles>
CHEMBL3231_lig910

> <i_f3d_flags>
0

> <s_m_subgroup_title>
dock_pv

> <s_m_subgroupid>
dock_pv

> <b_m_subgroup_collapsed>
1

$$$$
CHEMBL3231_lig823
                    3D
 Schrodinger Suite 2021-1.
 46 48  0  0  1  0            999 V2000
   52.8023  103.1764   29.3970 C   0  0  0  0  0  0
   51.6810  102.2204   28.9401 C   0  0  2  0  0  0
   50.4448  102.8657   29.1810 O   0  0  0  0  0  0
   51.7411  100.8123   29.5504 C   0  0  0  0  0  0
   52.1869  100.6794   30.8742 C   0  0  0  0  0  0
   52.3162   99.4300   31.5015 C   0  0  0  0  0  0
   51.9625   98.2926   30.7689 C   0  0  0  0  0  0
   51.4989   98.4058   29.4593 C   0  0  0  0  0  0
   51.3808   99.6522   28.8274 C   0  0  0  0  0  0
   50.8458   99.6268   27.4187 C   0  0  0  0  0  0
   50.0531  100.5492   26.7451 C   0  0  0  0  0  0
   49.8297  100.0407   25.4934 N   0  0  0  0  0  0
   50.3979   98.8494   25.3135 N   0  0  0  0  0  0
   51.0029   98.6116   26.4545 C   0  0  0  0  0  0
   52.7859   99.3000   32.9388 C   0  0  0  0  0  0
   52.8427   98.1992   33.4871 O   0  0  0  0  0  0
   53.0698  100.4528   33.5769 N   0  0  0  0  0  0
   53.1031  100.7559   35.0138 C   0  0  2  0  0  0
   53.4782   99.5993   35.9654 C   0  0  0  0  0  0
   51.8228  101.4695   35.4559 C   0  0  0  0  0  0
   51.9046  102.7297   36.0569 C   0  0  0  0  0  0
   50.7446  103.4059   36.4254 C   0  0  0  0  0  0
   49.5011  102.8209   36.2002 C   0  0  0  0  0  0
   48.3796  103.4849   36.5559 F   0  0  0  0  0  0
   49.4069  101.5626   35.6108 C   0  0  0  0  0  0
   50.5665  100.8864   35.2383 C   0  0  0  0  0  0
   53.7852  102.7198   29.2608 H   0  0  0  0  0  0
   52.7950  104.0966   28.8115 H   0  0  0  0  0  0
   52.7102  103.4750   30.4414 H   0  0  0  0  0  0
   51.8081  102.1157   27.8654 H   0  0  0  0  0  0
   50.4581  103.7047   28.7135 H   0  0  0  0  0  0
   52.4299  101.5743   31.4235 H   0  0  0  0  0  0
   52.0319   97.3076   31.2122 H   0  0  0  0  0  0
   51.2201   97.4999   28.9431 H   0  0  0  0  0  0
   49.6432  101.5029   27.0358 H   0  0  0  0  0  0
   49.2884  100.4881   24.7656 H   0  0  0  0  0  0
   51.5652   97.7018   26.5965 H   0  0  0  0  0  0
   53.1661  101.2637   32.9876 H   0  0  0  0  0  0
   53.9255  101.4685   35.0893 H   0  0  0  0  0  0
   53.6616   99.9710   36.9741 H   0  0  0  0  0  0
   52.6866   98.8530   36.0304 H   0  0  0  0  0  0
   54.3856   99.0948   35.6357 H   0  0  0  0  0  0
   52.8646  103.1927   36.2350 H   0  0  0  0  0  0
   50.8065  104.3829   36.8822 H   0  0  0  0  0  0
   48.4372  101.1166   35.4432 H   0  0  0  0  0  0
   50.4886   99.9111   34.7785 H   0  0  0  0  0  0
  1  2  1  0  0  0
  1 27  1  0  0  0
  1 28  1  0  0  0
  1 29  1  0  0  0
  2  3  1  0  0  0
  2  4  1  0  0  0
  2 30  1  0  0  0
  3 31  1  0  0  0
  4  5  2  0  0  0
  4  9  1  0  0  0
  5  6  1  0  0  0
  5 32  1  0  0  0
  6  7  2  0  0  0
  6 15  1  0  0  0
  7  8  1  0  0  0
  7 33  1  0  0  0
  8  9  2  0  0  0
  8 34  1  0  0  0
  9 10  1  0  0  0
 10 11  2  0  0  0
 10 14  1  0  0  0
 11 12  1  0  0  0
 11 35  1  0  0  0
 12 13  1  0  0  0
 12 36  1  0  0  0
 13 14  2  0  0  0
 14 37  1  0  0  0
 15 16  2  0  0  0
 15 17  1  0  0  0
 17 18  1  0  0  0
 17 38  1  0  0  0
 18 19  1  0  0  0
 18 20  1  0  0  0
 18 39  1  0  0  0
 19 40  1  0  0  0
 19 41  1  0  0  0
 19 42  1  0  0  0
 20 21  2  0  0  0
 20 26  1  0  0  0
 21 22  1  0  0  0
 21 43  1  0  0  0
 22 23  2  0  0  0
 22 44  1  0  0  0
 23 24  1  0  0  0
 23 25  1  0  0  0
 25 26  2  0  0  0
 25 45  1  0  0  0
 26 46  1  0  0  0
M  END
> <s_m_entry_id>
28439

> <s_m_entry_name>
dock_pv.600

> <s_m_Source_Path>
/home/csk/Desktop/cluster/DUD-E-result/rock1

> <s_m_Source_File>
dock_pv.maegz

> <i_m_Source_File_Index>
600

> <chembl_id>
CHEMBL4114269

> <chembl_pref_name>
None

> <i_lp_mmshare_version>
53161

> <r_lp_tautomer_probability>
0.5

> <s_lp_Force_Field>
OPLS_2005

> <r_lp_Energy>
22.035494

> <b_lp_Chiralities_Consistent>
1

> <s_lp_Variant>
CHEMBL3231_lig823-1

> <s_i_glide_gridfile>
glide-grid_2etr

> <i_i_glide_lignum>
1151

> <i_i_glide_rotatable_bonds>
7

> <r_i_docking_score>
-7.22268498978026

> <r_i_glide_ligand_efficiency>
-0.27779557653001

> <r_i_glide_ligand_efficiency_sa>
-0.822968302397344

> <r_i_glide_ligand_efficiency_ln>
-1.69622387028742

> <r_i_glide_gscore>
-7.22268498978026

> <r_i_glide_lipo>
-3.02115886267215

> <r_i_glide_hbond>
0

> <r_i_glide_metal>
0

> <r_i_glide_rewards>
-2.40160437914405

> <r_i_glide_evdw>
-44.025203704834

> <r_i_glide_ecoul>
-2.28801655769348

> <r_i_glide_erotb>
0.764556650594955

> <r_i_glide_esite>
-0.0200157296633001

> <r_i_glide_emodel>
-63.8844197934121

> <r_i_glide_energy>
-46.3132202625275

> <r_i_glide_einternal>
6.1971607208252

> <i_i_glide_confnum>
38

> <i_i_glide_posenum>
362

> <r_i_glide_eff_state_penalty>
0

> <s_user_duplicate_titles>
CHEMBL3231_lig823,CHEMBL3231_lig824

> <i_f3d_flags>
0

> <s_m_subgroup_title>
dock_pv

> <s_m_subgroupid>
dock_pv

> <b_m_subgroup_collapsed>
1

$$$$
CHEMBL3231_lig2009
                    3D
 Schrodinger Suite 2021-1.
 27 29  0  0  1  0            999 V2000
   53.1056   99.6425   32.8481 N   0  0  0  0  0  0
   53.6729  100.8536   32.7161 N   0  0  0  0  0  0
   50.4377   98.0490   25.6120 N   0  0  0  0  0  0
   52.7686  100.5303   30.7308 C   0  0  0  0  0  0
   52.5467   99.4349   31.6191 C   0  0  0  0  0  0
   51.5370   99.3667   28.9971 C   0  0  0  0  0  0
   53.5152  101.4651   31.4952 C   0  0  0  0  0  0
   52.2686  100.4831   29.4235 C   0  0  0  0  0  0
   50.9857   99.3262   27.6112 C   0  0  0  0  0  0
   51.8252   98.3139   31.1887 C   0  0  0  0  0  0
   51.3274   98.3029   29.8864 C   0  0  0  0  0  0
   50.9057   98.1301   26.8830 C   0  0  0  0  0  0
   50.5275  100.4889   26.9711 C   0  0  0  0  0  0
   54.0429  102.8473   31.1871 C   0  0  0  0  0  0
   50.0433  100.4311   25.6654 C   0  0  0  0  0  0
   50.0233   99.1966   25.0209 C   0  0  0  0  0  0
   54.1847  101.2703   33.4801 H   0  0  0  0  0  0
   52.4574  101.3069   28.7512 H   0  0  0  0  0  0
   51.6556   97.4755   31.8484 H   0  0  0  0  0  0
   50.7597   97.4396   29.5706 H   0  0  0  0  0  0
   51.2423   97.1982   27.3121 H   0  0  0  0  0  0
   50.5419  101.4413   27.4801 H   0  0  0  0  0  0
   54.4416  102.9012   30.1732 H   0  0  0  0  0  0
   54.8524  103.1463   31.8543 H   0  0  0  0  0  0
   53.2643  103.6068   31.2647 H   0  0  0  0  0  0
   49.6837  101.3221   25.1734 H   0  0  0  0  0  0
   49.6486   99.1138   24.0113 H   0  0  0  0  0  0
  1  2  1  0  0  0
  1  5  2  0  0  0
  2 17  1  0  0  0
  2  7  1  0  0  0
  3 12  2  0  0  0
  3 16  1  0  0  0
  4  8  1  0  0  0
  4  5  1  0  0  0
  4  7  2  0  0  0
  5 10  1  0  0  0
  6 11  1  0  0  0
  6  9  1  0  0  0
  6  8  2  0  0  0
  7 14  1  0  0  0
  8 18  1  0  0  0
  9 12  1  0  0  0
  9 13  2  0  0  0
 10 19  1  0  0  0
 10 11  2  0  0  0
 11 20  1  0  0  0
 12 21  1  0  0  0
 13 15  1  0  0  0
 13 22  1  0  0  0
 14 23  1  0  0  0
 14 24  1  0  0  0
 14 25  1  0  0  0
 15 16  2  0  0  0
 15 26  1  0  0  0
 16 27  1  0  0  0
M  END
> <s_m_entry_id>
28441

> <s_m_entry_name>
dock_pv.602

> <s_m_Source_Path>
/home/csk/Desktop/cluster/DUD-E-result/rock1

> <s_m_Source_File>
dock_pv.maegz

> <i_m_Source_File_Index>
602

> <chembl_id>
CHEMBL1967252

> <chembl_pref_name>
None

> <i_lp_mmshare_version>
53161

> <r_lp_tautomer_probability>
0.0196078431372549

> <s_lp_Force_Field>
OPLS_2005

> <r_lp_Energy>
25.319241

> <b_lp_Chiralities_Consistent>
1

> <s_lp_Variant>
CHEMBL3231_lig2009-2

> <s_i_glide_gridfile>
glide-grid_2etr

> <i_i_glide_lignum>
2921

> <i_i_glide_rotatable_bonds>
1

> <r_i_docking_score>
-7.22240977582589

> <r_i_glide_ligand_efficiency>
-0.451400610989118

> <r_i_glide_ligand_efficiency_sa>
-1.13745826238996

> <r_i_glide_ligand_efficiency_ln>
-1.91444398199281

> <r_i_glide_gscore>
-7.22240977582589

> <r_i_glide_lipo>
-2.27874314706428

> <r_i_glide_hbond>
-0.0711893300964683

> <r_i_glide_metal>
0

> <r_i_glide_rewards>
-3.33240995454545

> <r_i_glide_evdw>
-30.7153263092041

> <r_i_glide_ecoul>
-2.44931030273438

> <r_i_glide_erotb>
0.378619475647315

> <r_i_glide_esite>
-0.01552395889664

> <r_i_glide_emodel>
-47.6478942474912

> <r_i_glide_energy>
-33.1646366119385

> <r_i_glide_einternal>
0.0304736420512199

> <i_i_glide_confnum>
1

> <i_i_glide_posenum>
390

> <r_i_glide_eff_state_penalty>
0

> <s_user_duplicate_titles>
CHEMBL3231_lig2009,CHEMBL3231_lig2009

> <i_f3d_flags>
0

> <s_m_subgroup_title>
dock_pv

> <s_m_subgroupid>
dock_pv

> <b_m_subgroup_collapsed>
1

$$$$
CHEMBL3231_lig1796
                    3D
 Schrodinger Suite 2021-1.
 49 52  0  0  1  0            999 V2000
   50.0432   98.2358   25.2110 O   0  0  0  0  0  0
   52.8435   98.0583   33.4835 O   0  0  0  0  0  0
   52.1159   99.4412   31.1214 N   0  0  0  0  0  0
   52.6389   99.9684   32.2495 N   0  0  0  0  0  0
   51.3505   99.7875   28.8767 C   0  0  0  0  0  0
   50.8931  100.6707   27.8635 C   0  0  0  0  0  0
   51.9236  100.2881   30.1737 C   0  0  0  0  0  0
   50.4699  100.1500   26.6190 C   0  0  0  0  0  0
   50.4463   98.7673   26.4076 C   0  0  0  0  0  0
   51.2982   98.4036   28.6239 C   0  0  0  0  0  0
   51.7629  101.9787   34.8715 C   0  0  0  0  0  0
   50.8853  102.1723   28.1524 C   0  0  0  0  0  0
   53.0997  101.5826   34.5302 C   0  0  0  0  0  0
   52.1733  101.8201   30.2999 C   0  0  0  0  0  0
   50.8456   97.9031   27.4112 C   0  0  0  0  0  0
   51.4186  103.3683   34.8031 C   0  0  0  0  0  0
   52.1339  102.5499   28.9525 C   0  0  0  0  0  0
   53.5210  100.1023   34.5359 C   0  0  0  0  0  0
   52.9581   99.2788   33.3601 C   0  0  0  0  0  0
   54.0306  102.5495   34.1419 C   0  0  0  0  0  0
   50.7538  101.0597   35.2801 C   0  0  0  0  0  0
   52.3967  104.3072   34.3906 C   0  0  0  0  0  0
   50.0540  101.0840   25.4828 C   0  0  0  0  0  0
   50.1065  103.7812   35.1493 C   0  0  0  0  0  0
   53.6823  103.8913   34.0648 C   0  0  0  0  0  0
   49.4750  101.4994   35.6094 C   0  0  0  0  0  0
   49.1535  102.8486   35.5480 C   0  0  0  0  0  0
   49.7869   98.9352   24.6036 H   0  0  0  0  0  0
   52.7903  100.9661   32.2219 H   0  0  0  0  0  0
   51.6375   97.6908   29.3646 H   0  0  0  0  0  0
   50.8428  102.7713   27.2489 H   0  0  0  0  0  0
   49.9933  102.4207   28.7274 H   0  0  0  0  0  0
   51.3966  102.2407   30.9399 H   0  0  0  0  0  0
   53.1323  102.0197   30.7803 H   0  0  0  0  0  0
   50.8422   96.8383   27.2365 H   0  0  0  0  0  0
   52.1606  103.6287   29.1133 H   0  0  0  0  0  0
   53.0383  102.3031   28.3967 H   0  0  0  0  0  0
   53.2342   99.6449   35.4835 H   0  0  0  0  0  0
   54.6077  100.0189   34.4828 H   0  0  0  0  0  0
   55.0369  102.2583   33.8747 H   0  0  0  0  0  0
   50.9736  100.0045   35.3482 H   0  0  0  0  0  0
   52.1422  105.3559   34.3261 H   0  0  0  0  0  0
   49.4363  101.9035   25.8404 H   0  0  0  0  0  0
   49.4555  100.6011   24.7106 H   0  0  0  0  0  0
   50.9492  101.5030   25.0223 H   0  0  0  0  0  0
   49.8521  104.8305   35.1094 H   0  0  0  0  0  0
   54.4138  104.6191   33.7439 H   0  0  0  0  0  0
   48.7289  100.7855   35.9253 H   0  0  0  0  0  0
   48.1583  103.1715   35.8150 H   0  0  0  0  0  0
  1  9  1  0  0  0
  1 28  1  0  0  0
  2 19  2  0  0  0
  3  4  1  0  0  0
  3  7  2  3  0  0
  4 19  1  0  0  0
  4 29  1  0  0  0
  5  6  2  0  0  0
  5  7  1  0  0  0
  5 10  1  0  0  0
  6  8  1  0  0  0
  6 12  1  0  0  0
  7 14  1  0  0  0
  8  9  2  0  0  0
  8 23  1  0  0  0
  9 15  1  0  0  0
 10 15  2  0  0  0
 10 30  1  0  0  0
 11 13  1  0  0  0
 11 16  1  0  0  0
 11 21  2  0  0  0
 12 17  1  0  0  0
 12 31  1  0  0  0
 12 32  1  0  0  0
 13 18  1  0  0  0
 13 20  2  0  0  0
 14 17  1  0  0  0
 14 33  1  0  0  0
 14 34  1  0  0  0
 15 35  1  0  0  0
 16 22  1  0  0  0
 16 24  2  0  0  0
 17 36  1  0  0  0
 17 37  1  0  0  0
 18 19  1  0  0  0
 18 38  1  0  0  0
 18 39  1  0  0  0
 20 25  1  0  0  0
 20 40  1  0  0  0
 21 26  1  0  0  0
 21 41  1  0  0  0
 22 25  2  0  0  0
 22 42  1  0  0  0
 23 43  1  0  0  0
 23 44  1  0  0  0
 23 45  1  0  0  0
 24 27  1  0  0  0
 24 46  1  0  0  0
 25 47  1  0  0  0
 26 27  2  0  0  0
 26 48  1  0  0  0
 27 49  1  0  0  0
M  END
> <s_m_entry_id>
28442

> <s_m_entry_name>
dock_pv.603

> <s_m_Source_Path>
/home/csk/Desktop/cluster/DUD-E-result/rock1

> <s_m_Source_File>
dock_pv.maegz

> <i_m_Source_File_Index>
603

> <chembl_id>
CHEMBL1972659

> <chembl_pref_name>
None

> <i_lp_mmshare_version>
53161

> <r_lp_tautomer_probability>
1

> <s_lp_Force_Field>
OPLS_2005

> <r_lp_Energy>
26.762364

> <b_lp_Chiralities_Consistent>
1

> <s_lp_Variant>
CHEMBL3231_lig1796-1

> <s_i_glide_gridfile>
glide-grid_2etr

> <i_i_glide_lignum>
2572

> <i_i_glide_rotatable_bonds>
5

> <r_i_docking_score>
-7.21863866619839

> <r_i_glide_ligand_efficiency>
-0.267356987636978

> <r_i_glide_ligand_efficiency_sa>
-0.802070962029768

> <r_i_glide_ligand_efficiency_ln>
-1.68038007293155

> <r_i_glide_gscore>
-7.21863866619839

> <r_i_glide_lipo>
-3.20905746453568

> <r_i_glide_hbond>
-0.265403374565518

> <r_i_glide_metal>
0

> <r_i_glide_rewards>
-1.7938002626464

> <r_i_glide_evdw>
-41.0051956176758

> <r_i_glide_ecoul>
-2.19108200073242

> <r_i_glide_erotb>
0.44730476290996

> <r_i_glide_esite>
-0.0187602463670959

> <r_i_glide_emodel>
-58.8949374445161

> <r_i_glide_energy>
-43.1962776184082

> <r_i_glide_einternal>
7.13823556900024

> <i_i_glide_confnum>
2

> <i_i_glide_posenum>
266

> <r_i_glide_eff_state_penalty>
0

> <s_user_duplicate_titles>
CHEMBL3231_lig1796

> <i_f3d_flags>
0

> <s_m_subgroup_title>
dock_pv

> <s_m_subgroupid>
dock_pv

> <b_m_subgroup_collapsed>
1

$$$$
CHEMBL3231_lig684
                    3D
 Schrodinger Suite 2021-1.
 43 45  0  0  1  0            999 V2000
   51.9483  107.3456   36.0101 C   0  0  0  0  0  0
   51.7060  106.0671   36.5914 O   0  0  0  0  0  0
   52.1607  104.9376   35.9391 C   0  0  0  0  0  0
   51.8791  103.7071   36.5359 C   0  0  0  0  0  0
   52.2900  102.5150   35.9394 C   0  0  0  0  0  0
   52.9838  102.5408   34.7310 C   0  0  0  0  0  0
   53.2809  103.7635   34.1135 C   0  0  0  0  0  0
   52.8755  104.9545   34.7275 C   0  0  0  0  0  0
   54.0182  103.8071   32.7658 C   0  0  1  0  0  0
   55.5047  103.4696   32.9563 C   0  0  0  0  0  0
   53.4411  102.9738   31.6987 N   0  0  0  0  0  0
   52.1435  102.9303   31.3408 C   0  0  0  0  0  0
   51.2433  103.5030   31.9545 O   0  0  0  0  0  0
   51.8114  102.1292   30.1101 C   0  0  0  0  0  0
   52.2741  100.8101   29.9809 C   0  0  0  0  0  0
   51.9054  100.0310   28.8839 C   0  0  0  0  0  0
   51.0840  100.5626   27.8874 C   0  0  0  0  0  0
   50.6659  101.8897   27.9883 C   0  0  0  0  0  0
   51.0196  102.6744   29.0788 C   0  0  0  0  0  0
   50.4435  104.3072   29.0832 Cl  0  0  0  0  0  0
   50.6114   99.7530   26.7302 C   0  0  0  0  0  0
   50.0727  100.2133   25.5360 C   0  0  0  0  0  0
   49.7584   99.1032   24.8109 N   0  0  0  0  0  0
   50.0499   97.9635   25.4430 N   0  0  0  0  0  0
   50.5692   98.3540   26.5849 C   0  0  0  0  0  0
   51.5153  108.1196   36.6435 H   0  0  0  0  0  0
   53.0174  107.5501   35.9209 H   0  0  0  0  0  0
   51.4885  107.4315   35.0232 H   0  0  0  0  0  0
   51.3343  103.6802   37.4678 H   0  0  0  0  0  0
   52.0680  101.5699   36.4114 H   0  0  0  0  0  0
   53.2886  101.6136   34.2677 H   0  0  0  0  0  0
   53.1059  105.8938   34.2427 H   0  0  0  0  0  0
   53.9753  104.8343   32.3914 H   0  0  0  0  0  0
   55.9901  104.1777   33.6292 H   0  0  0  0  0  0
   55.6414  102.4711   33.3728 H   0  0  0  0  0  0
   56.0427  103.5028   32.0101 H   0  0  0  0  0  0
   54.1120  102.5834   31.0502 H   0  0  0  0  0  0
   52.8953  100.3682   30.7490 H   0  0  0  0  0  0
   52.2542   99.0110   28.8192 H   0  0  0  0  0  0
   50.0445  102.3245   27.2195 H   0  0  0  0  0  0
   49.8783  101.2025   25.1537 H   0  0  0  0  0  0
   49.3415   99.1220   23.8871 H   0  0  0  0  0  0
   50.9022   97.6322   27.3161 H   0  0  0  0  0  0
  1  2  1  0  0  0
  1 26  1  0  0  0
  1 27  1  0  0  0
  1 28  1  0  0  0
  2  3  1  0  0  0
  3  4  2  0  0  0
  3  8  1  0  0  0
  4  5  1  0  0  0
  4 29  1  0  0  0
  5  6  2  0  0  0
  5 30  1  0  0  0
  6  7  1  0  0  0
  6 31  1  0  0  0
  7  8  2  0  0  0
  7  9  1  0  0  0
  8 32  1  0  0  0
  9 10  1  0  0  0
  9 11  1  0  0  0
  9 33  1  0  0  0
 10 34  1  0  0  0
 10 35  1  0  0  0
 10 36  1  0  0  0
 11 12  1  0  0  0
 11 37  1  0  0  0
 12 13  2  0  0  0
 12 14  1  0  0  0
 14 15  2  0  0  0
 14 19  1  0  0  0
 15 16  1  0  0  0
 15 38  1  0  0  0
 16 17  2  0  0  0
 16 39  1  0  0  0
 17 18  1  0  0  0
 17 21  1  0  0  0
 18 19  2  0  0  0
 18 40  1  0  0  0
 19 20  1  0  0  0
 21 22  2  0  0  0
 21 25  1  0  0  0
 22 23  1  0  0  0
 22 41  1  0  0  0
 23 24  1  0  0  0
 23 42  1  0  0  0
 24 25  2  0  0  0
 25 43  1  0  0  0
M  END
> <s_m_entry_id>
28443

> <s_m_entry_name>
dock_pv.604

> <s_m_Source_Path>
/home/csk/Desktop/cluster/DUD-E-result/rock1

> <s_m_Source_File>
dock_pv.maegz

> <i_m_Source_File_Index>
604

> <chembl_id>
CHEMBL4106851

> <chembl_pref_name>
None

> <i_lp_mmshare_version>
53161

> <r_lp_tautomer_probability>
0.5

> <s_lp_Force_Field>
OPLS_2005

> <r_lp_Energy>
21.873142

> <b_lp_Chiralities_Consistent>
1

> <s_lp_Variant>
CHEMBL3231_lig684-1

> <s_i_glide_gridfile>
glide-grid_2etr

> <i_i_glide_lignum>
977

> <i_i_glide_rotatable_bonds>
6

> <r_i_docking_score>
-7.21861981581195

> <r_i_glide_ligand_efficiency>
-0.288744792632478

> <r_i_glide_ligand_efficiency_sa>
-0.844294894568067

> <r_i_glide_ligand_efficiency_ln>
-1.71102922092699

> <r_i_glide_gscore>
-7.21861981581195

> <r_i_glide_lipo>
-1.92736141427375

> <r_i_glide_hbond>
-0.635146508841783

> <r_i_glide_metal>
0

> <r_i_glide_rewards>
-1.71835440756557

> <r_i_glide_evdw>
-38.3917198181152

> <r_i_glide_ecoul>
-9.75240325927734

> <r_i_glide_erotb>
0.528707090090174

> <r_i_glide_esite>
-0.0840180954236603

> <r_i_glide_emodel>
-67.7187945370994

> <r_i_glide_energy>
-48.1441230773926

> <r_i_glide_einternal>
5.70439767837524

> <i_i_glide_confnum>
79

> <i_i_glide_posenum>
313

> <r_i_glide_eff_state_penalty>
0

> <s_user_duplicate_titles>
CHEMBL3231_lig684

> <i_f3d_flags>
0

> <s_m_subgroup_title>
dock_pv

> <s_m_subgroupid>
dock_pv

> <b_m_subgroup_collapsed>
1

$$$$
CHEMBL3231_lig1741
                    3D
 Schrodinger Suite 2021-1.
 33 36  0  0  1  0            999 V2000
   51.5043  101.0220   28.4390 C   0  0  0  0  0  0
   50.8433  101.9029   27.5748 C   0  0  0  0  0  0
   50.2514  101.4922   26.3825 C   0  0  0  0  0  0
   51.4688   99.6439   28.1734 C   0  0  0  0  0  0
   50.8510   99.1907   26.9991 C   0  0  0  0  0  0
   50.2806  100.1284   26.1068 C   0  0  0  0  0  0
   50.0428   98.0777   25.2116 N   0  0  0  0  0  0
   50.6082   97.9313   26.3786 C   0  0  0  0  0  0
   52.2978  101.5706   29.5949 C   0  0  0  0  0  0
   52.8690  100.7514   30.4651 N   0  0  0  0  0  0
   52.5814  102.9214   29.8373 C   0  0  0  0  0  0
   53.6430  103.0828   31.2012 S   0  0  0  0  0  0
   53.6094  101.3607   31.3602 C   0  0  0  0  0  0
   54.5501   99.4408   32.7098 C   0  0  0  0  0  0
   55.6374   99.1360   33.5340 C   0  0  0  0  0  0
   55.8665   97.8244   33.9421 C   0  0  0  0  0  0
   55.0034   96.8117   33.5299 C   0  0  0  0  0  0
   53.9074   97.1028   32.7222 C   0  0  0  0  0  0
   53.6770   98.4155   32.3149 C   0  0  0  0  0  0
   54.3896  100.7895   32.3409 N   0  0  0  0  0  0
   49.8297   99.3920   25.0325 N   0  0  0  0  0  0
   50.8439  102.9610   27.7879 H   0  0  0  0  0  0
   49.7952  102.2024   25.7092 H   0  0  0  0  0  0
   51.9495   98.9405   28.8369 H   0  0  0  0  0  0
   50.8474   96.9484   26.7531 H   0  0  0  0  0  0
   52.2869  103.7952   29.2779 H   0  0  0  0  0  0
   56.3269   99.9061   33.8516 H   0  0  0  0  0  0
   56.7182   97.5941   34.5640 H   0  0  0  0  0  0
   55.1873   95.7929   33.8395 H   0  0  0  0  0  0
   53.2430   96.3084   32.4128 H   0  0  0  0  0  0
   52.8152   98.6110   31.6992 H   0  0  0  0  0  0
   55.0936  101.3709   32.7739 H   0  0  0  0  0  0
   49.3827   99.7300   24.1883 H   0  0  0  0  0  0
  1  2  2  0  0  0
  1  4  1  0  0  0
  1  9  1  0  0  0
  2  3  1  0  0  0
  2 22  1  0  0  0
  3  6  2  0  0  0
  3 23  1  0  0  0
  4  5  2  0  0  0
  4 24  1  0  0  0
  5  6  1  0  0  0
  5  8  1  0  0  0
  6 21  1  0  0  0
  7  8  2  0  0  0
  7 21  1  0  0  0
  8 25  1  0  0  0
  9 10  1  0  0  0
  9 11  2  0  0  0
 10 13  2  0  0  0
 11 12  1  0  0  0
 11 26  1  0  0  0
 12 13  1  0  0  0
 13 20  1  0  0  0
 14 15  2  0  0  0
 14 19  1  0  0  0
 14 20  1  0  0  0
 15 16  1  0  0  0
 15 27  1  0  0  0
 16 17  2  0  0  0
 16 28  1  0  0  0
 17 18  1  0  0  0
 17 29  1  0  0  0
 18 19  2  0  0  0
 18 30  1  0  0  0
 19 31  1  0  0  0
 20 32  1  0  0  0
 21 33  1  0  0  0
M  END
> <s_m_entry_id>
28444

> <s_m_entry_name>
dock_pv.605

> <s_m_Source_Path>
/home/csk/Desktop/cluster/DUD-E-result/rock1

> <s_m_Source_File>
dock_pv.maegz

> <i_m_Source_File_Index>
605

> <chembl_id>
CHEMBL1682545

> <chembl_pref_name>
None

> <i_lp_mmshare_version>
53161

> <r_lp_tautomer_probability>
0.980392156862745

> <s_lp_Force_Field>
OPLS_2005

> <r_lp_Energy>
13.451003

> <b_lp_Chiralities_Consistent>
1

> <s_lp_Variant>
CHEMBL3231_lig1741-1

> <s_i_glide_gridfile>
glide-grid_2etr

> <i_i_glide_lignum>
2478

> <i_i_glide_rotatable_bonds>
3

> <r_i_docking_score>
-7.21633003834243

> <r_i_glide_ligand_efficiency>
-0.343634763730592

> <r_i_glide_ligand_efficiency_sa>
-0.948062256539212

> <r_i_glide_ligand_efficiency_ln>
-1.78422302001231

> <r_i_glide_gscore>
-7.21633003834243

> <r_i_glide_lipo>
-2.11925166418478

> <r_i_glide_hbond>
-0.491300892457311

> <r_i_glide_metal>
0

> <r_i_glide_rewards>
-2.64626953027645

> <r_i_glide_evdw>
-37.2419509887695

> <r_i_glide_ecoul>
-3.42122197151184

> <r_i_glide_erotb>
0.448522843228739

> <r_i_glide_esite>
-0.0327499494873684

> <r_i_glide_emodel>
-57.8262009417262

> <r_i_glide_energy>
-40.6631729602814

> <r_i_glide_einternal>
0.193453013896942

> <i_i_glide_confnum>
2

> <i_i_glide_posenum>
174

> <r_i_glide_eff_state_penalty>
0

> <s_user_duplicate_titles>
CHEMBL3231_lig1741

> <i_f3d_flags>
0

> <s_m_subgroup_title>
dock_pv

> <s_m_subgroupid>
dock_pv

> <b_m_subgroup_collapsed>
1

$$$$
CHEMBL3231_lig1729
                    3D
 Schrodinger Suite 2021-1.
 28 30  0  0  1  0            999 V2000
   53.7658  100.3796   32.4492 S   0  0  0  0  0  0
   50.0430   98.3029   24.7978 F   0  0  0  0  0  0
   54.8116  103.1906   32.6514 O   0  0  0  0  0  0
   51.6284   97.3607   30.8190 N   0  0  0  0  0  0
   54.0430  103.9030   30.6760 N   0  0  0  0  0  0
   52.4508   99.9659   30.1799 C   0  0  0  0  0  0
   52.8207   99.3391   31.4086 C   0  0  0  0  0  0
   51.6385   99.2350   29.2693 C   0  0  0  0  0  0
   53.6428  101.6758   31.2805 C   0  0  0  0  0  0
   52.9958  101.2806   30.1135 C   0  0  0  0  0  0
   51.1579   99.7422   27.9507 C   0  0  0  0  0  0
   52.4221   98.0305   31.6740 C   0  0  0  0  0  0
   51.2431   97.9560   29.6804 C   0  0  0  0  0  0
   54.2102  102.9628   31.6036 C   0  0  0  0  0  0
   50.9435   98.8343   26.9052 C   0  0  0  0  0  0
   50.8239  101.0864   27.7284 C   0  0  0  0  0  0
   50.3616   99.2349   25.7122 C   0  0  0  0  0  0
   50.3213  101.5041   26.4954 C   0  0  0  0  0  0
   50.0683  100.5743   25.4899 C   0  0  0  0  0  0
   53.6171  103.7001   29.7886 H   0  0  0  0  0  0
   54.5513  104.7764   30.8111 H   0  0  0  0  0  0
   52.8889  101.9175   29.2528 H   0  0  0  0  0  0
   52.7015   97.5191   32.5843 H   0  0  0  0  0  0
   50.5858   97.3466   29.0781 H   0  0  0  0  0  0
   51.1796   97.7872   27.0212 H   0  0  0  0  0  0
   50.9100  101.8175   28.5150 H   0  0  0  0  0  0
   50.0678  102.5431   26.3395 H   0  0  0  0  0  0
   49.6216  100.8798   24.5544 H   0  0  0  0  0  0
  1  7  1  0  0  0
  1  9  1  0  0  0
  2 17  1  0  0  0
  3 14  2  0  0  0
  4 12  1  0  0  0
  4 13  2  0  0  0
  5 14  1  0  0  0
  5 20  1  0  0  0
  5 21  1  0  0  0
  6  7  1  0  0  0
  6  8  2  0  0  0
  6 10  1  0  0  0
  7 12  2  0  0  0
  8 11  1  0  0  0
  8 13  1  0  0  0
  9 10  2  0  0  0
  9 14  1  0  0  0
 10 22  1  0  0  0
 11 15  1  0  0  0
 11 16  2  0  0  0
 12 23  1  0  0  0
 13 24  1  0  0  0
 15 17  2  0  0  0
 15 25  1  0  0  0
 16 18  1  0  0  0
 16 26  1  0  0  0
 17 19  1  0  0  0
 18 19  2  0  0  0
 18 27  1  0  0  0
 19 28  1  0  0  0
M  END
> <s_m_entry_id>
28445

> <s_m_entry_name>
dock_pv.606

> <s_m_Source_Path>
/home/csk/Desktop/cluster/DUD-E-result/rock1

> <s_m_Source_File>
dock_pv.maegz

> <i_m_Source_File_Index>
606

> <chembl_id>
CHEMBL1971017

> <chembl_pref_name>
None

> <i_lp_mmshare_version>
53161

> <r_lp_tautomer_probability>
1

> <s_lp_Force_Field>
OPLS_2005

> <r_lp_Energy>
9.996012

> <b_lp_Chiralities_Consistent>
1

> <s_lp_Variant>
CHEMBL3231_lig1729-1

> <s_i_glide_gridfile>
glide-grid_2etr

> <i_i_glide_lignum>
2465

> <i_i_glide_rotatable_bonds>
2

> <r_i_docking_score>
-7.21630122895725

> <r_i_glide_ligand_efficiency>
-0.379805327839855

> <r_i_glide_ligand_efficiency_sa>
-1.01347316200655

> <r_i_glide_ligand_efficiency_ln>
-1.82948735347967

> <r_i_glide_gscore>
-7.21630122895725

> <r_i_glide_lipo>
-2.34348989651919

> <r_i_glide_hbond>
-0.32

> <r_i_glide_metal>
0

> <r_i_glide_rewards>
-2.36953994962848

> <r_i_glide_evdw>
-31.7944812774658

> <r_i_glide_ecoul>
-4.92201900482178

> <r_i_glide_erotb>
0.241673844682956

> <r_i_glide_esite>
-0.0969183128959857

> <r_i_glide_emodel>
-51.3815561961988

> <r_i_glide_energy>
-36.7165002822876

> <r_i_glide_einternal>
2.0391218662262

> <i_i_glide_confnum>
2

> <i_i_glide_posenum>
294

> <r_i_glide_eff_state_penalty>
0

> <s_user_duplicate_titles>
CHEMBL3231_lig1729

> <i_f3d_flags>
0

> <s_m_subgroup_title>
dock_pv

> <s_m_subgroupid>
dock_pv

> <b_m_subgroup_collapsed>
1

$$$$
CHEMBL3231_lig164
                    3D
 Schrodinger Suite 2021-1.
 45 48  0  0  1  0            999 V2000
   49.6431   99.3718   24.8110 N   0  0  0  0  0  0
   50.0430   98.3301   25.5603 N   0  0  0  0  0  0
   49.8700  100.6100   25.3461 C   0  0  0  0  0  0
   50.5091  100.3615   26.5843 C   0  0  0  0  0  0
   50.5753   98.9378   26.6647 C   0  0  0  0  0  0
   51.1442   98.3261   27.7897 C   0  0  0  0  0  0
   51.6430   99.1372   28.8098 C   0  0  0  0  0  0
   51.6008  100.5381   28.7458 C   0  0  0  0  0  0
   51.0260  101.1476   27.6196 C   0  0  0  0  0  0
   52.1723  101.3857   29.8410 C   0  0  0  0  0  0
   51.7559  102.7017   30.0729 C   0  0  0  0  0  0
   53.1457  100.8400   30.6246 N   0  0  0  0  0  0
   53.7329  101.5947   31.6028 C   0  0  0  0  0  0
   53.3271  102.9435   31.7654 C   0  0  0  0  0  0
   52.3284  103.4806   31.0205 N   0  0  0  0  0  0
   53.9601  103.8475   32.6212 N   0  0  0  0  0  0
   54.7306  100.9616   32.3837 N   0  0  0  0  0  0
   54.6675  101.0131   33.8469 C   0  0  0  0  0  0
   53.6994  100.0337   34.5241 C   0  0  0  0  0  0
   55.4777   99.8154   31.8439 C   0  0  0  0  0  0
   54.0123   98.5386   34.3578 C   0  0  0  0  0  0
   55.0422   98.3528   32.0983 C   0  0  0  0  0  0
   53.9302   98.0219   32.9930 N   0  0  1  0  0  0
   53.6432   96.5906   32.9490 C   0  0  0  0  0  0
   49.1998   99.2400   23.9088 H   0  0  0  0  0  0
   49.5629  101.4987   24.8130 H   0  0  0  0  0  0
   51.2007   97.2510   27.8706 H   0  0  0  0  0  0
   52.0798   98.6532   29.6723 H   0  0  0  0  0  0
   50.9867  102.2220   27.5298 H   0  0  0  0  0  0
   50.9728  103.1645   29.4936 H   0  0  0  0  0  0
   54.8384  103.5604   33.0277 H   0  0  0  0  0  0
   53.7651  104.8336   32.4923 H   0  0  0  0  0  0
   54.3672  102.0064   34.1673 H   0  0  0  0  0  0
   55.6805  100.9419   34.2437 H   0  0  0  0  0  0
   52.6630  100.2548   34.2691 H   0  0  0  0  0  0
   53.7579  100.2407   35.5936 H   0  0  0  0  0  0
   56.5026   99.9031   32.2073 H   0  0  0  0  0  0
   55.6426   99.9295   30.7727 H   0  0  0  0  0  0
   54.9833   98.2909   34.7916 H   0  0  0  0  0  0
   53.2504   98.0362   34.9576 H   0  0  0  0  0  0
   55.9315   97.8938   32.5373 H   0  0  0  0  0  0
   54.9488   97.8421   31.1381 H   0  0  0  0  0  0
   54.5126   96.0061   33.2531 H   0  0  0  0  0  0
   52.8229   96.3199   33.6113 H   0  0  0  0  0  0
   53.3638   96.2871   31.9401 H   0  0  0  0  0  0
  1 25  1  0  0  0
  1  2  1  0  0  0
  1  3  1  0  0  0
  2  5  2  0  0  0
  3  4  2  0  0  0
  3 26  1  0  0  0
  4  9  1  0  0  0
  4  5  1  0  0  0
  5  6  1  0  0  0
  6 27  1  0  0  0
  6  7  2  0  0  0
  7 28  1  0  0  0
  7  8  1  0  0  0
  8 10  1  0  0  0
  8  9  2  0  0  0
  9 29  1  0  0  0
 10 12  1  0  0  0
 10 11  2  0  0  0
 11 15  1  0  0  0
 11 30  1  0  0  0
 12 13  2  0  0  0
 13 14  1  0  0  0
 13 17  1  0  0  0
 14 15  2  0  0  0
 14 16  1  0  0  0
 16 31  1  0  0  0
 16 32  1  0  0  0
 17 18  1  0  0  0
 17 20  1  0  0  0
 18 19  1  0  0  0
 18 33  1  0  0  0
 18 34  1  0  0  0
 19 21  1  0  0  0
 19 35  1  0  0  0
 19 36  1  0  0  0
 20 22  1  0  0  0
 20 37  1  0  0  0
 20 38  1  0  0  0
 21 23  1  0  0  0
 21 39  1  0  0  0
 21 40  1  0  0  0
 22 23  1  0  0  0
 22 41  1  0  0  0
 22 42  1  0  0  0
 23 24  1  0  0  0
 24 43  1  0  0  0
 24 44  1  0  0  0
 24 45  1  0  0  0
M  END
> <s_m_entry_id>
28446

> <s_m_entry_name>
dock_pv.607

> <s_m_Source_Path>
/home/csk/Desktop/cluster/DUD-E-result/rock1

> <s_m_Source_File>
dock_pv.maegz

> <i_m_Source_File_Index>
607

> <chembl_id>
CHEMBL590313

> <chembl_pref_name>
None

> <i_lp_mmshare_version>
53161

> <r_lp_tautomer_probability>
0.0196078412395234

> <s_lp_Force_Field>
OPLS_2005

> <r_lp_Energy>
55.914218

> <b_lp_Chiralities_Consistent>
1

> <s_lp_Variant>
CHEMBL3231_lig164-2

> <s_i_glide_gridfile>
glide-grid_2etr

> <i_i_glide_lignum>
290

> <i_i_glide_rotatable_bonds>
2

> <r_i_docking_score>
-7.21088280961891

> <r_i_glide_ligand_efficiency>
-0.300453450400788

> <r_i_glide_ligand_efficiency_sa>
-0.866657718557734

> <r_i_glide_ligand_efficiency_ln>
-1.72589514219313

> <r_i_glide_gscore>
-7.21088280961891

> <r_i_glide_lipo>
-2.1252722103597

> <r_i_glide_hbond>
-0.32

> <r_i_glide_metal>
0

> <r_i_glide_rewards>
-2.42078798484848

> <r_i_glide_evdw>
-38.9321441650391

> <r_i_glide_ecoul>
-4.48129892349243

> <r_i_glide_erotb>
0.357862156708167

> <r_i_glide_esite>
-0.0838827243430735

> <r_i_glide_emodel>
-62.1029707593193

> <r_i_glide_energy>
-43.4134430885315

> <r_i_glide_einternal>
0.266902297735214

> <i_i_glide_confnum>
74

> <i_i_glide_posenum>
102

> <r_i_glide_eff_state_penalty>
0

> <s_user_duplicate_titles>
CHEMBL3231_lig164

> <i_f3d_flags>
0

> <s_m_subgroup_title>
dock_pv

> <s_m_subgroupid>
dock_pv

> <b_m_subgroup_collapsed>
1

$$$$
CHEMBL3231_lig50
                    3D
 Schrodinger Suite 2021-1.
 44 47  0  0  1  0            999 V2000
   55.0375   99.0978   30.4499 C   0  0  0  0  0  0
   54.4706   99.4501   31.8231 C   0  0  0  0  0  0
   53.3158  100.1344   32.0646 C   0  0  0  0  0  0
   52.8996  100.3192   33.5384 C   0  0  1  0  0  0
   54.1659  100.3557   34.4530 C   0  0  0  0  0  0
   55.1695   99.2239   34.1296 C   0  0  0  0  0  0
   55.8369   98.6409   34.9780 O   0  0  0  0  0  0
   55.2975   98.9919   32.8061 N   0  0  0  0  0  0
   51.9903  101.4985   33.9039 C   0  0  0  0  0  0
   52.4045  102.8159   33.6733 C   0  0  0  0  0  0
   51.6086  103.8888   34.0731 C   0  0  0  0  0  0
   50.3865  103.6569   34.7066 C   0  0  0  0  0  0
   49.4327  105.0111   35.2077 Cl  0  0  0  0  0  0
   49.9576  102.3405   34.9249 C   0  0  0  0  0  0
   48.4434  101.9985   35.6824 Cl  0  0  0  0  0  0
   50.7614  101.2713   34.5300 C   0  0  0  0  0  0
   52.3849  100.4958   31.0062 C   0  0  0  0  0  0
   52.0014  101.6519   30.8267 O   0  0  0  0  0  0
   52.0129   99.4320   30.2608 N   0  0  0  0  0  0
   51.4268   99.3864   28.9856 C   0  0  0  0  0  0
   51.1123   98.1115   28.5118 C   0  0  0  0  0  0
   50.6423   97.9026   27.2172 C   0  0  0  0  0  0
   50.4630   99.0077   26.3851 C   0  0  0  0  0  0
   50.0223   99.0001   25.0937 N   0  0  0  0  0  0
   50.0120  100.3028   24.7787 N   0  0  0  0  0  0
   50.4417  101.1513   25.7681 C   0  0  0  0  0  0
   50.7542  100.3198   26.8652 C   0  0  0  0  0  0
   51.2422  100.5103   28.1651 C   0  0  0  0  0  0
   55.1013   98.0170   30.3214 H   0  0  0  0  0  0
   54.4791   99.5022   29.6101 H   0  0  0  0  0  0
   56.0428   99.5030   30.3586 H   0  0  0  0  0  0
   52.3648   99.3982   33.7851 H   0  0  0  0  0  0
   54.7569  101.2539   34.2661 H   0  0  0  0  0  0
   53.9123  100.2860   35.5112 H   0  0  0  0  0  0
   56.0795   98.3954   32.5585 H   0  0  0  0  0  0
   53.3516  103.0083   33.1886 H   0  0  0  0  0  0
   51.9517  104.8994   33.8979 H   0  0  0  0  0  0
   50.4261  100.2621   34.7195 H   0  0  0  0  0  0
   52.2772   98.5349   30.6362 H   0  0  0  0  0  0
   51.2435   97.2478   29.1481 H   0  0  0  0  0  0
   50.4351   96.9056   26.8577 H   0  0  0  0  0  0
   49.7002  100.6081   23.8644 H   0  0  0  0  0  0
   50.4762  102.2187   25.6123 H   0  0  0  0  0  0
   51.4926  101.5065   28.4930 H   0  0  0  0  0  0
  1  2  1  0  0  0
  1 29  1  0  0  0
  1 30  1  0  0  0
  1 31  1  0  0  0
  2  3  2  0  0  0
  2  8  1  0  0  0
  3  4  1  0  0  0
  3 17  1  0  0  0
  4  5  1  0  0  0
  4  9  1  0  0  0
  4 32  1  0  0  0
  5  6  1  0  0  0
  5 33  1  0  0  0
  5 34  1  0  0  0
  6  7  2  0  0  0
  6  8  1  0  0  0
  8 35  1  0  0  0
  9 10  2  0  0  0
  9 16  1  0  0  0
 10 11  1  0  0  0
 10 36  1  0  0  0
 11 12  2  0  0  0
 11 37  1  0  0  0
 12 13  1  0  0  0
 12 14  1  0  0  0
 14 15  1  0  0  0
 14 16  2  0  0  0
 16 38  1  0  0  0
 17 18  2  0  0  0
 17 19  1  0  0  0
 19 39  1  0  0  0
 19 20  1  0  0  0
 20 21  1  0  0  0
 20 28  2  0  0  0
 21 22  2  0  0  0
 21 40  1  0  0  0
 22 23  1  0  0  0
 22 41  1  0  0  0
 23 24  2  0  0  0
 23 27  1  0  0  0
 24 25  1  0  0  0
 25 42  1  0  0  0
 25 26  1  0  0  0
 26 27  2  0  0  0
 26 43  1  0  0  0
 27 28  1  0  0  0
 28 44  1  0  0  0
M  END
> <s_m_entry_id>
28447

> <s_m_entry_name>
dock_pv.608

> <s_m_Source_Path>
/home/csk/Desktop/cluster/DUD-E-result/rock1

> <s_m_Source_File>
dock_pv.maegz

> <i_m_Source_File_Index>
608

> <chembl_id>
CHEMBL374453

> <chembl_pref_name>
GSK-299115A

> <i_lp_mmshare_version>
53161

> <r_lp_tautomer_probability>
0.019607843137214

> <s_lp_Force_Field>
OPLS_2005

> <r_lp_Energy>
46.882632

> <b_lp_Chiralities_Consistent>
1

> <s_lp_Variant>
CHEMBL3231_lig50-4

> <s_i_glide_gridfile>
glide-grid_2etr

> <i_i_glide_lignum>
74

> <i_i_glide_rotatable_bonds>
4

> <r_i_docking_score>
-7.21065665725948

> <r_i_glide_ligand_efficiency>
-0.257523452044982

> <r_i_glide_ligand_efficiency_sa>
-0.781992873610555

> <r_i_glide_ligand_efficiency_ln>
-1.6644312705745

> <r_i_glide_gscore>
-7.21065665725948

> <r_i_glide_lipo>
-2.53327486151918

> <r_i_glide_hbond>
-0.20439004107794

> <r_i_glide_metal>
0

> <r_i_glide_rewards>
-1.78230878385252

> <r_i_glide_evdw>
-44.7875480651855

> <r_i_glide_ecoul>
-5.42605686187744

> <r_i_glide_erotb>
0.457990856015161

> <r_i_glide_esite>
-0.0953878942841115

> <r_i_glide_emodel>
-69.6229626469792

> <r_i_glide_energy>
-50.213604927063

> <r_i_glide_einternal>
4.72957706451416

> <i_i_glide_confnum>
11

> <i_i_glide_posenum>
294

> <r_i_glide_eff_state_penalty>
0

> <s_user_duplicate_titles>
CHEMBL3231_lig50,CHEMBL3231_lig50,365460

> <i_f3d_flags>
0

> <s_m_subgroup_title>
dock_pv

> <s_m_subgroupid>
dock_pv

> <b_m_subgroup_collapsed>
1

$$$$
CHEMBL3231_lig2099
                    3D
 Schrodinger Suite 2021-1.
 31 33  0  0  1  0            999 V2000
   50.0425   99.1883   25.0096 C   0  0  0  0  0  0
   50.2116   97.9087   25.4269 N   0  0  0  0  0  0
   50.6969   97.7189   26.6763 C   0  0  0  0  0  0
   51.0043   98.7633   27.5439 C   0  0  0  0  0  0
   50.7988  100.0808   27.1150 C   0  0  0  0  0  0
   50.3165  100.2918   25.8158 C   0  0  0  0  0  0
   51.0416  101.2339   28.0295 C   0  0  0  0  0  0
   51.8505  101.1169   29.0739 N   0  0  0  0  0  0
   51.8665  102.1932   29.8170 C   0  0  0  0  0  0
   50.9142  103.5131   29.2108 S   0  0  0  0  0  0
   50.4430  102.4884   27.9048 C   0  0  0  0  0  0
   52.6524  102.3084   30.9491 N   0  0  0  0  0  0
   52.2097  102.7817   32.1333 C   0  0  0  0  0  0
   53.2531  102.8564   33.2136 C   0  0  0  0  0  0
   51.0403  103.1029   32.3658 O   0  0  0  0  0  0
   54.5024  103.4417   32.9515 C   0  0  0  0  0  0
   55.4822  103.4873   33.9415 C   0  0  0  0  0  0
   55.2345  102.9401   35.1984 C   0  0  0  0  0  0
   53.9974  102.3578   35.4695 C   0  0  0  0  0  0
   53.0086  102.3120   34.4856 C   0  0  0  0  0  0
   51.8254  101.7216   34.7809 F   0  0  0  0  0  0
   49.6554   99.3265   24.0108 H   0  0  0  0  0  0
   50.8427   96.6985   26.9866 H   0  0  0  0  0  0
   51.3738   98.5465   28.5355 H   0  0  0  0  0  0
   50.1464  101.2875   25.4349 H   0  0  0  0  0  0
   49.7599  102.8413   27.1478 H   0  0  0  0  0  0
   53.5276  101.8045   30.9536 H   0  0  0  0  0  0
   54.7271  103.8729   31.9841 H   0  0  0  0  0  0
   56.4427  103.9266   33.7212 H   0  0  0  0  0  0
   56.0036  102.9567   35.9567 H   0  0  0  0  0  0
   53.8074  101.9279   36.4412 H   0  0  0  0  0  0
  1  2  2  0  0  0
  1  6  1  0  0  0
  1 22  1  0  0  0
  2  3  1  0  0  0
  3  4  2  0  0  0
  3 23  1  0  0  0
  4  5  1  0  0  0
  4 24  1  0  0  0
  5  6  2  0  0  0
  5  7  1  0  0  0
  6 25  1  0  0  0
  7  8  1  0  0  0
  7 11  2  0  0  0
  8  9  2  0  0  0
  9 10  1  0  0  0
  9 12  1  0  0  0
 10 11  1  0  0  0
 11 26  1  0  0  0
 12 13  1  0  0  0
 12 27  1  0  0  0
 13 14  1  0  0  0
 13 15  2  0  0  0
 14 16  2  0  0  0
 14 20  1  0  0  0
 16 17  1  0  0  0
 16 28  1  0  0  0
 17 18  2  0  0  0
 17 29  1  0  0  0
 18 19  1  0  0  0
 18 30  1  0  0  0
 19 20  2  0  0  0
 19 31  1  0  0  0
 20 21  1  0  0  0
M  END
> <s_m_entry_id>
28448

> <s_m_entry_name>
dock_pv.609

> <s_m_Source_Path>
/home/csk/Desktop/cluster/DUD-E-result/rock1

> <s_m_Source_File>
dock_pv.maegz

> <i_m_Source_File_Index>
609

> <chembl_id>
CHEMBL3581115

> <chembl_pref_name>
None

> <i_lp_mmshare_version>
53161

> <r_lp_tautomer_probability>
0.999000488399163

> <s_lp_Force_Field>
OPLS_2005

> <r_lp_Energy>
13.987373

> <b_lp_Chiralities_Consistent>
1

> <s_lp_Variant>
CHEMBL3231_lig2099-1

> <s_i_glide_gridfile>
glide-grid_2etr

> <i_i_glide_lignum>
3027

> <i_i_glide_rotatable_bonds>
4

> <r_i_docking_score>
-7.2095016136468

> <r_i_glide_ligand_efficiency>
-0.343309600649848

> <r_i_glide_ligand_efficiency_sa>
-0.94716515625539

> <r_i_glide_ligand_efficiency_ln>
-1.78253470580445

> <r_i_glide_gscore>
-7.2095016136468

> <r_i_glide_lipo>
-2.18150023965086

> <r_i_glide_hbond>
-0.317417388491526

> <r_i_glide_metal>
0

> <r_i_glide_rewards>
-2.75868628817196

> <r_i_glide_evdw>
-34.3526229858398

> <r_i_glide_ecoul>
-6.5938458442688

> <r_i_glide_erotb>
0.819897614358805

> <r_i_glide_esite>
-0.0650872857589434

> <r_i_glide_emodel>
-56.7685514063997

> <r_i_glide_energy>
-40.9464688301086

> <r_i_glide_einternal>
4.8228907585144

> <i_i_glide_confnum>
31

> <i_i_glide_posenum>
169

> <r_i_glide_eff_state_penalty>
0

> <s_user_duplicate_titles>
CHEMBL3231_lig2099

> <i_f3d_flags>
0

> <s_m_subgroup_title>
dock_pv

> <s_m_subgroupid>
dock_pv

> <b_m_subgroup_collapsed>
1

$$$$
CHEMBL3231_lig1056 
                    3D
 Schrodinger Suite 2021-1.
 62 65  0  0  1  0            999 V2000
   52.7710  101.7775   36.3418 C   0  0  0  0  0  0
   53.5010  100.6037   36.5230 C   0  0  0  0  0  0
   54.7095  100.4067   35.8551 C   0  0  0  0  0  0
   55.1700  101.4074   34.9819 C   0  0  0  0  0  0
   53.2481  102.7730   35.4883 C   0  0  0  0  0  0
   54.4584  102.5948   34.7883 C   0  0  0  0  0  0
   54.9649  103.7000   33.8665 C   0  0  0  0  0  0
   53.7693  104.5440   33.3471 C   0  0  2  0  0  0
   52.9727  104.9858   34.6061 C   0  0  0  0  0  0
   52.4147  103.8669   35.3144 O   0  0  0  0  0  0
   52.8696  103.7731   32.3424 C   0  0  0  0  0  0
   51.6426  103.9030   32.3758 O   0  0  0  0  0  0
   53.4876  102.9921   31.4354 N   0  0  0  0  0  0
   52.8473  102.2090   30.4605 C   0  0  0  0  0  0
   53.2422  100.8707   30.3065 C   0  0  0  0  0  0
   52.6063  100.1005   29.3181 C   0  0  0  0  0  0
   51.6443  100.6482   28.4545 C   0  0  0  0  0  0
   51.2733  101.9851   28.6383 C   0  0  0  0  0  0
   51.8709  102.7617   29.6230 C   0  0  0  0  0  0
   54.2038  100.3907   31.1772 O   0  0  0  0  0  0
   54.9463   99.1960   30.9086 C   0  0  0  0  0  0
   54.8282   98.2533   32.1278 C   0  0  0  0  0  0
   54.4337   96.8810   31.7793 N   0  0  0  0  0  0
   55.5281   96.1762   31.1100 C   0  0  0  0  0  0
   54.0661   96.1458   32.9874 C   0  0  0  0  0  0
   51.0626   99.8395   27.3454 C   0  0  0  0  0  0
   55.3779   99.2239   36.1050 O   0  0  0  0  0  0
   56.6985   99.0585   35.5936 C   0  0  0  0  0  0
   50.8538   98.4569   27.4805 C   0  0  0  0  0  0
   50.3594   97.7333   26.3963 C   0  0  0  0  0  0
   50.0426   98.3034   25.2109 N   0  0  0  0  0  0
   50.2226   99.6398   25.0851 C   0  0  0  0  0  0
   50.7382  100.4316   26.1127 C   0  0  0  0  0  0
   51.8292  101.9109   36.8541 H   0  0  0  0  0  0
   53.1286   99.8392   37.1889 H   0  0  0  0  0  0
   56.0929  101.2801   34.4450 H   0  0  0  0  0  0
   55.6160  104.3366   34.4653 H   0  0  0  0  0  0
   55.5868  103.2986   33.0625 H   0  0  0  0  0  0
   54.1307  105.4069   32.7864 H   0  0  0  0  0  0
   52.1882  105.6965   34.3488 H   0  0  0  0  0  0
   53.6407  105.5223   35.2790 H   0  0  0  0  0  0
   54.4784  102.8329   31.5374 H   0  0  0  0  0  0
   52.8640   99.0632   29.1943 H   0  0  0  0  0  0
   50.5256  102.4369   28.0037 H   0  0  0  0  0  0
   51.5920  103.7987   29.7207 H   0  0  0  0  0  0
   54.7178   98.6972   29.9719 H   0  0  0  0  0  0
   55.9868   99.5032   30.8023 H   0  0  0  0  0  0
   55.7797   98.2346   32.6655 H   0  0  0  0  0  0
   54.0981   98.6702   32.8260 H   0  0  0  0  0  0
   55.2583   95.1410   30.9006 H   0  0  0  0  0  0
   55.7637   96.6421   30.1528 H   0  0  0  0  0  0
   56.4379   96.1691   31.7147 H   0  0  0  0  0  0
   53.7616   95.1262   32.7477 H   0  0  0  0  0  0
   54.8953   96.0935   33.6963 H   0  0  0  0  0  0
   53.2214   96.6214   33.4885 H   0  0  0  0  0  0
   57.0901   98.0885   35.9041 H   0  0  0  0  0  0
   57.3721   99.8248   35.9800 H   0  0  0  0  0  0
   56.7215   99.0883   34.5031 H   0  0  0  0  0  0
   51.0815   97.9426   28.4026 H   0  0  0  0  0  0
   50.2119   96.6660   26.4633 H   0  0  0  0  0  0
   49.9672  100.0722   24.1282 H   0  0  0  0  0  0
   50.8896  101.4876   25.9438 H   0  0  0  0  0  0
  1  5  1  0  0  0
  1  2  2  0  0  0
  1 34  1  0  0  0
  2  3  1  0  0  0
  2 35  1  0  0  0
  3  4  2  0  0  0
  3 27  1  0  0  0
  4  6  1  0  0  0
  4 36  1  0  0  0
  5  6  2  0  0  0
  5 10  1  0  0  0
  6  7  1  0  0  0
  7  8  1  0  0  0
  7 37  1  0  0  0
  7 38  1  0  0  0
  8  9  1  0  0  0
  8 11  1  0  0  0
  8 39  1  0  0  0
  9 10  1  0  0  0
  9 40  1  0  0  0
  9 41  1  0  0  0
 11 12  2  0  0  0
 11 13  1  0  0  0
 13 14  1  0  0  0
 13 42  1  0  0  0
 14 15  2  0  0  0
 14 19  1  0  0  0
 15 16  1  0  0  0
 15 20  1  0  0  0
 16 17  2  0  0  0
 16 43  1  0  0  0
 17 18  1  0  0  0
 17 26  1  0  0  0
 18 19  2  0  0  0
 18 44  1  0  0  0
 19 45  1  0  0  0
 20 21  1  0  0  0
 21 22  1  0  0  0
 21 46  1  0  0  0
 21 47  1  0  0  0
 22 23  1  0  0  0
 22 48  1  0  0  0
 22 49  1  0  0  0
 23 24  1  0  0  0
 23 25  1  0  0  0
 24 50  1  0  0  0
 24 51  1  0  0  0
 24 52  1  0  0  0
 25 53  1  0  0  0
 25 54  1  0  0  0
 25 55  1  0  0  0
 26 29  2  0  0  0
 26 33  1  0  0  0
 27 28  1  0  0  0
 28 56  1  0  0  0
 28 57  1  0  0  0
 28 58  1  0  0  0
 29 30  1  0  0  0
 29 59  1  0  0  0
 30 31  2  0  0  0
 30 60  1  0  0  0
 31 32  1  0  0  0
 32 33  2  0  0  0
 32 61  1  0  0  0
 33 62  1  0  0  0
M  END
> <s_m_entry_id>
28449

> <s_m_entry_name>
dock_pv.610

> <s_m_Source_Path>
/home/csk/Desktop/cluster/DUD-E-result/rock1

> <s_m_Source_File>
dock_pv.maegz

> <i_m_Source_File_Index>
610

> <chembl_id>
CHEMBL4547623

> <chembl_pref_name>
None

> <i_lp_mmshare_version>
53161

> <r_lp_tautomer_probability>
1

> <s_lp_Force_Field>
OPLS_2005

> <r_lp_Energy>
38.956588

> <b_lp_Chiralities_Consistent>
1

> <s_lp_Variant>
CHEMBL3231_lig1056 -1

> <s_i_glide_gridfile>
glide-grid_2etr

> <i_i_glide_lignum>
1475

> <i_i_glide_rotatable_bonds>
9

> <r_i_docking_score>
-7.20677994314889

> <r_i_glide_ligand_efficiency>
-0.218387271004512

> <r_i_glide_ligand_efficiency_sa>
-0.700484668164657

> <r_i_glide_ligand_efficiency_ln>
-1.60275054464681

> <r_i_glide_gscore>
-7.20677994314889

> <r_i_glide_lipo>
-2.23241306699769

> <r_i_glide_hbond>
-0.321243609724206

> <r_i_glide_metal>
0

> <r_i_glide_rewards>
-1.73173087025566

> <r_i_glide_evdw>
-46.304386138916

> <r_i_glide_ecoul>
-8.08989906311035

> <r_i_glide_erotb>
0.699907783908909

> <r_i_glide_esite>
-0.0925960136678911

> <r_i_glide_emodel>
-75.7613586690118

> <r_i_glide_energy>
-54.3942852020264

> <r_i_glide_einternal>
8.84118556976318

> <i_i_glide_confnum>
9

> <i_i_glide_posenum>
22

> <r_i_glide_eff_state_penalty>
0

> <s_user_duplicate_titles>
CHEMBL3231_lig1056 ,CHEMBL3231_lig1058 

> <i_f3d_flags>
0

> <s_m_subgroup_title>
dock_pv

> <s_m_subgroupid>
dock_pv

> <b_m_subgroup_collapsed>
1

$$$$
CHEMBL3231_lig902
                    3D
 Schrodinger Suite 2021-1.
 38 40  0  0  1  0            999 V2000
   53.3689   99.8760   33.6134 C   0  0  0  0  0  0
   53.3169  100.7359   32.3273 C   0  0  1  0  0  0
   54.6007  101.6252   32.1709 C   0  0  0  0  0  0
   53.0898   99.8161   31.1577 N   0  0  0  0  0  0
   52.1341  101.6283   32.4725 N   0  0  0  0  0  0
   51.6503  102.3579   31.4441 C   0  0  0  0  0  0
   52.3275  100.3290   30.1300 C   0  0  0  0  0  0
   51.6526  101.5442   30.2626 C   0  0  0  0  0  0
   50.8296  102.0039   28.8089 S   0  0  0  0  0  0
   51.2388  100.4959   28.0535 C   0  0  0  0  0  0
   52.0515   99.7334   28.8857 C   0  0  0  0  0  0
   51.2428  103.5023   31.6058 O   0  0  0  0  0  0
   50.7450  100.1730   26.7289 C   0  0  0  0  0  0
   50.5371  101.0574   25.6870 C   0  0  0  0  0  0
   50.0596  100.3028   24.6534 N   0  0  0  0  0  0
   49.9654   99.0108   24.9578 N   0  0  0  0  0  0
   50.3421   98.9237   26.2147 C   0  0  0  0  0  0
   54.8709  102.6874   33.2694 C   0  0  0  0  0  0
   55.2428  102.1208   34.4156 F   0  0  0  0  0  0
   53.8263  103.4676   33.5419 F   0  0  0  0  0  0
   55.8498  103.5031   32.8969 F   0  0  0  0  0  0
   54.2553   98.9940   30.8082 C   0  0  0  0  0  0
   50.2724   97.5856   26.9053 C   0  0  0  0  0  0
   52.5270   99.1844   33.6702 H   0  0  0  0  0  0
   54.2818   99.2841   33.6765 H   0  0  0  0  0  0
   53.3347  100.4872   34.5154 H   0  0  0  0  0  0
   54.5628  102.1435   31.2114 H   0  0  0  0  0  0
   55.4866  100.9915   32.1097 H   0  0  0  0  0  0
   52.0278  102.0664   33.3744 H   0  0  0  0  0  0
   52.4333   98.7668   28.5960 H   0  0  0  0  0  0
   50.6733  102.1261   25.6110 H   0  0  0  0  0  0
   49.7858  100.6548   23.7437 H   0  0  0  0  0  0
   55.0168   99.5875   30.2999 H   0  0  0  0  0  0
   54.7165   98.5330   31.6805 H   0  0  0  0  0  0
   53.9736   98.1791   30.1424 H   0  0  0  0  0  0
   49.9466   97.6863   27.9403 H   0  0  0  0  0  0
   49.5837   96.8993   26.4113 H   0  0  0  0  0  0
   51.2430   97.1030   26.9278 H   0  0  0  0  0  0
  1  2  1  0  0  0
  1 24  1  0  0  0
  1 25  1  0  0  0
  1 26  1  0  0  0
  2  3  1  0  0  0
  2  4  1  0  0  0
  2  5  1  0  0  0
  3 18  1  0  0  0
  3 27  1  0  0  0
  3 28  1  0  0  0
  4  7  1  0  0  0
  4 22  1  0  0  0
  5  6  1  0  0  0
  5 29  1  0  0  0
  6  8  1  0  0  0
  6 12  2  0  0  0
  7  8  2  0  0  0
  7 11  1  0  0  0
  8  9  1  0  0  0
  9 10  1  0  0  0
 10 11  2  0  0  0
 10 13  1  0  0  0
 11 30  1  0  0  0
 13 14  2  0  0  0
 13 17  1  0  0  0
 14 15  1  0  0  0
 14 31  1  0  0  0
 15 16  1  0  0  0
 15 32  1  0  0  0
 16 17  2  0  0  0
 17 23  1  0  0  0
 18 19  1  0  0  0
 18 20  1  0  0  0
 18 21  1  0  0  0
 22 33  1  0  0  0
 22 34  1  0  0  0
 22 35  1  0  0  0
 23 36  1  0  0  0
 23 37  1  0  0  0
 23 38  1  0  0  0
M  END
> <s_m_entry_id>
28451

> <s_m_entry_name>
dock_pv.612

> <s_m_Source_Path>
/home/csk/Desktop/cluster/DUD-E-result/rock1

> <s_m_Source_File>
dock_pv.maegz

> <i_m_Source_File_Index>
612

> <chembl_id>
CHEMBL4214023

> <chembl_pref_name>
None

> <i_lp_mmshare_version>
53161

> <r_lp_tautomer_probability>
0.5

> <s_lp_Force_Field>
OPLS_2005

> <r_lp_Energy>
26.999536

> <b_lp_Chiralities_Consistent>
1

> <s_lp_Variant>
CHEMBL3231_lig902-2

> <s_i_glide_gridfile>
glide-grid_2etr

> <i_i_glide_lignum>
1293

> <i_i_glide_rotatable_bonds>
3

> <r_i_docking_score>
-7.20382641227037

> <r_i_glide_ligand_efficiency>
-0.313209844011755

> <r_i_glide_ligand_efficiency_sa>
-0.890727132218534

> <r_i_glide_ligand_efficiency_ln>
-1.74195054717344

> <r_i_glide_gscore>
-7.20382641227037

> <r_i_glide_lipo>
-1.98173701388993

> <r_i_glide_hbond>
-0.315047113672274

> <r_i_glide_metal>
0

> <r_i_glide_rewards>
-2.31454031742424

> <r_i_glide_evdw>
-33.694938659668

> <r_i_glide_ecoul>
-7.23333501815796

> <r_i_glide_erotb>
0.320226069780251

> <r_i_glide_esite>
-0.142980851357085

> <r_i_glide_emodel>
-56.7757571583611

> <r_i_glide_energy>
-40.9282736778259

> <r_i_glide_einternal>
4.46568155288696

> <i_i_glide_confnum>
2

> <i_i_glide_posenum>
127

> <r_i_glide_eff_state_penalty>
0

> <s_user_duplicate_titles>
CHEMBL3231_lig902

> <i_f3d_flags>
0

> <s_m_subgroup_title>
dock_pv

> <s_m_subgroupid>
dock_pv

> <b_m_subgroup_collapsed>
1

$$$$
CHEMBL3231_lig86
                    3D
 Schrodinger Suite 2021-1.
 51 55  0  0  1  0            999 V2000
   54.0895  103.1417   33.7716 C   0  0  0  0  0  0
   53.6855  101.9603   34.0952 N   0  0  0  0  0  0
   53.3196  100.9364   33.0855 C   0  0  1  0  0  0
   53.4654  101.4341   31.6198 C   0  0  0  0  0  0
   53.8562  102.7063   31.3724 C   0  0  0  0  0  0
   54.1740  103.5150   32.4343 N   0  0  0  0  0  0
   53.9621  103.3793   30.0106 C   0  0  0  0  0  0
   53.1282  100.5284   30.5517 C   0  0  0  0  0  0
   53.9112   99.6645   30.1571 O   0  0  0  0  0  0
   51.8895  100.7195   30.0624 N   0  0  0  0  0  0
   51.3813  100.0390   28.9528 C   0  0  0  0  0  0
   51.2835   98.6390   28.9233 C   0  0  0  0  0  0
   50.8588   97.9771   27.7746 C   0  0  0  0  0  0
   50.9468  100.8146   27.8784 C   0  0  0  0  0  0
   50.4747  100.1626   26.7342 C   0  0  0  0  0  0
   50.4651   98.7352   26.6675 C   0  0  0  0  0  0
   50.0387   98.2700   25.4572 N   0  0  0  0  0  0
   49.7079   99.3977   24.8104 N   0  0  0  0  0  0
   49.9397  100.5599   25.4902 C   0  0  0  0  0  0
   54.4779  104.1186   34.8128 C   0  0  0  0  0  0
   54.4472  105.5026   34.5663 C   0  0  0  0  0  0
   54.8297  106.3887   35.5759 C   0  0  0  0  0  0
   55.2207  105.9665   36.8059 N   0  0  0  0  0  0
   55.2433  104.6319   37.0458 C   0  0  0  0  0  0
   54.8917  103.6850   36.0843 C   0  0  0  0  0  0
   53.9670   99.5647   33.3873 C   0  0  0  0  0  0
   55.2187   99.4167   34.0171 C   0  0  0  0  0  0
   55.7494   98.1464   34.2432 C   0  0  0  0  0  0
   55.0430   97.0077   33.8608 C   0  0  0  0  0  0
   53.7965   97.1369   33.2553 C   0  0  0  0  0  0
   53.2639   98.4036   33.0262 C   0  0  0  0  0  0
   55.9439  100.4879   34.4105 F   0  0  0  0  0  0
   55.7052   95.4398   34.1405 Cl  0  0  0  0  0  0
   54.8354  108.0823   35.2504 Cl  0  0  0  0  0  0
   51.6049   97.9025   30.0128 F   0  0  0  0  0  0
   52.2548  100.7679   33.2609 H   0  0  0  0  0  0
   54.5528  104.4286   32.2206 H   0  0  0  0  0  0
   54.8429  103.0046   29.4942 H   0  0  0  0  0  0
   53.0963  103.1582   29.3879 H   0  0  0  0  0  0
   54.0420  104.4651   30.0822 H   0  0  0  0  0  0
   51.3434  101.4752   30.4426 H   0  0  0  0  0  0
   50.8432   96.9004   27.7436 H   0  0  0  0  0  0
   50.9886  101.8935   27.9170 H   0  0  0  0  0  0
   49.3226   99.3785   23.8719 H   0  0  0  0  0  0
   49.6986  101.5030   25.0378 H   0  0  0  0  0  0
   54.1329  105.9025   33.6119 H   0  0  0  0  0  0
   55.5589  104.3235   38.0324 H   0  0  0  0  0  0
   54.9430  102.6317   36.3270 H   0  0  0  0  0  0
   56.7194   98.0506   34.7075 H   0  0  0  0  0  0
   53.2455   96.2578   32.9535 H   0  0  0  0  0  0
   52.3021   98.4783   32.5408 H   0  0  0  0  0  0
  1  6  1  0  0  0
  1 20  1  0  0  0
  1  2  2  0  0  0
  2  3  1  0  0  0
  3  4  1  0  0  0
  3 26  1  0  0  0
  3 36  1  0  0  0
  4  8  1  0  0  0
  4  5  2  0  0  0
  5  6  1  0  0  0
  5  7  1  0  0  0
  6 37  1  0  0  0
  7 38  1  0  0  0
  7 39  1  0  0  0
  7 40  1  0  0  0
  8  9  2  0  0  0
  8 10  1  0  0  0
 10 41  1  0  0  0
 10 11  1  0  0  0
 11 12  1  0  0  0
 11 14  2  0  0  0
 12 13  2  0  0  0
 12 35  1  0  0  0
 13 16  1  0  0  0
 13 42  1  0  0  0
 14 43  1  0  0  0
 14 15  1  0  0  0
 15 16  1  0  0  0
 15 19  2  0  0  0
 16 17  2  0  0  0
 17 18  1  0  0  0
 18 44  1  0  0  0
 18 19  1  0  0  0
 19 45  1  0  0  0
 20 21  2  0  0  0
 20 25  1  0  0  0
 21 22  1  0  0  0
 21 46  1  0  0  0
 22 23  2  0  0  0
 22 34  1  0  0  0
 23 24  1  0  0  0
 24 25  2  0  0  0
 24 47  1  0  0  0
 25 48  1  0  0  0
 26 27  2  0  0  0
 26 31  1  0  0  0
 27 28  1  0  0  0
 27 32  1  0  0  0
 28 29  2  0  0  0
 28 49  1  0  0  0
 29 30  1  0  0  0
 29 33  1  0  0  0
 30 31  2  0  0  0
 30 50  1  0  0  0
 31 51  1  0  0  0
M  END
> <s_m_entry_id>
28452

> <s_m_entry_name>
dock_pv.613

> <s_m_Source_Path>
/home/csk/Desktop/cluster/DUD-E-result/rock1

> <s_m_Source_File>
dock_pv.maegz

> <i_m_Source_File_Index>
613

> <chembl_id>
CHEMBL521347

> <chembl_pref_name>
None

> <i_lp_mmshare_version>
53161

> <r_lp_tautomer_probability>
0.0196078431372549

> <s_lp_Force_Field>
OPLS_2005

> <r_lp_Energy>
44.263449

> <b_lp_Chiralities_Consistent>
1

> <s_lp_Variant>
CHEMBL3231_lig86-4

> <s_i_glide_gridfile>
glide-grid_2etr

> <i_i_glide_lignum>
143

> <i_i_glide_rotatable_bonds>
5

> <r_i_docking_score>
-7.20375526860436

> <r_i_glide_ligand_efficiency>
-0.205821579102982

> <r_i_glide_ligand_efficiency_sa>
-0.673256032515693

> <r_i_glide_ligand_efficiency_ln>
-1.5813841601928

> <r_i_glide_gscore>
-7.20375526860436

> <r_i_glide_lipo>
-2.13681529058328

> <r_i_glide_hbond>
-0.620250334883822

> <r_i_glide_metal>
0

> <r_i_glide_rewards>
-1.49194898356235

> <r_i_glide_evdw>
-48.7938652038574

> <r_i_glide_ecoul>
-4.72641181945801

> <r_i_glide_erotb>
0.272364211789106

> <r_i_glide_esite>
-0.0784498382524369

> <r_i_glide_emodel>
-72.3986570962183

> <r_i_glide_energy>
-53.5202770233154

> <r_i_glide_einternal>
7.66053009033203

> <i_i_glide_confnum>
64

> <i_i_glide_posenum>
344

> <r_i_glide_eff_state_penalty>
0

> <s_user_duplicate_titles>
CHEMBL3231_lig86,513871

> <i_f3d_flags>
0

> <s_m_subgroup_title>
dock_pv

> <s_m_subgroupid>
dock_pv

> <b_m_subgroup_collapsed>
1

$$$$
CHEMBL3231_lig1311
                    3D
 Schrodinger Suite 2021-1.
 37 39  0  0  1  0            999 V2000
   55.6317  100.1868   35.0099 O   0  0  0  0  0  0
   54.0281   99.9825   31.2109 N   0  0  0  0  0  0
   55.6670   99.5574   32.8139 N   0  0  0  0  0  0
   53.5158  103.9027   32.6067 N   0  0  0  0  0  0
   50.8956  103.5025   30.0120 N   0  0  0  0  0  0
   53.0754  100.7650   30.6292 C   0  0  0  0  0  0
   52.8291  102.0853   31.0738 C   0  0  0  0  0  0
   52.3206  100.0799   29.5257 C   0  0  0  0  0  0
   53.6213  102.5916   32.1251 C   0  0  0  0  0  0
   54.7412  100.4582   32.2595 C   0  0  0  0  0  0
   52.0441  100.7403   28.3213 C   0  0  0  0  0  0
   51.3177  100.1222   27.2809 C   0  0  0  0  0  0
   54.5667  101.7653   32.7295 C   0  0  0  0  0  0
   50.8918   98.7724   27.4471 C   0  0  0  0  0  0
   51.8728   98.7628   29.6759 C   0  0  0  0  0  0
   51.7513  102.8852   30.4867 C   0  0  0  0  0  0
   51.1768   98.1108   28.6624 C   0  0  0  0  0  0
   51.0199  100.8064   26.0764 C   0  0  0  0  0  0
   50.2030   98.1372   26.3871 C   0  0  0  0  0  0
   56.0868   99.5030   34.0944 C   0  0  0  0  0  0
   50.3360  100.1571   25.0574 C   0  0  0  0  0  0
   49.9452   98.8337   25.2115 C   0  0  0  0  0  0
   57.1876   98.4931   34.3968 C   0  0  0  0  0  0
   56.0805   98.8976   32.1642 H   0  0  0  0  0  0
   54.2051  104.2229   33.2699 H   0  0  0  0  0  0
   52.9539  104.5786   32.1094 H   0  0  0  0  0  0
   52.4026  101.7444   28.1537 H   0  0  0  0  0  0
   55.1764  102.1431   33.5368 H   0  0  0  0  0  0
   52.0710   98.2273   30.5946 H   0  0  0  0  0  0
   50.8492   97.0913   28.8027 H   0  0  0  0  0  0
   51.3352  101.8312   25.9487 H   0  0  0  0  0  0
   49.8851   97.1101   26.4955 H   0  0  0  0  0  0
   50.1091  100.6814   24.1399 H   0  0  0  0  0  0
   49.4135   98.3523   24.4110 H   0  0  0  0  0  0
   56.8299   97.4746   34.2380 H   0  0  0  0  0  0
   58.0432   98.6651   33.7414 H   0  0  0  0  0  0
   57.5297   98.5880   35.4306 H   0  0  0  0  0  0
  1 20  2  0  0  0
  2  6  2  0  0  0
  2 10  1  0  0  0
  3 10  1  0  0  0
  3 20  1  0  0  0
  3 24  1  0  0  0
  4  9  1  0  0  0
  4 25  1  0  0  0
  4 26  1  0  0  0
  5 16  3  0  0  0
  6  7  1  0  0  0
  6  8  1  0  0  0
  7  9  2  0  0  0
  7 16  1  0  0  0
  8 11  1  0  0  0
  8 15  2  0  0  0
  9 13  1  0  0  0
 10 13  2  0  0  0
 11 12  2  0  0  0
 11 27  1  0  0  0
 12 14  1  0  0  0
 12 18  1  0  0  0
 13 28  1  0  0  0
 14 17  2  0  0  0
 14 19  1  0  0  0
 15 17  1  0  0  0
 15 29  1  0  0  0
 17 30  1  0  0  0
 18 21  2  0  0  0
 18 31  1  0  0  0
 19 22  2  0  0  0
 19 32  1  0  0  0
 20 23  1  0  0  0
 21 22  1  0  0  0
 21 33  1  0  0  0
 22 34  1  0  0  0
 23 35  1  0  0  0
 23 36  1  0  0  0
 23 37  1  0  0  0
M  END
> <s_m_entry_id>
28453

> <s_m_entry_name>
dock_pv.614

> <s_m_Source_Path>
/home/csk/Desktop/cluster/DUD-E-result/rock1

> <s_m_Source_File>
dock_pv.maegz

> <i_m_Source_File_Index>
614

> <chembl_id>
CHEMBL2002240

> <chembl_pref_name>
None

> <i_lp_mmshare_version>
53161

> <r_lp_tautomer_probability>
1

> <s_lp_Force_Field>
OPLS_2005

> <r_lp_Energy>
24.00493

> <b_lp_Chiralities_Consistent>
1

> <s_lp_Variant>
CHEMBL3231_lig1311-1

> <s_i_glide_gridfile>
glide-grid_2etr

> <i_i_glide_lignum>
1823

> <i_i_glide_rotatable_bonds>
3

> <r_i_docking_score>
-7.20333283931069

> <r_i_glide_ligand_efficiency>
-0.313188384317856

> <r_i_glide_ligand_efficiency_sa>
-0.89066610370372

> <r_i_glide_ligand_efficiency_ln>
-1.74183119675631

> <r_i_glide_gscore>
-7.20333283931069

> <r_i_glide_lipo>
-2.63077815622592

> <r_i_glide_hbond>
-0.217617830748439

> <r_i_glide_metal>
0

> <r_i_glide_rewards>
-1.84821696473173

> <r_i_glide_evdw>
-38.498966217041

> <r_i_glide_ecoul>
-5.21183490753174

> <r_i_glide_erotb>
0.402839936996925

> <r_i_glide_esite>
-0.202836277619711

> <r_i_glide_emodel>
-61.7702471713669

> <r_i_glide_energy>
-43.7108011245728

> <r_i_glide_einternal>
6.08973407745361

> <i_i_glide_confnum>
2

> <i_i_glide_posenum>
289

> <r_i_glide_eff_state_penalty>
0

> <s_user_duplicate_titles>
CHEMBL3231_lig1311

> <i_f3d_flags>
0

> <s_m_subgroup_title>
dock_pv

> <s_m_subgroupid>
dock_pv

> <b_m_subgroup_collapsed>
1

$$$$
CHEMBL3231_lig847
                    3D
 Schrodinger Suite 2021-1.
 48 50  0  0  1  0            999 V2000
   51.5196  107.2170   36.0153 C   0  0  0  0  0  0
   51.2507  105.9045   36.5019 O   0  0  0  0  0  0
   51.8604  104.8266   35.8883 C   0  0  0  0  0  0
   51.5414  103.5597   36.3813 C   0  0  0  0  0  0
   52.0897  102.4118   35.8106 C   0  0  0  0  0  0
   52.9631  102.5206   34.7302 C   0  0  0  0  0  0
   53.3050  103.7794   34.2195 C   0  0  0  0  0  0
   52.7576  104.9254   34.8109 C   0  0  0  0  0  0
   54.2296  103.9087   32.9948 C   0  0  1  0  0  0
   55.6446  103.4527   33.3445 C   0  0  0  0  0  0
   53.7735  103.2100   31.7808 N   0  0  0  0  0  0
   52.5297  103.2981   31.2792 C   0  0  0  0  0  0
   51.6429  103.9032   31.8650 O   0  0  0  0  0  0
   52.2152  102.5740   29.9935 C   0  0  0  0  0  0
   52.8260  101.3451   29.7264 C   0  0  0  0  0  0
   52.4397  100.6006   28.6204 C   0  0  0  0  0  0
   51.4340  101.0517   27.7641 C   0  0  0  0  0  0
   50.8432  102.2829   28.0066 C   0  0  0  0  0  0
   51.2365  103.0650   29.1000 C   0  0  0  0  0  0
   50.6829  104.3039   29.3326 O   0  0  0  0  0  0
   49.7652  104.8783   28.4107 C   0  0  0  0  0  0
   50.9059  100.1938   26.6674 C   0  0  0  0  0  0
   50.5768  100.5389   25.3704 C   0  0  0  0  0  0
   50.0430   99.4121   24.8114 N   0  0  0  0  0  0
   50.0473   98.3645   25.6471 N   0  0  0  0  0  0
   50.5656   98.8342   26.7651 C   0  0  0  0  0  0
   50.7145   98.0661   27.9886 C   0  0  0  0  0  0
   50.8428   97.5030   28.9869 N   0  0  0  0  0  0
   50.9472  107.9413   36.5952 H   0  0  0  0  0  0
   52.5755  107.4735   36.1169 H   0  0  0  0  0  0
   51.2244  107.3247   34.9694 H   0  0  0  0  0  0
   50.8549  103.4668   37.2095 H   0  0  0  0  0  0
   51.8277  101.4384   36.1996 H   0  0  0  0  0  0
   53.3668  101.6245   34.2811 H   0  0  0  0  0  0
   53.0170  105.8903   34.4031 H   0  0  0  0  0  0
   54.2902  104.9666   32.7256 H   0  0  0  0  0  0
   56.0518  104.0231   34.1790 H   0  0  0  0  0  0
   55.6430  102.3982   33.6248 H   0  0  0  0  0  0
   56.3148  103.5798   32.4938 H   0  0  0  0  0  0
   54.5018  102.8627   31.1736 H   0  0  0  0  0  0
   53.5685  100.9290   30.3929 H   0  0  0  0  0  0
   52.8875   99.6345   28.4637 H   0  0  0  0  0  0
   50.0630  102.6114   27.3372 H   0  0  0  0  0  0
   49.5341  105.8987   28.7168 H   0  0  0  0  0  0
   50.1711  104.9258   27.3986 H   0  0  0  0  0  0
   48.8339  104.3131   28.4110 H   0  0  0  0  0  0
   50.6527  101.4652   24.8249 H   0  0  0  0  0  0
   49.6679   99.3600   23.8707 H   0  0  0  0  0  0
  1  2  1  0  0  0
  1 29  1  0  0  0
  1 30  1  0  0  0
  1 31  1  0  0  0
  2  3  1  0  0  0
  3  4  2  0  0  0
  3  8  1  0  0  0
  4  5  1  0  0  0
  4 32  1  0  0  0
  5  6  2  0  0  0
  5 33  1  0  0  0
  6  7  1  0  0  0
  6 34  1  0  0  0
  7  8  2  0  0  0
  7  9  1  0  0  0
  8 35  1  0  0  0
  9 10  1  0  0  0
  9 11  1  0  0  0
  9 36  1  0  0  0
 10 37  1  0  0  0
 10 38  1  0  0  0
 10 39  1  0  0  0
 11 12  1  0  0  0
 11 40  1  0  0  0
 12 13  2  0  0  0
 12 14  1  0  0  0
 14 15  2  0  0  0
 14 19  1  0  0  0
 15 16  1  0  0  0
 15 41  1  0  0  0
 16 17  2  0  0  0
 16 42  1  0  0  0
 17 18  1  0  0  0
 17 22  1  0  0  0
 18 19  2  0  0  0
 18 43  1  0  0  0
 19 20  1  0  0  0
 20 21  1  0  0  0
 21 44  1  0  0  0
 21 45  1  0  0  0
 21 46  1  0  0  0
 22 23  2  0  0  0
 22 26  1  0  0  0
 23 24  1  0  0  0
 23 47  1  0  0  0
 24 25  1  0  0  0
 24 48  1  0  0  0
 25 26  2  0  0  0
 26 27  1  0  0  0
 27 28  3  0  0  0
M  END
> <s_m_entry_id>
28454

> <s_m_entry_name>
dock_pv.615

> <s_m_Source_Path>
/home/csk/Desktop/cluster/DUD-E-result/rock1

> <s_m_Source_File>
dock_pv.maegz

> <i_m_Source_File_Index>
615

> <chembl_id>
CHEMBL4113511

> <chembl_pref_name>
None

> <i_lp_mmshare_version>
53161

> <r_lp_tautomer_probability>
1

> <s_lp_Force_Field>
OPLS_2005

> <r_lp_Energy>
29.523819

> <b_lp_Chiralities_Consistent>
1

> <s_lp_Variant>
CHEMBL3231_lig847-1

> <s_i_glide_gridfile>
glide-grid_2etr

> <i_i_glide_lignum>
1193

> <i_i_glide_rotatable_bonds>
7

> <r_i_docking_score>
-7.19825581079896

> <r_i_glide_ligand_efficiency>
-0.257080564671391

> <r_i_glide_ligand_efficiency_sa>
-0.780648006697622

> <r_i_glide_ligand_efficiency_ln>
-1.66156879110673

> <r_i_glide_gscore>
-7.19825581079896

> <r_i_glide_lipo>
-1.97394918189818

> <r_i_glide_hbond>
-0.425770703899292

> <r_i_glide_metal>
0

> <r_i_glide_rewards>
-1.98854661196558

> <r_i_glide_evdw>
-41.0032577514648

> <r_i_glide_ecoul>
-9.02683448791504

> <r_i_glide_erotb>
0.683120258945453

> <r_i_glide_esite>
-0.0889215112208541

> <r_i_glide_emodel>
-69.7588293986847

> <r_i_glide_energy>
-50.0300922393799

> <r_i_glide_einternal>
1.02839148044586

> <i_i_glide_confnum>
25

> <i_i_glide_posenum>
338

> <r_i_glide_eff_state_penalty>
0

> <s_user_duplicate_titles>
CHEMBL3231_lig847

> <i_f3d_flags>
0

> <s_m_subgroup_title>
dock_pv

> <s_m_subgroupid>
dock_pv

> <b_m_subgroup_collapsed>
1

$$$$
CHEMBL3231_lig2094
                    3D
 Schrodinger Suite 2021-1.
 38 40  0  0  1  0            999 V2000
   50.9911  101.2271   28.0178 C   0  0  0  0  0  0
   51.8570  101.0565   29.0031 N   0  0  0  0  0  0
   52.0089  102.1254   29.7378 C   0  0  0  0  0  0
   51.0849  103.5030   29.2115 S   0  0  0  0  0  0
   50.4430  102.5107   27.9505 C   0  0  0  0  0  0
   52.8930  102.1198   30.8012 N   0  0  0  0  0  0
   52.8687  102.9021   31.8997 C   0  0  0  0  0  0
   53.9571  102.5924   32.9383 C   0  0  0  0  0  0
   52.0428  103.7911   32.1188 O   0  0  0  0  0  0
   54.0175  101.1028   33.3055 C   0  0  0  0  0  0
   52.9734  100.4815   34.0191 C   0  0  0  0  0  0
   53.0672   99.1060   34.2966 C   0  0  0  0  0  0
   54.1675   98.3644   33.8686 C   0  0  0  0  0  0
   55.1936   98.9858   33.1631 C   0  0  0  0  0  0
   55.1209  100.3480   32.8864 C   0  0  0  0  0  0
   50.6760  100.1006   27.0953 C   0  0  0  0  0  0
   50.1512  100.3721   25.8271 C   0  0  0  0  0  0
   49.8552   99.3082   24.9824 C   0  0  0  0  0  0
   50.0430   98.0116   25.3266 N   0  0  0  0  0  0
   50.5513   97.7562   26.5556 C   0  0  0  0  0  0
   50.8831   98.7621   27.4620 C   0  0  0  0  0  0
   51.9011  101.2662   34.4095 O   0  0  0  0  0  0
   50.8158  100.6761   35.1168 C   0  0  0  0  0  0
   49.7352  102.9111   27.2408 H   0  0  0  0  0  0
   53.5621  101.3636   30.8088 H   0  0  0  0  0  0
   53.7546  103.1639   33.8452 H   0  0  0  0  0  0
   54.9171  102.9533   32.5652 H   0  0  0  0  0  0
   52.2942   98.5908   34.8435 H   0  0  0  0  0  0
   54.2261   97.3068   34.0823 H   0  0  0  0  0  0
   56.0448   98.4123   32.8210 H   0  0  0  0  0  0
   55.9235  100.8051   32.3248 H   0  0  0  0  0  0
   49.9738  101.3838   25.4944 H   0  0  0  0  0  0
   49.4367   99.4961   24.0110 H   0  0  0  0  0  0
   50.6964   96.7168   26.8108 H   0  0  0  0  0  0
   51.2839   98.5021   28.4309 H   0  0  0  0  0  0
   50.0731  101.4416   35.3396 H   0  0  0  0  0  0
   50.3246   99.9043   34.5229 H   0  0  0  0  0  0
   51.1393  100.2469   36.0663 H   0  0  0  0  0  0
  1  2  1  0  0  0
  1  5  2  0  0  0
  1 16  1  0  0  0
  2  3  2  0  0  0
  3  4  1  0  0  0
  3  6  1  0  0  0
  4  5  1  0  0  0
  5 24  1  0  0  0
  6  7  1  0  0  0
  6 25  1  0  0  0
  7  8  1  0  0  0
  7  9  2  0  0  0
  8 10  1  0  0  0
  8 26  1  0  0  0
  8 27  1  0  0  0
 10 11  2  0  0  0
 10 15  1  0  0  0
 11 12  1  0  0  0
 11 22  1  0  0  0
 12 13  2  0  0  0
 12 28  1  0  0  0
 13 14  1  0  0  0
 13 29  1  0  0  0
 14 15  2  0  0  0
 14 30  1  0  0  0
 15 31  1  0  0  0
 16 17  2  0  0  0
 16 21  1  0  0  0
 17 18  1  0  0  0
 17 32  1  0  0  0
 18 19  2  0  0  0
 18 33  1  0  0  0
 19 20  1  0  0  0
 20 21  2  0  0  0
 20 34  1  0  0  0
 21 35  1  0  0  0
 22 23  1  0  0  0
 23 36  1  0  0  0
 23 37  1  0  0  0
 23 38  1  0  0  0
M  END
> <s_m_entry_id>
28455

> <s_m_entry_name>
dock_pv.616

> <s_m_Source_Path>
/home/csk/Desktop/cluster/DUD-E-result/rock1

> <s_m_Source_File>
dock_pv.maegz

> <i_m_Source_File_Index>
616

> <chembl_id>
CHEMBL3581120

> <chembl_pref_name>
None

> <i_lp_mmshare_version>
53161

> <r_lp_tautomer_probability>
0.999000488399163

> <s_lp_Force_Field>
OPLS_2005

> <r_lp_Energy>
13.286113

> <b_lp_Chiralities_Consistent>
1

> <s_lp_Variant>
CHEMBL3231_lig2094-1

> <s_i_glide_gridfile>
glide-grid_2etr

> <i_i_glide_lignum>
3022

> <i_i_glide_rotatable_bonds>
6

> <r_i_docking_score>
-7.19735507977287

> <r_i_glide_ligand_efficiency>
-0.312928481729255

> <r_i_glide_ligand_efficiency_sa>
-0.889926975314793

> <r_i_glide_ligand_efficiency_ln>
-1.74038572029674

> <r_i_glide_gscore>
-7.19735507977287

> <r_i_glide_lipo>
-2.3905736602062

> <r_i_glide_hbond>
-0.288428726419895

> <r_i_glide_metal>
0

> <r_i_glide_rewards>
-2.55721402347243

> <r_i_glide_evdw>
-37.9795570373535

> <r_i_glide_ecoul>
-5.91497898101807

> <r_i_glide_erotb>
0.885022411526223

> <r_i_glide_esite>
-0.0599363821801827

> <r_i_glide_emodel>
-61.7666395351561

> <r_i_glide_energy>
-43.8945360183716

> <r_i_glide_einternal>
3.45893001556396

> <i_i_glide_confnum>
11

> <i_i_glide_posenum>
307

> <r_i_glide_eff_state_penalty>
0

> <s_user_duplicate_titles>
CHEMBL3231_lig2094

> <i_f3d_flags>
0

> <s_m_subgroup_title>
dock_pv

> <s_m_subgroupid>
dock_pv

> <b_m_subgroup_collapsed>
1

$$$$
CHEMBL3231_lig520
                    3D
 Schrodinger Suite 2021-1.
 59 63  0  0  1  0            999 V2000
   52.0030  103.1910   33.3801 C   0  0  2  0  0  0
   52.3631  103.1214   31.8877 C   0  0  0  0  0  0
   53.5998  103.5025   31.5173 C   0  0  0  0  0  0
   54.4412  104.0945   32.4113 N   0  0  0  0  0  0
   54.1063  104.5279   33.6519 C   0  0  0  0  0  0
   52.8068  104.2918   33.9850 N   0  0  0  0  0  0
   54.9244  105.0045   34.4350 O   0  0  0  0  0  0
   54.1054  103.4986   30.0848 C   0  0  0  0  0  0
   51.4542  102.5115   30.9464 C   0  0  0  0  0  0
   51.8937  101.3212   30.4752 N   0  0  0  0  0  0
   50.4431  103.1025   30.5704 O   0  0  0  0  0  0
   51.4425  100.6052   29.3515 C   0  0  0  0  0  0
   50.9321  101.2420   28.2075 C   0  0  0  0  0  0
   51.2388   98.4199   28.2907 C   0  0  0  0  0  0
   51.5996   99.2173   29.3788 C   0  0  0  0  0  0
   50.7571   99.0421   27.1294 C   0  0  0  0  0  0
   50.5966  100.4628   27.0883 C   0  0  0  0  0  0
   50.0857  100.7075   25.7872 C   0  0  0  0  0  0
   50.0032   99.4731   25.1935 N   0  0  0  0  0  0
   50.3805   98.4375   25.9600 N   0  0  0  0  0  0
   52.1672  101.8560   34.1069 C   0  0  0  0  0  0
   53.4343  101.3174   34.3918 C   0  0  0  0  0  0
   53.5649  100.1308   35.1308 C   0  0  0  0  0  0
   52.4033   99.4691   35.5483 C   0  0  0  0  0  0
   51.1553  100.0028   35.2529 C   0  0  0  0  0  0
   51.0289  101.1855   34.5440 C   0  0  0  0  0  0
   52.4582   98.2991   36.2280 F   0  0  0  0  0  0
   54.9161   99.5512   35.4531 C   0  0  0  0  0  0
   55.7930   99.5177   34.4362 N   0  0  0  0  0  0
   55.1513   99.0921   36.5709 O   0  0  0  0  0  0
   57.0268   98.7206   34.4510 C   0  0  0  0  0  0
   56.8647   97.2632   34.0095 C   0  0  0  0  0  0
   58.0146   96.5358   34.0152 N   0  0  0  0  0  0
   57.9815   95.2790   33.5001 C   0  0  0  0  0  0
   56.8240   94.7034   32.9725 C   0  0  0  0  0  0
   55.6417   95.4438   32.9965 C   0  0  0  0  0  0
   55.6555   96.7388   33.5213 C   0  0  0  0  0  0
   50.9532  103.4700   33.4957 H   0  0  0  0  0  0
   55.3280  104.4528   32.0781 H   0  0  0  0  0  0
   52.5773  104.5610   34.9300 H   0  0  0  0  0  0
   54.6195  102.5631   29.8740 H   0  0  0  0  0  0
   53.3120  103.6303   29.3502 H   0  0  0  0  0  0
   54.8099  104.3029   29.9275 H   0  0  0  0  0  0
   52.6155  100.8701   31.0170 H   0  0  0  0  0  0
   50.8282  102.3153   28.1681 H   0  0  0  0  0  0
   51.2797   97.3406   28.3503 H   0  0  0  0  0  0
   51.9870   98.7332   30.2659 H   0  0  0  0  0  0
   49.7845  101.5937   25.2497 H   0  0  0  0  0  0
   49.6636   99.3326   24.2527 H   0  0  0  0  0  0
   54.3235  101.8338   34.0614 H   0  0  0  0  0  0
   50.2668   99.5066   35.5921 H   0  0  0  0  0  0
   50.0410  101.5794   34.3495 H   0  0  0  0  0  0
   55.5303   99.9166   33.5482 H   0  0  0  0  0  0
   57.4943   98.7405   35.4386 H   0  0  0  0  0  0
   57.7399   99.1942   33.7720 H   0  0  0  0  0  0
   58.9109   94.7295   33.5132 H   0  0  0  0  0  0
   56.8467   93.6971   32.5775 H   0  0  0  0  0  0
   54.7257   95.0229   32.6069 H   0  0  0  0  0  0
   54.7516   97.3247   33.5100 H   0  0  0  0  0  0
  1  2  1  0  0  0
  1  6  1  0  0  0
  1 21  1  0  0  0
  1 38  1  0  0  0
  2  3  2  0  0  0
  2  9  1  0  0  0
  3  4  1  0  0  0
  3  8  1  0  0  0
  4  5  1  0  0  0
  4 39  1  0  0  0
  5  6  1  0  0  0
  5  7  2  0  0  0
  6 40  1  0  0  0
  8 41  1  0  0  0
  8 42  1  0  0  0
  8 43  1  0  0  0
  9 10  1  0  0  0
  9 11  2  0  0  0
 10 44  1  0  0  0
 10 12  1  0  0  0
 12 15  1  0  0  0
 12 13  2  0  0  0
 13 45  1  0  0  0
 13 17  1  0  0  0
 14 16  1  0  0  0
 14 46  1  0  0  0
 14 15  2  0  0  0
 15 47  1  0  0  0
 16 20  2  0  0  0
 16 17  1  0  0  0
 17 18  2  0  0  0
 18 19  1  0  0  0
 18 48  1  0  0  0
 19 49  1  0  0  0
 19 20  1  0  0  0
 21 22  2  0  0  0
 21 26  1  0  0  0
 22 23  1  0  0  0
 22 50  1  0  0  0
 23 24  2  0  0  0
 23 28  1  0  0  0
 24 25  1  0  0  0
 24 27  1  0  0  0
 25 26  2  0  0  0
 25 51  1  0  0  0
 26 52  1  0  0  0
 28 29  1  0  0  0
 28 30  2  0  0  0
 29 31  1  0  0  0
 29 53  1  0  0  0
 31 32  1  0  0  0
 31 54  1  0  0  0
 31 55  1  0  0  0
 32 33  2  0  0  0
 32 37  1  0  0  0
 33 34  1  0  0  0
 34 35  2  0  0  0
 34 56  1  0  0  0
 35 36  1  0  0  0
 35 57  1  0  0  0
 36 37  2  0  0  0
 36 58  1  0  0  0
 37 59  1  0  0  0
M  END
> <s_m_entry_id>
28456

> <s_m_entry_name>
dock_pv.617

> <s_m_Source_Path>
/home/csk/Desktop/cluster/DUD-E-result/rock1

> <s_m_Source_File>
dock_pv.maegz

> <i_m_Source_File_Index>
617

> <chembl_id>
CHEMBL3808660

> <chembl_pref_name>
None

> <i_lp_mmshare_version>
53161

> <r_lp_tautomer_probability>
0.019607843137214

> <s_lp_Force_Field>
OPLS_2005

> <r_lp_Energy>
61.809244

> <b_lp_Chiralities_Consistent>
1

> <s_lp_Variant>
CHEMBL3231_lig520-3

> <s_i_glide_gridfile>
glide-grid_2etr

> <i_i_glide_lignum>
759

> <i_i_glide_rotatable_bonds>
8

> <r_i_docking_score>
-7.19189965243047

> <r_i_glide_ligand_efficiency>
-0.194375666281904

> <r_i_glide_ligand_efficiency_sa>
-0.647702841833203

> <r_i_glide_ligand_efficiency_ln>
-1.55975443256289

> <r_i_glide_gscore>
-7.19189965243047

> <r_i_glide_lipo>
-2.25262426965758

> <r_i_glide_hbond>
-0.422754408501907

> <r_i_glide_metal>
0

> <r_i_glide_rewards>
-1.05992407051193

> <r_i_glide_evdw>
-47.181282043457

> <r_i_glide_ecoul>
-9.46195983886719

> <r_i_glide_erotb>
0.572723771701763

> <r_i_glide_esite>
-0.250962597457878

> <r_i_glide_emodel>
-76.34592476539

> <r_i_glide_energy>
-56.6432418823242

> <r_i_glide_einternal>
13.3204126358032

> <i_i_glide_confnum>
33

> <i_i_glide_posenum>
10

> <r_i_glide_eff_state_penalty>
0

> <s_user_duplicate_titles>
CHEMBL3231_lig520

> <i_f3d_flags>
0

> <s_m_subgroup_title>
dock_pv

> <s_m_subgroupid>
dock_pv

> <b_m_subgroup_collapsed>
1

$$$$
CHEMBL3231_lig1166
                    3D
 Schrodinger Suite 2021-1.
 35 37  0  0  1  0            999 V2000
   49.5157  101.1056   25.2109 O   0  0  0  0  0  0
   50.4441   96.7692   26.0111 O   0  0  0  0  0  0
   50.4785  104.6914   28.9893 O   0  0  0  0  0  0
   51.8671  103.9011   31.0947 O   0  0  0  0  0  0
   51.5668   98.3032   28.4549 N   0  0  0  0  0  0
   49.9448   98.8883   25.3461 N   0  0  0  0  0  0
   50.6123  100.0827   27.1406 C   0  0  0  0  0  0
   50.9079  101.0661   28.1296 C   0  0  0  0  0  0
   50.9365   98.7748   27.3576 C   0  0  0  0  0  0
   51.6174  100.6300   29.2944 C   0  0  0  0  0  0
   51.9176   99.2268   29.3896 C   0  0  0  0  0  0
   49.9655  100.1454   25.8069 C   0  0  0  0  0  0
   50.4423   97.9792   26.2004 C   0  0  0  0  0  0
   50.5267  102.4293   28.0221 C   0  0  0  0  0  0
   51.9645  101.5945   30.2767 C   0  0  0  0  0  0
   50.8432  103.3518   29.0281 C   0  0  0  0  0  0
   51.5766  102.9365   30.1465 C   0  0  0  0  0  0
   52.6794   98.6601   30.5881 C   0  0  0  0  0  0
   54.1983   98.8759   30.4871 C   0  0  0  0  0  0
   49.6820  105.2043   27.9356 C   0  0  0  0  0  0
   52.7580  103.6024   32.1649 C   0  0  0  0  0  0
   49.5340   98.6640   24.4553 H   0  0  0  0  0  0
   49.9892  102.7360   27.1398 H   0  0  0  0  0  0
   52.5183  101.2712   31.1426 H   0  0  0  0  0  0
   52.2919   99.0914   31.5108 H   0  0  0  0  0  0
   52.4864   97.5892   30.6781 H   0  0  0  0  0  0
   54.7102   98.4706   31.3608 H   0  0  0  0  0  0
   54.6130   98.3738   29.6131 H   0  0  0  0  0  0
   54.4606   99.9328   30.4193 H   0  0  0  0  0  0
   49.6432  106.2914   28.0109 H   0  0  0  0  0  0
   50.0741  104.9618   26.9471 H   0  0  0  0  0  0
   48.6628  104.8406   28.0360 H   0  0  0  0  0  0
   52.9405  104.5066   32.7438 H   0  0  0  0  0  0
   52.3354  102.8564   32.8393 H   0  0  0  0  0  0
   53.7231  103.2509   31.7979 H   0  0  0  0  0  0
  1 12  2  0  0  0
  2 13  2  0  0  0
  3 16  1  0  0  0
  3 20  1  0  0  0
  4 17  1  0  0  0
  4 21  1  0  0  0
  5  9  1  0  0  0
  5 11  2  0  0  0
  6 12  1  0  0  0
  6 13  1  0  0  0
  6 22  1  0  0  0
  7  8  1  0  0  0
  7  9  2  0  0  0
  7 12  1  0  0  0
  8 10  1  0  0  0
  8 14  2  0  0  0
  9 13  1  0  0  0
 10 11  1  0  0  0
 10 15  2  0  0  0
 11 18  1  0  0  0
 14 16  1  0  0  0
 14 23  1  0  0  0
 15 17  1  0  0  0
 15 24  1  0  0  0
 16 17  2  0  0  0
 18 19  1  0  0  0
 18 25  1  0  0  0
 18 26  1  0  0  0
 19 27  1  0  0  0
 19 28  1  0  0  0
 19 29  1  0  0  0
 20 30  1  0  0  0
 20 31  1  0  0  0
 20 32  1  0  0  0
 21 33  1  0  0  0
 21 34  1  0  0  0
 21 35  1  0  0  0
M  END
> <s_m_entry_id>
28457

> <s_m_entry_name>
dock_pv.618

> <s_m_Source_Path>
/home/csk/Desktop/cluster/DUD-E-result/rock1

> <s_m_Source_File>
dock_pv.maegz

> <i_m_Source_File_Index>
618

> <chembl_id>
CHEMBL2003524

> <chembl_pref_name>
None

> <i_lp_mmshare_version>
53161

> <r_lp_tautomer_probability>
1

> <s_lp_Force_Field>
OPLS_2005

> <r_lp_Energy>
41.873442

> <b_lp_Chiralities_Consistent>
1

> <s_lp_Variant>
CHEMBL3231_lig1166-1

> <s_i_glide_gridfile>
glide-grid_2etr

> <i_i_glide_lignum>
1614

> <i_i_glide_rotatable_bonds>
3

> <r_i_docking_score>
-7.19146194380266

> <r_i_glide_ligand_efficiency>
-0.342450568752508

> <r_i_glide_ligand_efficiency_sa>
-0.944795152387942

> <r_i_glide_ligand_efficiency_ln>
-1.77807443388807

> <r_i_glide_gscore>
-7.19146194380266

> <r_i_glide_lipo>
-2.02404651942443

> <r_i_glide_hbond>
-0.148051339346549

> <r_i_glide_metal>
0

> <r_i_glide_rewards>
-2.73216368181818

> <r_i_glide_evdw>
-37.0619049072266

> <r_i_glide_ecoul>
-2.89403438568115

> <r_i_glide_erotb>
0

> <r_i_glide_esite>
0

> <r_i_glide_emodel>
-56.5907911878174

> <r_i_glide_energy>
-39.9559392929077

> <r_i_glide_einternal>
1.55671298503876

> <i_i_glide_confnum>
1

> <i_i_glide_posenum>
267

> <r_i_glide_eff_state_penalty>
0

> <s_user_duplicate_titles>
CHEMBL3231_lig1166

> <i_f3d_flags>
0

> <s_m_subgroup_title>
dock_pv

> <s_m_subgroupid>
dock_pv

> <b_m_subgroup_collapsed>
1

$$$$
CHEMBL3231_lig1380
                    3D
 Schrodinger Suite 2021-1.
 38 40  0  0  1  0            999 V2000
   51.1233   98.4553   28.3313 F   0  0  0  0  0  0
   50.4211   97.0916   26.0777 F   0  0  0  0  0  0
   52.8506   99.0481   32.0250 O   0  0  0  0  0  0
   52.8591  103.6965   31.4831 N   0  0  0  0  0  0
   53.7612  102.8041   31.9344 N   0  0  0  0  0  0
   54.5520  100.5163   31.5974 N   0  0  0  0  0  0
   52.7809  101.7192   30.2593 C   0  0  0  0  0  0
   52.2548  103.0328   30.4439 C   0  0  0  0  0  0
   51.3119  101.3790   28.3635 C   0  0  0  0  0  0
   53.7482  101.5929   31.2861 C   0  0  0  0  0  0
   50.8562  100.5632   27.1935 C   0  0  0  0  0  0
   52.3131  100.9059   29.2195 C   0  0  0  0  0  0
   51.2461  103.4996   29.5936 C   0  0  0  0  0  0
   50.8090   99.1535   27.2126 C   0  0  0  0  0  0
   50.7859  102.6598   28.5829 C   0  0  0  0  0  0
   50.4265   98.4427   26.0717 C   0  0  0  0  0  0
   50.4805  101.2157   26.0104 C   0  0  0  0  0  0
   54.0555   99.2903   31.8788 C   0  0  0  0  0  0
   50.0421   99.1202   24.9194 C   0  0  0  0  0  0
   50.0576  100.5032   24.8930 C   0  0  0  0  0  0
   55.0974   98.1698   32.0011 C   0  0  0  0  0  0
   54.5204   96.7648   32.2915 C   0  0  0  0  0  0
   55.5999   95.6738   32.2307 C   0  0  0  0  0  0
   54.3808  103.0266   32.7008 H   0  0  0  0  0  0
   55.5487  100.6247   31.4656 H   0  0  0  0  0  0
   52.7641   99.9363   29.0705 H   0  0  0  0  0  0
   50.8434  104.4972   29.6821 H   0  0  0  0  0  0
   50.0189  103.0456   27.9300 H   0  0  0  0  0  0
   50.5182  102.2936   25.9453 H   0  0  0  0  0  0
   49.7133   98.5966   24.0371 H   0  0  0  0  0  0
   49.7476  101.0250   23.9998 H   0  0  0  0  0  0
   55.8170   98.4386   32.7762 H   0  0  0  0  0  0
   55.6429   98.1404   31.0556 H   0  0  0  0  0  0
   53.7343   96.5198   31.5748 H   0  0  0  0  0  0
   54.0515   96.7501   33.2764 H   0  0  0  0  0  0
   55.1891   94.6973   32.4842 H   0  0  0  0  0  0
   56.4131   95.8822   32.9293 H   0  0  0  0  0  0
   56.0363   95.6021   31.2332 H   0  0  0  0  0  0
  1 14  1  0  0  0
  2 16  1  0  0  0
  3 18  2  0  0  0
  4  5  1  0  0  0
  4  8  2  0  0  0
  5 24  1  0  0  0
  5 10  1  0  0  0
  6 18  1  0  0  0
  6 25  1  0  0  0
  6 10  1  0  0  0
  7 12  1  0  0  0
  7  8  1  0  0  0
  7 10  2  0  0  0
  8 13  1  0  0  0
  9 15  1  0  0  0
  9 11  1  0  0  0
  9 12  2  0  0  0
 11 14  1  0  0  0
 11 17  2  0  0  0
 12 26  1  0  0  0
 13 27  1  0  0  0
 13 15  2  0  0  0
 14 16  2  0  0  0
 15 28  1  0  0  0
 16 19  1  0  0  0
 17 20  1  0  0  0
 17 29  1  0  0  0
 18 21  1  0  0  0
 19 20  2  0  0  0
 19 30  1  0  0  0
 20 31  1  0  0  0
 21 22  1  0  0  0
 21 32  1  0  0  0
 21 33  1  0  0  0
 22 23  1  0  0  0
 22 34  1  0  0  0
 22 35  1  0  0  0
 23 36  1  0  0  0
 23 37  1  0  0  0
 23 38  1  0  0  0
M  END
> <s_m_entry_id>
28458

> <s_m_entry_name>
dock_pv.619

> <s_m_Source_Path>
/home/csk/Desktop/cluster/DUD-E-result/rock1

> <s_m_Source_File>
dock_pv.maegz

> <i_m_Source_File_Index>
619

> <chembl_id>
CHEMBL1985406

> <chembl_pref_name>
None

> <i_lp_mmshare_version>
53161

> <r_lp_tautomer_probability>
0.0196078431372549

> <s_lp_Force_Field>
OPLS_2005

> <r_lp_Energy>
37.583558

> <b_lp_Chiralities_Consistent>
1

> <s_lp_Variant>
CHEMBL3231_lig1380-2

> <s_i_glide_gridfile>
glide-grid_2etr

> <i_i_glide_lignum>
1935

> <i_i_glide_rotatable_bonds>
5

> <r_i_docking_score>
-7.18861186112015

> <r_i_glide_ligand_efficiency>
-0.312548341787833

> <r_i_glide_ligand_efficiency_sa>
-0.888845907888788

> <r_i_glide_ligand_efficiency_ln>
-1.73827153074739

> <r_i_glide_gscore>
-7.18861186112015

> <r_i_glide_lipo>
-2.47750033916284

> <r_i_glide_hbond>
-0.15808175418744

> <r_i_glide_metal>
0

> <r_i_glide_rewards>
-2.8173951905827

> <r_i_glide_evdw>
-38.5926971435547

> <r_i_glide_ecoul>
-2.93896317481995

> <r_i_glide_erotb>
0.748338760134179

> <r_i_glide_esite>
-0.113494003920628

> <r_i_glide_emodel>
-58.743093060982

> <r_i_glide_energy>
-41.5316603183746

> <r_i_glide_einternal>
3.15001916885376

> <i_i_glide_confnum>
26

> <i_i_glide_posenum>
66

> <r_i_glide_eff_state_penalty>
0

> <s_user_duplicate_titles>
CHEMBL3231_lig1380,CHEMBL3231_lig1380

> <i_f3d_flags>
0

> <s_m_subgroup_title>
dock_pv

> <s_m_subgroupid>
dock_pv

> <b_m_subgroup_collapsed>
1

$$$$
CHEMBL3231_lig1135
                    3D
 Schrodinger Suite 2021-1.
 44 47  0  0  1  0            999 V2000
   54.8597   97.7419   33.5989 F   0  0  0  0  0  0
   51.2432  103.9100   33.4526 O   0  0  0  0  0  0
   51.0234   99.8119   27.1411 N   0  0  0  0  0  0
   51.2431   97.9030   28.3477 N   0  0  0  0  0  0
   52.5246  101.7142   29.8845 N   0  0  0  0  0  0
   50.0424   98.5294   24.9005 N   0  0  0  0  0  0
   51.6430  103.9030   30.2403 N   0  0  0  0  0  0
   53.4548  103.0463   31.5476 N   0  0  0  0  0  0
   51.4900  100.1393   28.3955 C   0  0  0  0  0  0
   51.7853   98.9054   29.0060 C   0  0  0  0  0  0
   50.8569   98.4223   27.1658 C   0  0  0  0  0  0
   51.6046  101.5216   28.9081 C   0  0  0  0  0  0
   52.5778   98.6256   30.2498 C   0  0  0  0  0  0
   50.7225  100.5453   26.0162 C   0  0  0  0  0  0
   50.3499   97.8134   26.0112 C   0  0  0  0  0  0
   50.7072  102.5224   28.5247 C   0  0  0  0  0  0
   53.8812   99.1245   30.3791 C   0  0  0  0  0  0
   52.0668   97.8034   31.2556 C   0  0  0  0  0  0
   52.5138  102.9022   30.5202 C   0  0  0  0  0  0
   50.2250   99.8694   24.9083 C   0  0  0  0  0  0
   50.7804  103.7240   29.2111 C   0  0  0  0  0  0
   54.6487   98.8365   31.5029 C   0  0  0  0  0  0
   52.8427   97.5031   32.3762 C   0  0  0  0  0  0
   54.1244   98.0251   32.5012 C   0  0  0  0  0  0
   53.4729  104.2130   32.4267 C   0  0  0  0  0  0
   52.6402  104.0535   33.7146 C   0  0  0  0  0  0
   50.7547  102.5785   33.5370 C   0  0  0  0  0  0
   54.0099  102.2399   31.7953 H   0  0  0  0  0  0
   50.9140  101.6064   26.0249 H   0  0  0  0  0  0
   50.2064   96.7439   25.9747 H   0  0  0  0  0  0
   49.9472  102.3731   27.7764 H   0  0  0  0  0  0
   54.3132   99.7438   29.6111 H   0  0  0  0  0  0
   51.0767   97.3795   31.1648 H   0  0  0  0  0  0
   49.9723  100.3962   23.9989 H   0  0  0  0  0  0
   50.1161  104.5411   28.9704 H   0  0  0  0  0  0
   55.6521   99.2271   31.5936 H   0  0  0  0  0  0
   52.4478   96.8606   33.1489 H   0  0  0  0  0  0
   53.1526  105.1029   31.8887 H   0  0  0  0  0  0
   54.5136  104.4148   32.6813 H   0  0  0  0  0  0
   52.7540  104.9688   34.2962 H   0  0  0  0  0  0
   53.0369  103.2557   34.3463 H   0  0  0  0  0  0
   49.6912  102.5764   33.3012 H   0  0  0  0  0  0
   50.8733  102.1781   34.5449 H   0  0  0  0  0  0
   51.2537  101.9077   32.8377 H   0  0  0  0  0  0
  1 24  1  0  0  0
  2 26  1  0  0  0
  2 27  1  0  0  0
  3  9  1  0  0  0
  3 11  1  0  0  0
  3 14  1  0  0  0
  4 10  1  0  0  0
  4 11  2  0  0  0
  5 12  2  0  0  0
  5 19  1  0  0  0
  6 15  2  0  0  0
  6 20  1  0  0  0
  7 19  2  0  0  0
  7 21  1  0  0  0
  8 19  1  0  0  0
  8 25  1  0  0  0
  8 28  1  0  0  0
  9 10  2  0  0  0
  9 12  1  0  0  0
 10 13  1  0  0  0
 11 15  1  0  0  0
 12 16  1  0  0  0
 13 17  2  0  0  0
 13 18  1  0  0  0
 14 20  2  0  0  0
 14 29  1  0  0  0
 15 30  1  0  0  0
 16 21  2  0  0  0
 16 31  1  0  0  0
 17 22  1  0  0  0
 17 32  1  0  0  0
 18 23  2  0  0  0
 18 33  1  0  0  0
 20 34  1  0  0  0
 21 35  1  0  0  0
 22 24  2  0  0  0
 22 36  1  0  0  0
 23 24  1  0  0  0
 23 37  1  0  0  0
 25 26  1  0  0  0
 25 38  1  0  0  0
 25 39  1  0  0  0
 26 40  1  0  0  0
 26 41  1  0  0  0
 27 42  1  0  0  0
 27 43  1  0  0  0
 27 44  1  0  0  0
M  END
> <s_m_entry_id>
28459

> <s_m_entry_name>
dock_pv.620

> <s_m_Source_Path>
/home/csk/Desktop/cluster/DUD-E-result/rock1

> <s_m_Source_File>
dock_pv.maegz

> <i_m_Source_File_Index>
620

> <chembl_id>
CHEMBL1969372

> <chembl_pref_name>
None

> <i_lp_mmshare_version>
53161

> <r_lp_tautomer_probability>
0.999999987636

> <s_lp_Force_Field>
OPLS_2005

> <r_lp_Energy>
12.94228

> <b_lp_Chiralities_Consistent>
1

> <s_lp_Variant>
CHEMBL3231_lig1135-1

> <s_i_glide_gridfile>
glide-grid_2etr

> <i_i_glide_lignum>
1574

> <i_i_glide_rotatable_bonds>
6

> <r_i_docking_score>
-7.18837018319968

> <r_i_glide_ligand_efficiency>
-0.266235932711099

> <r_i_glide_ligand_efficiency_sa>
-0.798707797255827

> <r_i_glide_ligand_efficiency_ln>
-1.67333406910439

> <r_i_glide_gscore>
-7.18837018319968

> <r_i_glide_lipo>
-2.0583871803465

> <r_i_glide_hbond>
-0.373274557293057

> <r_i_glide_metal>
0

> <r_i_glide_rewards>
-2.66217918848571

> <r_i_glide_evdw>
-40.7887992858887

> <r_i_glide_ecoul>
-4.58909320831299

> <r_i_glide_erotb>
0.723962308850073

> <r_i_glide_esite>
-0.0906876203830958

> <r_i_glide_emodel>
-61.6373632325

> <r_i_glide_energy>
-45.3778924942017

> <r_i_glide_einternal>
5.89357137680054

> <i_i_glide_confnum>
270

> <i_i_glide_posenum>
369

> <r_i_glide_eff_state_penalty>
0

> <s_user_duplicate_titles>
CHEMBL3231_lig1135

> <i_f3d_flags>
0

> <s_m_subgroup_title>
dock_pv

> <s_m_subgroupid>
dock_pv

> <b_m_subgroup_collapsed>
1

$$$$
CHEMBL3231_lig1613
                    3D
 Schrodinger Suite 2021-1.
 29 31  0  0  1  0            999 V2000
   49.9564   99.3829   25.1046 N   0  0  0  0  0  0
   50.0431   98.0579   25.2272 N   0  0  0  0  0  0
   50.8914   99.0717   27.0760 C   0  0  0  0  0  0
   50.4898  100.0444   26.1742 C   0  0  0  0  0  0
   51.9163  100.9200   28.4662 C   0  0  2  0  0  0
   51.5376   99.4043   28.4189 C   0  0  0  0  0  0
   52.4487  101.4488   29.8099 C   0  0  0  0  0  0
   50.5395  101.5366   26.3787 C   0  0  0  0  0  0
   50.7986  101.8234   27.8804 C   0  0  0  0  0  0
   50.6213   97.8774   26.3953 C   0  0  0  0  0  0
   52.3851  100.6967   30.9916 C   0  0  0  0  0  0
   53.0551  102.7130   29.8407 C   0  0  0  0  0  0
   52.9014  101.2091   32.1796 C   0  0  0  0  0  0
   53.5704  103.2262   31.0270 C   0  0  0  0  0  0
   53.4901  102.4709   32.1929 C   0  0  0  0  0  0
   49.5504   99.8263   24.2898 H   0  0  0  0  0  0
   52.7659  101.0854   27.8017 H   0  0  0  0  0  0
   52.4221   98.7887   28.5845 H   0  0  0  0  0  0
   50.8430   99.1532   29.2177 H   0  0  0  0  0  0
   49.6434  102.0404   26.0207 H   0  0  0  0  0  0
   51.3737  101.9077   25.7862 H   0  0  0  0  0  0
   51.0329  102.8811   28.0017 H   0  0  0  0  0  0
   49.8795  101.6543   28.4437 H   0  0  0  0  0  0
   50.8331   96.8861   26.7683 H   0  0  0  0  0  0
   51.9473   99.7113   31.0117 H   0  0  0  0  0  0
   53.1398  103.3035   28.9405 H   0  0  0  0  0  0
   52.8555  100.6244   33.0866 H   0  0  0  0  0  0
   54.0406  104.2000   31.0395 H   0  0  0  0  0  0
   53.9000  102.8636   33.1118 H   0  0  0  0  0  0
  1  2  1  0  0  0
  1  4  1  0  0  0
  1 16  1  0  0  0
  2 10  2  0  0  0
  3  4  2  0  0  0
  3  6  1  0  0  0
  3 10  1  0  0  0
  4  8  1  0  0  0
  5  6  1  0  0  0
  5  7  1  0  0  0
  5  9  1  0  0  0
  5 17  1  0  0  0
  6 18  1  0  0  0
  6 19  1  0  0  0
  7 11  2  0  0  0
  7 12  1  0  0  0
  8  9  1  0  0  0
  8 20  1  0  0  0
  8 21  1  0  0  0
  9 22  1  0  0  0
  9 23  1  0  0  0
 10 24  1  0  0  0
 11 13  1  0  0  0
 11 25  1  0  0  0
 12 14  2  0  0  0
 12 26  1  0  0  0
 13 15  2  0  0  0
 13 27  1  0  0  0
 14 15  1  0  0  0
 14 28  1  0  0  0
 15 29  1  0  0  0
M  END
> <s_m_entry_id>
28460

> <s_m_entry_name>
dock_pv.621

> <s_m_Source_Path>
/home/csk/Desktop/cluster/DUD-E-result/rock1

> <s_m_Source_File>
dock_pv.maegz

> <i_m_Source_File_Index>
621

> <chembl_id>
CHEMBL2000879

> <chembl_pref_name>
None

> <i_lp_mmshare_version>
53161

> <r_lp_tautomer_probability>
0.5

> <s_lp_Force_Field>
OPLS_2005

> <r_lp_Energy>
12.489504

> <b_lp_Chiralities_Consistent>
1

> <s_lp_Variant>
CHEMBL3231_lig1613-1

> <s_i_glide_gridfile>
glide-grid_2etr

> <i_i_glide_lignum>
2293

> <i_i_glide_rotatable_bonds>
1

> <r_i_docking_score>
-7.18808471364836

> <r_i_glide_ligand_efficiency>
-0.479205647576557

> <r_i_glide_ligand_efficiency_sa>
-1.18182275307385

> <r_i_glide_ligand_efficiency_ln>
-1.93850792837479

> <r_i_glide_gscore>
-7.18808471364836

> <r_i_glide_lipo>
-1.99617039203343

> <r_i_glide_hbond>
-0.379056974448775

> <r_i_glide_metal>
0

> <r_i_glide_rewards>
-3.23226008701671

> <r_i_glide_evdw>
-29.6248016357422

> <r_i_glide_ecoul>
-2.59581542015076

> <r_i_glide_erotb>
0.290015134660269

> <r_i_glide_esite>
0

> <r_i_glide_emodel>
-45.2910778282127

> <r_i_glide_energy>
-32.2206170558929

> <r_i_glide_einternal>
0.667255699634552

> <i_i_glide_confnum>
2

> <i_i_glide_posenum>
29

> <r_i_glide_eff_state_penalty>
0

> <s_user_duplicate_titles>
CHEMBL3231_lig1613,CHEMBL3231_lig1613

> <i_f3d_flags>
0

> <s_m_subgroup_title>
dock_pv

> <s_m_subgroupid>
dock_pv

> <b_m_subgroup_collapsed>
1

$$$$
CHEMBL3231_lig1055 
                    3D
 Schrodinger Suite 2021-1.
 61 64  0  0  1  0            999 V2000
   52.6771  101.6908   36.2963 C   0  0  0  0  0  0
   53.3459  100.4770   36.4376 C   0  0  0  0  0  0
   54.5440  100.2543   35.7543 C   0  0  0  0  0  0
   55.0633  101.2509   34.9218 C   0  0  0  0  0  0
   53.2034  102.6867   35.4755 C   0  0  0  0  0  0
   54.4075  102.4777   34.7696 C   0  0  0  0  0  0
   54.9553  103.5926   33.8829 C   0  0  0  0  0  0
   53.7890  104.4813   33.3692 C   0  0  2  0  0  0
   53.0025  104.9293   34.6322 C   0  0  0  0  0  0
   52.4132  103.8191   35.3293 O   0  0  0  0  0  0
   52.8673  103.7491   32.3546 C   0  0  0  0  0  0
   51.6431  103.9032   32.3934 O   0  0  0  0  0  0
   53.4753  102.9675   31.4418 N   0  0  0  0  0  0
   52.8335  102.1910   30.4681 C   0  0  0  0  0  0
   53.2428  100.8605   30.3006 C   0  0  0  0  0  0
   52.6024  100.0835   29.3217 C   0  0  0  0  0  0
   51.6290  100.6258   28.4701 C   0  0  0  0  0  0
   51.2446  101.9578   28.6633 C   0  0  0  0  0  0
   51.8418  102.7369   29.6464 C   0  0  0  0  0  0
   54.2294  100.3907   31.1532 O   0  0  0  0  0  0
   54.9731   99.2011   30.8715 C   0  0  0  0  0  0
   54.8335   98.2334   32.0684 C   0  0  0  0  0  0
   54.4359   96.8739   31.6833 N   0  0  0  0  0  0
   55.5245   96.1779   30.9967 C   0  0  0  0  0  0
   54.0657   96.1119   32.8733 C   0  0  0  0  0  0
   51.0498   99.8208   27.3568 C   0  0  0  0  0  0
   50.6981  100.4282   26.1398 C   0  0  0  0  0  0
   50.1931   99.6450   25.1044 C   0  0  0  0  0  0
   50.0429   98.3029   25.2106 N   0  0  0  0  0  0
   50.3839   97.7156   26.3814 C   0  0  0  0  0  0
   50.8729   98.4331   27.4718 C   0  0  0  0  0  0
   55.2698   98.9292   35.8974 C   0  0  0  0  0  0
   51.7419  101.8541   36.8101 H   0  0  0  0  0  0
   52.9297   99.7109   37.0769 H   0  0  0  0  0  0
   55.9941  101.0746   34.4013 H   0  0  0  0  0  0
   55.6076  104.1951   34.5178 H   0  0  0  0  0  0
   55.5864  103.2069   33.0796 H   0  0  0  0  0  0
   54.1752  105.3376   32.8128 H   0  0  0  0  0  0
   52.2334  105.6606   34.3811 H   0  0  0  0  0  0
   53.6834  105.4401   35.3149 H   0  0  0  0  0  0
   54.4640  102.7945   31.5519 H   0  0  0  0  0  0
   52.8718   99.0489   29.1958 H   0  0  0  0  0  0
   50.4872  102.4072   28.0382 H   0  0  0  0  0  0
   51.5484  103.7696   29.7559 H   0  0  0  0  0  0
   54.7571   98.7282   29.9170 H   0  0  0  0  0  0
   56.0167   99.5032   30.7881 H   0  0  0  0  0  0
   55.7727   98.2011   32.6230 H   0  0  0  0  0  0
   54.0916   98.6398   32.7579 H   0  0  0  0  0  0
   55.2442   95.1535   30.7497 H   0  0  0  0  0  0
   55.7718   96.6713   30.0567 H   0  0  0  0  0  0
   56.4301   96.1364   31.6080 H   0  0  0  0  0  0
   53.7361   95.1072   32.6060 H   0  0  0  0  0  0
   54.9000   96.0205   33.5719 H   0  0  0  0  0  0
   53.2377   96.5908   33.3962 H   0  0  0  0  0  0
   50.8238  101.4892   25.9851 H   0  0  0  0  0  0
   49.9173  100.0864   24.1568 H   0  0  0  0  0  0
   50.2637   96.6433   26.4245 H   0  0  0  0  0  0
   51.1195   97.9089   28.3839 H   0  0  0  0  0  0
   54.5672   98.1136   36.0810 H   0  0  0  0  0  0
   55.9827   98.9718   36.7223 H   0  0  0  0  0  0
   55.8109   98.6766   34.9835 H   0  0  0  0  0  0
  1  5  1  0  0  0
  1  2  2  0  0  0
  1 33  1  0  0  0
  2  3  1  0  0  0
  2 34  1  0  0  0
  3  4  2  0  0  0
  3 32  1  0  0  0
  4  6  1  0  0  0
  4 35  1  0  0  0
  5  6  2  0  0  0
  5 10  1  0  0  0
  6  7  1  0  0  0
  7  8  1  0  0  0
  7 36  1  0  0  0
  7 37  1  0  0  0
  8  9  1  0  0  0
  8 11  1  0  0  0
  8 38  1  0  0  0
  9 10  1  0  0  0
  9 39  1  0  0  0
  9 40  1  0  0  0
 11 12  2  0  0  0
 11 13  1  0  0  0
 13 14  1  0  0  0
 13 41  1  0  0  0
 14 15  2  0  0  0
 14 19  1  0  0  0
 15 16  1  0  0  0
 15 20  1  0  0  0
 16 17  2  0  0  0
 16 42  1  0  0  0
 17 18  1  0  0  0
 17 26  1  0  0  0
 18 19  2  0  0  0
 18 43  1  0  0  0
 19 44  1  0  0  0
 20 21  1  0  0  0
 21 22  1  0  0  0
 21 45  1  0  0  0
 21 46  1  0  0  0
 22 23  1  0  0  0
 22 47  1  0  0  0
 22 48  1  0  0  0
 23 24  1  0  0  0
 23 25  1  0  0  0
 24 49  1  0  0  0
 24 50  1  0  0  0
 24 51  1  0  0  0
 25 52  1  0  0  0
 25 53  1  0  0  0
 25 54  1  0  0  0
 26 27  2  0  0  0
 26 31  1  0  0  0
 27 28  1  0  0  0
 27 55  1  0  0  0
 28 29  2  0  0  0
 28 56  1  0  0  0
 29 30  1  0  0  0
 30 31  2  0  0  0
 30 57  1  0  0  0
 31 58  1  0  0  0
 32 59  1  0  0  0
 32 60  1  0  0  0
 32 61  1  0  0  0
M  END
> <s_m_entry_id>
28461

> <s_m_entry_name>
dock_pv.622

> <s_m_Source_Path>
/home/csk/Desktop/cluster/DUD-E-result/rock1

> <s_m_Source_File>
dock_pv.maegz

> <i_m_Source_File_Index>
622

> <chembl_id>
CHEMBL4513652

> <chembl_pref_name>
None

> <i_lp_mmshare_version>
53161

> <r_lp_tautomer_probability>
1

> <s_lp_Force_Field>
OPLS_2005

> <r_lp_Energy>
33.759602

> <b_lp_Chiralities_Consistent>
1

> <s_lp_Variant>
CHEMBL3231_lig1055 -1

> <s_i_glide_gridfile>
glide-grid_2etr

> <i_i_glide_lignum>
1473

> <i_i_glide_rotatable_bonds>
8

> <r_i_docking_score>
-7.18594669115425

> <r_i_glide_ligand_efficiency>
-0.22456083409857

> <r_i_glide_ligand_efficiency_sa>
-0.712936207734238

> <r_i_glide_ligand_efficiency_ln>
-1.60912934565815

> <r_i_glide_gscore>
-7.18594669115425

> <r_i_glide_lipo>
-2.2458715745398

> <r_i_glide_hbond>
-0.318625410836339

> <r_i_glide_metal>
0

> <r_i_glide_rewards>
-1.84183201475022

> <r_i_glide_evdw>
-45.8465118408203

> <r_i_glide_ecoul>
-7.6268162727356

> <r_i_glide_erotb>
0.7477066748638

> <r_i_glide_esite>
-0.0909763329403354

> <r_i_glide_emodel>
-73.959430942851

> <r_i_glide_energy>
-53.4733281135559

> <r_i_glide_einternal>
8.12780857086182

> <i_i_glide_confnum>
48

> <i_i_glide_posenum>
340

> <r_i_glide_eff_state_penalty>
0

> <s_user_duplicate_titles>
CHEMBL3231_lig1055 

> <i_f3d_flags>
0

> <s_m_subgroup_title>
dock_pv

> <s_m_subgroupid>
dock_pv

> <b_m_subgroup_collapsed>
1

$$$$
CHEMBL3231_lig181
                    3D
 Schrodinger Suite 2021-1.
 52 55  0  0  1  0            999 V2000
   51.5531  102.1277   28.8082 C   0  0  0  0  0  0
   51.5185  100.7322   28.6963 C   0  0  0  0  0  0
   51.9474   99.9765   29.7448 N   0  0  0  0  0  0
   52.3755  100.5776   30.8922 C   0  0  0  0  0  0
   52.3656  101.9910   30.9979 C   0  0  0  0  0  0
   51.9782  102.7522   29.9347 N   0  0  0  0  0  0
   52.6524  102.7007   32.1828 N   0  0  0  0  0  0
   51.0167   99.9987   27.4825 C   0  0  0  0  0  0
   50.0426   98.6056   25.2111 N   0  0  0  0  0  0
   50.4433   97.9436   26.3219 C   0  0  0  0  0  0
   50.9257   98.5932   27.4583 C   0  0  0  0  0  0
   52.8340   99.7175   31.8905 N   0  0  0  0  0  0
   50.1287   99.9580   25.2227 C   0  0  0  0  0  0
   50.6033  100.6795   26.3211 C   0  0  0  0  0  0
   54.1930   99.8267   32.4684 C   0  0  0  0  0  0
   55.1450   98.6459   32.1253 C   0  0  0  0  0  0
   54.5037   97.3638   32.4457 N   0  0  0  0  0  0
   53.3052   97.2807   31.6091 C   0  0  0  0  0  0
   52.3154   98.3554   32.0909 C   0  0  0  0  0  0
   55.4048   96.2190   32.2507 C   0  0  0  0  0  0
   54.8639   95.0064   33.0457 C   0  0  0  0  0  0
   55.6430   93.8537   32.8110 O   0  0  0  0  0  0
   52.2673  102.2559   33.5305 C   0  0  0  0  0  0
   52.0689  103.5039   34.3877 C   0  0  0  0  0  0
   53.0511  104.4699   33.7656 C   0  0  0  0  0  0
   52.8980  104.1433   32.2845 C   0  0  0  0  0  0
   51.2323  102.7799   28.0122 H   0  0  0  0  0  0
   50.3742   96.8651   26.2943 H   0  0  0  0  0  0
   51.2257   97.9970   28.3077 H   0  0  0  0  0  0
   49.8059  100.4649   24.3229 H   0  0  0  0  0  0
   50.6394  101.7542   26.2459 H   0  0  0  0  0  0
   54.6671  100.7481   32.1244 H   0  0  0  0  0  0
   54.1148   99.9082   33.5524 H   0  0  0  0  0  0
   56.0564   98.7496   32.7155 H   0  0  0  0  0  0
   55.4500   98.6864   31.0768 H   0  0  0  0  0  0
   53.5530   97.4447   30.5588 H   0  0  0  0  0  0
   52.8427   96.3030   31.6706 H   0  0  0  0  0  0
   51.3637   98.2223   31.5745 H   0  0  0  0  0  0
   52.1076   98.2224   33.1526 H   0  0  0  0  0  0
   56.3767   96.5031   32.6585 H   0  0  0  0  0  0
   55.4794   96.0079   31.1827 H   0  0  0  0  0  0
   53.8339   94.7670   32.7850 H   0  0  0  0  0  0
   54.8681   95.2221   34.1144 H   0  0  0  0  0  0
   56.3238   93.7734   33.4939 H   0  0  0  0  0  0
   51.3090  101.7334   33.5009 H   0  0  0  0  0  0
   53.0505  101.6710   34.0088 H   0  0  0  0  0  0
   51.0383  103.8600   34.3259 H   0  0  0  0  0  0
   52.2861  103.3181   35.4405 H   0  0  0  0  0  0
   54.0783  104.2982   34.0939 H   0  0  0  0  0  0
   52.8086  105.5062   33.9971 H   0  0  0  0  0  0
   53.7955  104.3969   31.7172 H   0  0  0  0  0  0
   52.0719  104.7040   31.8484 H   0  0  0  0  0  0
  1  6  1  0  0  0
  1  2  2  0  0  0
  1 27  1  0  0  0
  2  3  1  0  0  0
  2  8  1  0  0  0
  3  4  2  0  0  0
  4 12  1  0  0  0
  4  5  1  0  0  0
  5  7  1  0  0  0
  5  6  2  0  0  0
  7 23  1  0  0  0
  7 26  1  0  0  0
  8 14  2  0  0  0
  8 11  1  0  0  0
  9 13  2  0  0  0
  9 10  1  0  0  0
 10 11  2  0  0  0
 10 28  1  0  0  0
 11 29  1  0  0  0
 12 15  1  0  0  0
 12 19  1  0  0  0
 13 14  1  0  0  0
 13 30  1  0  0  0
 14 31  1  0  0  0
 15 16  1  0  0  0
 15 32  1  0  0  0
 15 33  1  0  0  0
 16 17  1  0  0  0
 16 34  1  0  0  0
 16 35  1  0  0  0
 17 18  1  0  0  0
 17 20  1  0  0  0
 18 19  1  0  0  0
 18 36  1  0  0  0
 18 37  1  0  0  0
 19 38  1  0  0  0
 19 39  1  0  0  0
 20 21  1  0  0  0
 20 40  1  0  0  0
 20 41  1  0  0  0
 21 22  1  0  0  0
 21 42  1  0  0  0
 21 43  1  0  0  0
 22 44  1  0  0  0
 23 24  1  0  0  0
 23 45  1  0  0  0
 23 46  1  0  0  0
 24 25  1  0  0  0
 24 47  1  0  0  0
 24 48  1  0  0  0
 25 26  1  0  0  0
 25 49  1  0  0  0
 25 50  1  0  0  0
 26 51  1  0  0  0
 26 52  1  0  0  0
M  END
> <s_m_entry_id>
28462

> <s_m_entry_name>
dock_pv.623

> <s_m_Source_Path>
/home/csk/Desktop/cluster/DUD-E-result/rock1

> <s_m_Source_File>
dock_pv.maegz

> <i_m_Source_File_Index>
623

> <chembl_id>
CHEMBL599163

> <chembl_pref_name>
None

> <i_lp_mmshare_version>
53161

> <r_lp_tautomer_probability>
1

> <s_lp_Force_Field>
OPLS_2005

> <r_lp_Energy>
82.768202

> <b_lp_Chiralities_Consistent>
1

> <s_lp_Variant>
CHEMBL3231_lig181-1

> <s_i_glide_gridfile>
glide-grid_2etr

> <i_i_glide_lignum>
308

> <i_i_glide_rotatable_bonds>
6

> <r_i_docking_score>
-7.18303467787455

> <r_i_glide_ligand_efficiency>
-0.276270564533637

> <r_i_glide_ligand_efficiency_sa>
-0.81845046035872

> <r_i_glide_ligand_efficiency_ln>
-1.68691212463965

> <r_i_glide_gscore>
-7.18303467787455

> <r_i_glide_lipo>
-2.22260771277883

> <r_i_glide_hbond>
-0.435108506165338

> <r_i_glide_metal>
0

> <r_i_glide_rewards>
-2.30905753030303

> <r_i_glide_evdw>
-41.0308570861816

> <r_i_glide_ecoul>
-5.8982982635498

> <r_i_glide_erotb>
0.760495134132337

> <r_i_glide_esite>
-0.0404684689181435

> <r_i_glide_emodel>
-66.6539353963803

> <r_i_glide_energy>
-46.9291553497314

> <r_i_glide_einternal>
4.03155755996704

> <i_i_glide_confnum>
122

> <i_i_glide_posenum>
113

> <r_i_glide_eff_state_penalty>
0

> <s_user_duplicate_titles>
CHEMBL3231_lig181,599200

> <i_f3d_flags>
0

> <s_m_subgroup_title>
dock_pv

> <s_m_subgroupid>
dock_pv

> <b_m_subgroup_collapsed>
1

$$$$
CHEMBL3231_lig1418
                    3D
 Schrodinger Suite 2021-1.
 48 52  0  0  1  0            999 V2000
   46.4435  103.4218   34.8065 Cl  0  0  0  0  0  0
   50.8168  100.4555   35.5452 O   0  0  0  0  0  0
   55.4982  100.2329   36.3253 N   0  0  0  0  0  0
   54.5480  100.9807   36.9210 N   0  0  0  0  0  0
   52.4329  101.8470   36.3524 N   0  0  0  0  0  0
   51.9620   98.9140   29.5630 N   0  0  0  0  0  0
   53.6062  100.1336   30.3226 N   0  0  0  0  0  0
   52.8414   99.8562   29.2109 N   0  0  0  0  0  0
   53.8265  100.3598   34.8652 C   0  0  0  0  0  0
   55.1299   99.8367   35.0550 C   0  0  0  0  0  0
   53.5433  101.0632   36.0859 C   0  0  0  0  0  0
   53.8487   99.4561   32.6338 C   0  0  0  0  0  0
   53.1802  100.1515   33.6372 C   0  0  0  0  0  0
   53.2005   99.3602   31.3091 C   0  0  0  0  0  0
   55.7979   99.1091   34.0640 C   0  0  0  0  0  0
   55.1303   98.9432   32.8482 C   0  0  0  0  0  0
   52.1519   98.5557   30.8750 C   0  0  0  0  0  0
   51.1649  101.5518   35.9917 C   0  0  0  0  0  0
   50.1410  102.6534   36.1687 C   0  0  0  0  0  0
   51.0947   98.2801   28.5672 C   0  0  0  0  0  0
   48.8909  102.5364   35.5400 C   0  0  0  0  0  0
   50.6573   99.1061   27.3523 C   0  0  0  0  0  0
   50.4110  103.8207   36.9075 C   0  0  0  0  0  0
   47.9528  103.5626   35.6228 C   0  0  0  0  0  0
   49.4625  104.8387   37.0038 C   0  0  0  0  0  0
   48.2361  104.7096   36.3567 C   0  0  0  0  0  0
   50.4377  100.4856   27.4475 C   0  0  0  0  0  0
   50.4496   98.4540   26.1317 C   0  0  0  0  0  0
   50.0453  101.2073   26.3257 C   0  0  0  0  0  0
   50.0429   99.1794   25.0159 C   0  0  0  0  0  0
   49.8393  100.5491   25.1189 C   0  0  0  0  0  0
   56.3780  100.0575   36.7880 H   0  0  0  0  0  0
   52.5851  102.6400   36.9538 H   0  0  0  0  0  0
   52.2046  100.5695   33.4443 H   0  0  0  0  0  0
   56.7988   98.7254   34.2025 H   0  0  0  0  0  0
   55.6345   98.4253   32.0421 H   0  0  0  0  0  0
   51.5710   97.7792   31.3520 H   0  0  0  0  0  0
   51.6415   97.4157   28.2048 H   0  0  0  0  0  0
   50.2112   97.9006   29.0766 H   0  0  0  0  0  0
   48.6447  101.6560   34.9620 H   0  0  0  0  0  0
   51.3561  103.9649   37.4104 H   0  0  0  0  0  0
   49.6873  105.7335   37.5655 H   0  0  0  0  0  0
   47.5050  105.5003   36.4107 H   0  0  0  0  0  0
   50.5754  101.0052   28.3848 H   0  0  0  0  0  0
   50.6063   97.3880   26.0460 H   0  0  0  0  0  0
   49.8881  102.2739   26.3947 H   0  0  0  0  0  0
   49.8796   98.7001   24.0647 H   0  0  0  0  0  0
   49.5111  101.1004   24.2506 H   0  0  0  0  0  0
  1 24  1  0  0  0
  2 18  2  0  0  0
  3  4  1  0  0  0
  3 10  1  0  0  0
  3 32  1  0  0  0
  4 11  2  0  0  0
  5 11  1  0  0  0
  5 18  1  0  0  0
  5 33  1  0  0  0
  6  8  1  0  0  0
  6 17  1  0  0  0
  6 20  1  0  0  0
  7  8  2  0  0  0
  7 14  1  0  0  0
  9 10  1  0  0  0
  9 11  1  0  0  0
  9 13  2  0  0  0
 10 15  2  0  0  0
 12 13  1  0  0  0
 12 14  1  0  0  0
 12 16  2  0  0  0
 13 34  1  0  0  0
 14 17  2  0  0  0
 15 16  1  0  0  0
 15 35  1  0  0  0
 16 36  1  0  0  0
 17 37  1  0  0  0
 18 19  1  0  0  0
 19 21  2  0  0  0
 19 23  1  0  0  0
 20 22  1  0  0  0
 20 38  1  0  0  0
 20 39  1  0  0  0
 21 24  1  0  0  0
 21 40  1  0  0  0
 22 27  2  0  0  0
 22 28  1  0  0  0
 23 25  2  0  0  0
 23 41  1  0  0  0
 24 26  2  0  0  0
 25 26  1  0  0  0
 25 42  1  0  0  0
 26 43  1  0  0  0
 27 29  1  0  0  0
 27 44  1  0  0  0
 28 30  2  0  0  0
 28 45  1  0  0  0
 29 31  2  0  0  0
 29 46  1  0  0  0
 30 31  1  0  0  0
 30 47  1  0  0  0
 31 48  1  0  0  0
M  END
> <s_m_entry_id>
28463

> <s_m_entry_name>
dock_pv.624

> <s_m_Source_Path>
/home/csk/Desktop/cluster/DUD-E-result/rock1

> <s_m_Source_File>
dock_pv.maegz

> <i_m_Source_File_Index>
624

> <chembl_id>
CHEMBL1983595

> <chembl_pref_name>
None

> <i_lp_mmshare_version>
53161

> <r_lp_tautomer_probability>
0.980392156862745

> <s_lp_Force_Field>
OPLS_2005

> <r_lp_Energy>
21.347186

> <b_lp_Chiralities_Consistent>
1

> <s_lp_Variant>
CHEMBL3231_lig1418-1

> <s_i_glide_gridfile>
glide-grid_2etr

> <i_i_glide_lignum>
1989

> <i_i_glide_rotatable_bonds>
6

> <r_i_docking_score>
-7.18173182249766

> <r_i_glide_ligand_efficiency>
-0.231668768467667

> <r_i_glide_ligand_efficiency_sa>
-0.72775978619463

> <r_i_glide_ligand_efficiency_ln>
-1.61970061962134

> <r_i_glide_gscore>
-7.18173182249766

> <r_i_glide_lipo>
-3.99137834020094

> <r_i_glide_hbond>
0

> <r_i_glide_metal>
0

> <r_i_glide_rewards>
-1.40705742436885

> <r_i_glide_evdw>
-49.4165420532227

> <r_i_glide_ecoul>
0.47529724240303

> <r_i_glide_erotb>
0.64809181424562

> <r_i_glide_esite>
-0.0318553558728119

> <r_i_glide_emodel>
-65.7913106503571

> <r_i_glide_energy>
-48.9412448108196

> <r_i_glide_einternal>
11.5901956558228

> <i_i_glide_confnum>
53

> <i_i_glide_posenum>
223

> <r_i_glide_eff_state_penalty>
0

> <s_user_duplicate_titles>
CHEMBL3231_lig1418

> <i_f3d_flags>
0

> <s_m_subgroup_title>
dock_pv

> <s_m_subgroupid>
dock_pv

> <b_m_subgroup_collapsed>
1

$$$$
CHEMBL3231_lig339
                    3D
 Schrodinger Suite 2021-1.
 50 54  0  0  1  0            999 V2000
   52.0757  101.0831   28.5098 C   0  0  0  0  0  0
   51.6157   99.7955   28.2210 C   0  0  0  0  0  0
   51.7662   98.7306   29.0598 N   0  0  0  0  0  0
   52.7468  101.3230   29.7101 C   0  0  0  0  0  0
   52.9051  100.2566   30.6150 C   0  0  0  0  0  0
   52.4045   98.9889   30.2033 C   0  0  0  0  0  0
   52.7281   98.0779   31.1814 N   0  0  0  0  0  0
   53.4154   98.7229   32.1789 C   0  0  0  0  0  0
   53.4740  100.0931   31.9366 C   0  0  0  0  0  0
   50.9561   99.4931   26.9169 C   0  0  0  0  0  0
   50.5799  100.3683   25.9036 C   0  0  0  0  0  0
   50.0403   99.5991   24.9099 N   0  0  0  0  0  0
   50.0427   98.3011   25.2114 N   0  0  0  0  0  0
   50.5749   98.2397   26.4074 C   0  0  0  0  0  0
   54.0810  101.0350   32.8589 C   0  0  0  0  0  0
   53.5655  102.2978   32.9316 N   0  0  0  0  0  0
   55.0168  100.6574   33.5644 O   0  0  0  0  0  0
   52.1610  102.6498   32.6435 C   0  0  0  0  0  0
   51.1790  102.4156   33.7800 C   0  0  0  0  0  0
   50.4393  103.4812   34.2946 C   0  0  0  0  0  0
   49.4289  103.2662   35.2321 C   0  0  0  0  0  0
   49.2048  101.9619   35.6974 C   0  0  0  0  0  0
   49.9649  100.8990   35.2176 C   0  0  0  0  0  0
   50.9397  101.1204   34.2531 C   0  0  0  0  0  0
   48.6979  104.3703   35.6216 O   0  0  0  0  0  0
   47.5511  104.1604   36.4326 C   0  0  0  0  0  0
   54.2363  103.2989   33.7691 C   0  0  0  0  0  0
   55.6109  103.7820   33.3683 C   0  0  0  0  0  0
   54.4228  104.7153   33.2668 C   0  0  0  0  0  0
   51.9502  101.8877   27.8005 H   0  0  0  0  0  0
   53.1378  102.3048   29.9363 H   0  0  0  0  0  0
   52.5384   97.0862   31.1951 H   0  0  0  0  0  0
   53.7778   98.1564   33.0263 H   0  0  0  0  0  0
   50.6456  101.4429   25.8021 H   0  0  0  0  0  0
   49.6643   99.9449   24.0351 H   0  0  0  0  0  0
   50.7079   97.2919   26.9097 H   0  0  0  0  0  0
   51.7478  102.0961   31.8103 H   0  0  0  0  0  0
   52.1176  103.6936   32.3311 H   0  0  0  0  0  0
   50.6236  104.4828   33.9428 H   0  0  0  0  0  0
   48.4429  101.7489   36.4291 H   0  0  0  0  0  0
   49.7873   99.9032   35.5869 H   0  0  0  0  0  0
   51.4940  100.2799   33.8655 H   0  0  0  0  0  0
   47.0466  105.1033   36.6137 H   0  0  0  0  0  0
   46.8298  103.5021   35.9437 H   0  0  0  0  0  0
   47.8158  103.7411   37.4037 H   0  0  0  0  0  0
   54.0453  103.1581   34.8353 H   0  0  0  0  0  0
   56.3533  103.9107   34.1564 H   0  0  0  0  0  0
   56.0435  103.3923   32.4473 H   0  0  0  0  0  0
   54.0424  104.9859   32.2795 H   0  0  0  0  0  0
   54.3219  105.5355   33.9753 H   0  0  0  0  0  0
  1  2  2  0  0  0
  1  4  1  0  0  0
  1 30  1  0  0  0
  2 10  1  0  0  0
  2  3  1  0  0  0
  3  6  2  0  0  0
  4  5  2  0  0  0
  4 31  1  0  0  0
  5  9  1  0  0  0
  5  6  1  0  0  0
  6  7  1  0  0  0
  7  8  1  0  0  0
  7 32  1  0  0  0
  8  9  2  0  0  0
  8 33  1  0  0  0
  9 15  1  0  0  0
 10 14  1  0  0  0
 10 11  2  0  0  0
 11 12  1  0  0  0
 11 34  1  0  0  0
 12 13  1  0  0  0
 12 35  1  0  0  0
 13 14  2  0  0  0
 14 36  1  0  0  0
 15 16  1  0  0  0
 15 17  2  0  0  0
 16 18  1  0  0  0
 16 27  1  0  0  0
 18 19  1  0  0  0
 18 37  1  0  0  0
 18 38  1  0  0  0
 19 20  2  0  0  0
 19 24  1  0  0  0
 20 21  1  0  0  0
 20 39  1  0  0  0
 21 22  2  0  0  0
 21 25  1  0  0  0
 22 23  1  0  0  0
 22 40  1  0  0  0
 23 24  2  0  0  0
 23 41  1  0  0  0
 24 42  1  0  0  0
 25 26  1  0  0  0
 26 43  1  0  0  0
 26 44  1  0  0  0
 26 45  1  0  0  0
 27 28  1  0  0  0
 27 29  1  0  0  0
 27 46  1  0  0  0
 28 29  1  0  0  0
 28 47  1  0  0  0
 28 48  1  0  0  0
 29 49  1  0  0  0
 29 50  1  0  0  0
M  END
> <s_m_entry_id>
28464

> <s_m_entry_name>
dock_pv.625

> <s_m_Source_Path>
/home/csk/Desktop/cluster/DUD-E-result/rock1

> <s_m_Source_File>
dock_pv.maegz

> <i_m_Source_File_Index>
625

> <chembl_id>
CHEMBL1922133

> <chembl_pref_name>
None

> <i_lp_mmshare_version>
53161

> <r_lp_tautomer_probability>
0.499999608131807

> <s_lp_Force_Field>
OPLS_2005

> <r_lp_Energy>
46.288417

> <b_lp_Chiralities_Consistent>
1

> <s_lp_Variant>
CHEMBL3231_lig339-1

> <s_i_glide_gridfile>
glide-grid_2etr

> <i_i_glide_lignum>
487

> <i_i_glide_rotatable_bonds>
7

> <r_i_docking_score>
-7.18086207002656

> <r_i_glide_ligand_efficiency>
-0.247615933449192

> <r_i_glide_ligand_efficiency_sa>
-0.760754597789963

> <r_i_glide_ligand_efficiency_ln>
-1.64423532308522

> <r_i_glide_gscore>
-7.18086207002656

> <r_i_glide_lipo>
-2.6778666630242

> <r_i_glide_hbond>
-0.42681283770585

> <r_i_glide_metal>
0

> <r_i_glide_rewards>
-1.64820732524129

> <r_i_glide_evdw>
-49.9659423828125

> <r_i_glide_ecoul>
-2.96352052688599

> <r_i_glide_erotb>
0.544880091074106

> <r_i_glide_esite>
-0.030030136955799

> <r_i_glide_emodel>
-71.2332454111919

> <r_i_glide_energy>
-52.9294629096985

> <r_i_glide_einternal>
6.87804889678955

> <i_i_glide_confnum>
19

> <i_i_glide_posenum>
357

> <r_i_glide_eff_state_penalty>
0

> <s_user_duplicate_titles>
CHEMBL3231_lig339

> <i_f3d_flags>
0

> <s_m_subgroup_title>
dock_pv

> <s_m_subgroupid>
dock_pv

> <b_m_subgroup_collapsed>
1

$$$$
CHEMBL3231_lig911
                    3D
 Schrodinger Suite 2021-1.
 37 39  0  0  1  0            999 V2000
   53.0495  100.4434   34.4650 C   0  0  0  0  0  0
   53.2474  100.8971   32.9743 C   0  0  1  0  0  0
   54.7209  100.8754   32.4957 C   0  0  0  0  0  0
   52.5205   99.9108   32.1397 N   0  0  0  0  0  0
   52.6906  102.2664   32.7687 N   0  0  0  0  0  0
   52.0431  102.7378   31.6738 C   0  0  0  0  0  0
   52.1301  100.3421   30.8948 C   0  0  0  0  0  0
   51.9194  101.7024   30.6817 C   0  0  0  0  0  0
   51.3320  101.9809   29.0719 S   0  0  0  0  0  0
   51.3786  100.2713   28.6882 C   0  0  0  0  0  0
   51.8540   99.5467   29.7859 C   0  0  0  0  0  0
   50.9131   99.7574   27.3571 C   0  0  0  0  0  0
   50.8795   98.3740   27.1367 C   0  0  0  0  0  0
   50.4440   97.8918   25.9045 C   0  0  0  0  0  0
   50.0417   98.7026   24.8957 N   0  0  0  0  0  0
   50.0679  100.0401   25.1120 C   0  0  0  0  0  0
   50.4947  100.6037   26.3166 C   0  0  0  0  0  0
   51.6469  103.8999   31.6262 O   0  0  0  0  0  0
   53.6235   99.0455   34.8056 C   0  0  0  0  0  0
   51.5828  100.5368   34.9639 C   0  0  0  0  0  0
   53.6162  101.1505   35.0763 H   0  0  0  0  0  0
   54.8285  101.2230   31.4661 H   0  0  0  0  0  0
   55.3365  101.5294   33.1163 H   0  0  0  0  0  0
   55.1646   99.8789   32.5370 H   0  0  0  0  0  0
   52.7690   98.9491   32.3229 H   0  0  0  0  0  0
   52.9203  102.9611   33.4625 H   0  0  0  0  0  0
   51.9687   98.4727   29.8072 H   0  0  0  0  0  0
   51.1827   97.6698   27.8963 H   0  0  0  0  0  0
   50.4338   96.8293   25.7092 H   0  0  0  0  0  0
   49.7322  100.6631   24.2987 H   0  0  0  0  0  0
   50.4939  101.6783   26.4246 H   0  0  0  0  0  0
   53.1391   98.2490   34.2361 H   0  0  0  0  0  0
   53.4901   98.8118   35.8626 H   0  0  0  0  0  0
   54.6956   98.9921   34.6104 H   0  0  0  0  0  0
   50.9290   99.8532   34.4196 H   0  0  0  0  0  0
   51.5084  100.2870   36.0242 H   0  0  0  0  0  0
   51.1814  101.5438   34.8446 H   0  0  0  0  0  0
  1  2  1  0  0  0
  1 19  1  0  0  0
  1 20  1  0  0  0
  1 21  1  0  0  0
  2  3  1  0  0  0
  2  4  1  0  0  0
  2  5  1  0  0  0
  3 22  1  0  0  0
  3 23  1  0  0  0
  3 24  1  0  0  0
  4  7  1  0  0  0
  4 25  1  0  0  0
  5  6  1  0  0  0
  5 26  1  0  0  0
  6  8  1  0  0  0
  6 18  2  0  0  0
  7  8  2  0  0  0
  7 11  1  0  0  0
  8  9  1  0  0  0
  9 10  1  0  0  0
 10 11  2  0  0  0
 10 12  1  0  0  0
 11 27  1  0  0  0
 12 13  2  0  0  0
 12 17  1  0  0  0
 13 14  1  0  0  0
 13 28  1  0  0  0
 14 15  2  0  0  0
 14 29  1  0  0  0
 15 16  1  0  0  0
 16 17  2  0  0  0
 16 30  1  0  0  0
 17 31  1  0  0  0
 19 32  1  0  0  0
 19 33  1  0  0  0
 19 34  1  0  0  0
 20 35  1  0  0  0
 20 36  1  0  0  0
 20 37  1  0  0  0
M  END
> <s_m_entry_id>
28465

> <s_m_entry_name>
dock_pv.626

> <s_m_Source_Path>
/home/csk/Desktop/cluster/DUD-E-result/rock1

> <s_m_Source_File>
dock_pv.maegz

> <i_m_Source_File_Index>
626

> <chembl_id>
CHEMBL4207608

> <chembl_pref_name>
None

> <i_lp_mmshare_version>
53161

> <r_lp_tautomer_probability>
0.99999637101317

> <s_lp_Force_Field>
OPLS_2005

> <r_lp_Energy>
22.141751

> <b_lp_Chiralities_Consistent>
1

> <s_lp_Variant>
CHEMBL3231_lig911-2

> <s_i_glide_gridfile>
glide-grid_2etr

> <i_i_glide_lignum>
1307

> <i_i_glide_rotatable_bonds>
2

> <r_i_docking_score>
-7.18031567958416

> <r_i_glide_ligand_efficiency>
-0.359015783979208

> <r_i_glide_ligand_efficiency_sa>
-0.974518767695661

> <r_i_glide_ligand_efficiency_ln>
-1.79699619193897

> <r_i_glide_gscore>
-7.18031567958416

> <r_i_glide_lipo>
-2.27095216365701

> <r_i_glide_hbond>
-0.324032529885164

> <r_i_glide_metal>
0

> <r_i_glide_rewards>
-2.3874519096958

> <r_i_glide_evdw>
-32.8861694335938

> <r_i_glide_ecoul>
-4.71024084091187

> <r_i_glide_erotb>
0.220074523103968

> <r_i_glide_esite>
-0.0671090016336834

> <r_i_glide_emodel>
-54.7280222989476

> <r_i_glide_energy>
-37.5964102745056

> <r_i_glide_einternal>
0.0361489020287991

> <i_i_glide_confnum>
1

> <i_i_glide_posenum>
68

> <r_i_glide_eff_state_penalty>
0

> <s_user_duplicate_titles>
CHEMBL3231_lig911

> <i_f3d_flags>
0

> <s_m_subgroup_title>
dock_pv

> <s_m_subgroupid>
dock_pv

> <b_m_subgroup_collapsed>
1

$$$$
CHEMBL3231_lig1571
                    3D
 Schrodinger Suite 2021-1.
 42 44  0  0  1  0            999 V2000
   52.0418  104.0347   32.2073 O   0  0  0  0  0  0
   55.2430  105.8753   34.4962 O   0  0  0  0  0  0
   54.1394  103.1585   32.0786 N   0  0  0  0  0  0
   50.0431   98.3038   25.2109 N   0  0  0  0  0  0
   52.4215  102.4196   30.5168 C   0  0  0  0  0  0
   51.4802  100.7971   28.4209 C   0  0  0  0  0  0
   52.8562  103.2772   31.6768 C   0  0  0  0  0  0
   50.9827   99.9358   27.3078 C   0  0  0  0  0  0
   54.7622  103.7509   33.2814 C   0  0  2  0  0  0
   52.9346  101.1306   30.3376 C   0  0  0  0  0  0
   51.4414  102.8930   29.6379 C   0  0  0  0  0  0
   52.4639  100.3304   29.3013 C   0  0  0  0  0  0
   50.9746  102.0880   28.6056 C   0  0  0  0  0  0
   54.6224  102.8766   34.5362 C   0  0  0  0  0  0
   50.5861  100.4889   26.0797 C   0  0  0  0  0  0
   50.8984   98.5418   27.4537 C   0  0  0  0  0  0
   55.7628  102.5292   35.2716 C   0  0  0  0  0  0
   53.3677  102.4160   34.9583 C   0  0  0  0  0  0
   54.4035  105.2387   33.5494 C   0  0  0  0  0  0
   50.1165   99.6509   25.0694 C   0  0  0  0  0  0
   50.4397   97.7689   26.3898 C   0  0  0  0  0  0
   55.6532  101.7216   36.3999 C   0  0  0  0  0  0
   53.2568  101.6093   36.0870 C   0  0  0  0  0  0
   54.3998  101.2629   36.8055 C   0  0  0  0  0  0
   54.9622  106.7961   34.5374 H   0  0  0  0  0  0
   54.7294  102.5333   31.5489 H   0  0  0  0  0  0
   55.8200  103.7587   33.0087 H   0  0  0  0  0  0
   53.6833  100.7239   31.0060 H   0  0  0  0  0  0
   51.0320  103.8855   29.7514 H   0  0  0  0  0  0
   52.8839   99.3417   29.1889 H   0  0  0  0  0  0
   50.2099  102.4805   27.9501 H   0  0  0  0  0  0
   50.6415  101.5531   25.9007 H   0  0  0  0  0  0
   51.1813   98.0568   28.3770 H   0  0  0  0  0  0
   56.7428  102.8733   34.9667 H   0  0  0  0  0  0
   52.4735  102.6789   34.4116 H   0  0  0  0  0  0
   54.4430  105.8075   32.6220 H   0  0  0  0  0  0
   53.3817  105.3314   33.9183 H   0  0  0  0  0  0
   49.8008  100.0522   24.1165 H   0  0  0  0  0  0
   50.3776   96.6949   26.4734 H   0  0  0  0  0  0
   56.5406  101.4466   36.9542 H   0  0  0  0  0  0
   52.2884  101.2488   36.4052 H   0  0  0  0  0  0
   54.3165  100.6292   37.6782 H   0  0  0  0  0  0
  1  7  2  0  0  0
  2 19  1  0  0  0
  2 25  1  0  0  0
  3  7  1  0  0  0
  3  9  1  0  0  0
  3 26  1  0  0  0
  4 20  2  0  0  0
  4 21  1  0  0  0
  5  7  1  0  0  0
  5 10  2  0  0  0
  5 11  1  0  0  0
  6  8  1  0  0  0
  6 12  2  0  0  0
  6 13  1  0  0  0
  8 15  2  0  0  0
  8 16  1  0  0  0
  9 14  1  0  0  0
  9 19  1  0  0  0
  9 27  1  0  0  0
 10 12  1  0  0  0
 10 28  1  0  0  0
 11 13  2  0  0  0
 11 29  1  0  0  0
 12 30  1  0  0  0
 13 31  1  0  0  0
 14 17  2  0  0  0
 14 18  1  0  0  0
 15 20  1  0  0  0
 15 32  1  0  0  0
 16 21  2  0  0  0
 16 33  1  0  0  0
 17 22  1  0  0  0
 17 34  1  0  0  0
 18 23  2  0  0  0
 18 35  1  0  0  0
 19 36  1  0  0  0
 19 37  1  0  0  0
 20 38  1  0  0  0
 21 39  1  0  0  0
 22 24  2  0  0  0
 22 40  1  0  0  0
 23 24  1  0  0  0
 23 41  1  0  0  0
 24 42  1  0  0  0
M  END
> <s_m_entry_id>
28466

> <s_m_entry_name>
dock_pv.627

> <s_m_Source_Path>
/home/csk/Desktop/cluster/DUD-E-result/rock1

> <s_m_Source_File>
dock_pv.maegz

> <i_m_Source_File_Index>
627

> <chembl_id>
CHEMBL1974288

> <chembl_pref_name>
None

> <i_lp_mmshare_version>
53161

> <r_lp_tautomer_probability>
1

> <s_lp_Force_Field>
OPLS_2005

> <r_lp_Energy>
14.101818

> <b_lp_Chiralities_Consistent>
1

> <s_lp_Variant>
CHEMBL3231_lig1571-1

> <s_i_glide_gridfile>
glide-grid_2etr

> <i_i_glide_lignum>
2228

> <i_i_glide_rotatable_bonds>
7

> <r_i_docking_score>
-7.17867475889821

> <r_i_glide_ligand_efficiency>
-0.299111448287425

> <r_i_glide_ligand_efficiency_sa>
-0.862786714619137

> <r_i_glide_ligand_efficiency_ln>
-1.71818627772452

> <r_i_glide_gscore>
-7.17867475889821

> <r_i_glide_lipo>
-2.14880436353874

> <r_i_glide_hbond>
-0.285595194299298

> <r_i_glide_metal>
0

> <r_i_glide_rewards>
-2.59486834298897

> <r_i_glide_evdw>
-38.3759002685547

> <r_i_glide_ecoul>
-7.15812206268311

> <r_i_glide_erotb>
0.919698610005527

> <r_i_glide_esite>
-0.0765921452465314

> <r_i_glide_emodel>
-64.8768553399708

> <r_i_glide_energy>
-45.5340223312378

> <r_i_glide_einternal>
3.32226657867432

> <i_i_glide_confnum>
4

> <i_i_glide_posenum>
51

> <r_i_glide_eff_state_penalty>
0

> <s_user_duplicate_titles>
CHEMBL3231_lig1571

> <i_f3d_flags>
0

> <s_m_subgroup_title>
dock_pv

> <s_m_subgroupid>
dock_pv

> <b_m_subgroup_collapsed>
1

$$$$
CHEMBL3231_lig183
                    3D
 Schrodinger Suite 2021-1.
 60 64  0  0  1  0            999 V2000
   52.1988   99.9717   36.1856 C   0  0  0  0  0  0
   53.3239   99.2024   35.8619 C   0  0  0  0  0  0
   54.3163   99.7911   35.0590 C   0  0  0  0  0  0
   52.0411  101.2652   35.6930 C   0  0  0  0  0  0
   53.0215  101.8196   34.8753 C   0  0  0  0  0  0
   54.1846  101.0931   34.5650 C   0  0  0  0  0  0
   55.2408  101.7193   33.6665 C   0  0  0  0  0  0
   54.5898  102.7617   32.7236 C   0  0  2  0  0  0
   53.7682  103.7207   33.6176 C   0  0  0  0  0  0
   52.7073  103.0453   34.3089 O   0  0  0  0  0  0
   53.7826  102.1539   31.5734 C   0  0  0  0  0  0
   53.4674  100.8859   31.5303 N   0  0  0  0  0  0
   53.1827  103.0993   30.2197 S   0  0  0  0  0  0
   52.4787  101.6320   29.5502 C   0  0  0  0  0  0
   52.7608  100.5572   30.4252 C   0  0  0  0  0  0
   52.3235   99.2636   30.1205 C   0  0  0  0  0  0
   51.6426   99.0629   28.9209 C   0  0  0  0  0  0
   51.3793  100.1193   28.0403 C   0  0  0  0  0  0
   51.7699  101.4250   28.3596 C   0  0  0  0  0  0
   50.7191   99.8420   26.7340 C   0  0  0  0  0  0
   50.6610   98.6211   26.0388 C   0  0  0  0  0  0
   50.0428   98.7027   24.8882 N   0  0  0  0  0  0
   49.6580   99.9754   24.8108 N   0  0  0  0  0  0
   50.0433  100.7171   25.8945 C   0  0  0  0  0  0
   53.4231   97.7683   36.3427 C   0  0  0  0  0  0
   54.6187   97.1727   36.2155 N   0  0  0  0  0  0
   54.9341   95.7806   36.5152 C   0  0  0  0  0  0
   52.4432   97.1840   36.8102 O   0  0  0  0  0  0
   56.4545   95.5586   36.6787 C   0  0  0  0  0  0
   57.3260   96.0361   35.4890 C   0  0  0  0  0  0
   57.3537   97.4980   35.3388 N   0  0  0  0  0  0
   58.1958   98.1422   36.3448 C   0  0  0  0  0  0
   57.8343   97.8605   34.0110 C   0  0  0  0  0  0
   51.4235   99.5607   36.8102 H   0  0  0  0  0  0
   55.1998   99.2354   34.7774 H   0  0  0  0  0  0
   51.1467  101.8260   35.9191 H   0  0  0  0  0  0
   55.9988  102.1908   34.2954 H   0  0  0  0  0  0
   55.7370  100.9403   33.0846 H   0  0  0  0  0  0
   55.4008  103.3401   32.2772 H   0  0  0  0  0  0
   53.3454  104.5341   33.0255 H   0  0  0  0  0  0
   54.4278  104.1829   34.3552 H   0  0  0  0  0  0
   52.5342   98.4371   30.7835 H   0  0  0  0  0  0
   51.3278   98.0594   28.6717 H   0  0  0  0  0  0
   51.5731  102.2447   27.6857 H   0  0  0  0  0  0
   51.0931   97.6871   26.3664 H   0  0  0  0  0  0
   49.1678  100.3254   23.9936 H   0  0  0  0  0  0
   49.8132  101.7705   25.9642 H   0  0  0  0  0  0
   55.3998   97.6957   35.8366 H   0  0  0  0  0  0
   54.5731   95.1882   35.6734 H   0  0  0  0  0  0
   54.4046   95.4425   37.4089 H   0  0  0  0  0  0
   56.6236   94.4884   36.8080 H   0  0  0  0  0  0
   56.7942   96.0104   37.6093 H   0  0  0  0  0  0
   56.8934   95.6083   34.5819 H   0  0  0  0  0  0
   58.3358   95.6281   35.5588 H   0  0  0  0  0  0
   57.8221   97.9588   37.3519 H   0  0  0  0  0  0
   58.2117   99.2247   36.2020 H   0  0  0  0  0  0
   59.2265   97.7849   36.2962 H   0  0  0  0  0  0
   57.1788   97.4459   33.2432 H   0  0  0  0  0  0
   57.8410   98.9435   33.8745 H   0  0  0  0  0  0
   58.8416   97.4909   33.8250 H   0  0  0  0  0  0
  1  2  1  0  0  0
  1  4  2  0  0  0
  1 34  1  0  0  0
  2 25  1  0  0  0
  2  3  2  0  0  0
  3  6  1  0  0  0
  3 35  1  0  0  0
  4  5  1  0  0  0
  4 36  1  0  0  0
  5 10  1  0  0  0
  5  6  2  0  0  0
  6  7  1  0  0  0
  7  8  1  0  0  0
  7 37  1  0  0  0
  7 38  1  0  0  0
  8  9  1  0  0  0
  8 11  1  0  0  0
  8 39  1  0  0  0
  9 10  1  0  0  0
  9 40  1  0  0  0
  9 41  1  0  0  0
 11 12  2  0  0  0
 11 13  1  0  0  0
 12 15  1  0  0  0
 13 14  1  0  0  0
 14 19  1  0  0  0
 14 15  2  0  0  0
 15 16  1  0  0  0
 16 17  2  0  0  0
 16 42  1  0  0  0
 17 18  1  0  0  0
 17 43  1  0  0  0
 18 19  2  0  0  0
 18 20  1  0  0  0
 19 44  1  0  0  0
 20 24  2  0  0  0
 20 21  1  0  0  0
 21 45  1  0  0  0
 21 22  2  0  0  0
 22 23  1  0  0  0
 23 46  1  0  0  0
 23 24  1  0  0  0
 24 47  1  0  0  0
 25 26  1  0  0  0
 25 28  2  0  0  0
 26 27  1  0  0  0
 26 48  1  0  0  0
 27 29  1  0  0  0
 27 49  1  0  0  0
 27 50  1  0  0  0
 29 30  1  0  0  0
 29 51  1  0  0  0
 29 52  1  0  0  0
 30 31  1  0  0  0
 30 53  1  0  0  0
 30 54  1  0  0  0
 31 32  1  0  0  0
 31 33  1  0  0  0
 32 55  1  0  0  0
 32 56  1  0  0  0
 32 57  1  0  0  0
 33 58  1  0  0  0
 33 59  1  0  0  0
 33 60  1  0  0  0
M  END
> <s_m_entry_id>
28467

> <s_m_entry_name>
dock_pv.628

> <s_m_Source_Path>
/home/csk/Desktop/cluster/DUD-E-result/rock1

> <s_m_Source_File>
dock_pv.maegz

> <i_m_Source_File_Index>
628

> <chembl_id>
CHEMBL1079921

> <chembl_pref_name>
None

> <i_lp_mmshare_version>
53161

> <r_lp_tautomer_probability>
0.5

> <s_lp_Force_Field>
OPLS_2005

> <r_lp_Energy>
17.135753

> <b_lp_Chiralities_Consistent>
1

> <s_lp_Variant>
CHEMBL3231_lig183-1

> <s_i_glide_gridfile>
glide-grid_2etr

> <i_i_glide_lignum>
310

> <i_i_glide_rotatable_bonds>
8

> <r_i_docking_score>
-7.1744796956914

> <r_i_glide_ligand_efficiency>
-0.217408475627012

> <r_i_glide_ligand_efficiency_sa>
-0.697345148392945

> <r_i_glide_ligand_efficiency_ln>
-1.59556713685399

> <r_i_glide_gscore>
-7.1744796956914

> <r_i_glide_lipo>
-2.0422673797762

> <r_i_glide_hbond>
-0.74041705362016

> <r_i_glide_metal>
0

> <r_i_glide_rewards>
-1.44019006806939

> <r_i_glide_evdw>
-44.733341217041

> <r_i_glide_ecoul>
-7.73189878463745

> <r_i_glide_erotb>
0.463130348129572

> <r_i_glide_esite>
-0.0182836638075492

> <r_i_glide_emodel>
-72.9484818159014

> <r_i_glide_energy>
-52.4652400016785

> <r_i_glide_einternal>
2.78932857513428

> <i_i_glide_confnum>
9

> <i_i_glide_posenum>
7

> <r_i_glide_eff_state_penalty>
0

> <s_user_duplicate_titles>
CHEMBL3231_lig183,612034

> <i_f3d_flags>
0

> <s_m_subgroup_title>
dock_pv

> <s_m_subgroupid>
dock_pv

> <b_m_subgroup_collapsed>
1

$$$$
CHEMBL3231_lig95
                    3D
 Schrodinger Suite 2021-1.
 51 55  0  0  1  0            999 V2000
   51.6429  100.3502   28.3454 C   0  0  0  0  0  0
   52.4274   99.9054   29.2621 N   0  0  0  0  0  0
   52.9798  100.8008   30.3091 C   0  0  1  0  0  0
   52.4739  102.2853   30.2351 C   0  0  0  0  0  0
   51.6381  102.6271   29.2208 C   0  0  0  0  0  0
   51.2589  101.6742   28.3282 N   0  0  0  0  0  0
   51.0467  103.9796   28.8710 C   0  0  0  0  0  0
   52.8776  100.1004   31.6761 C   0  0  0  0  0  0
   53.8557   99.1717   32.0514 C   0  0  0  0  0  0
   53.8340   98.6088   33.3243 C   0  0  0  0  0  0
   52.8433   98.9819   34.2291 C   0  0  0  0  0  0
   51.8638   99.9017   33.8671 C   0  0  0  0  0  0
   51.8678  100.4410   32.5865 C   0  0  0  0  0  0
   52.8414  103.2131   31.2987 C   0  0  0  0  0  0
   52.0430  104.0649   31.6911 O   0  0  0  0  0  0
   54.0347  102.9666   31.8902 N   0  0  0  0  0  0
   54.4777  103.4505   33.1364 C   0  0  0  0  0  0
   55.2229  102.5730   33.9273 C   0  0  0  0  0  0
   55.6438  102.9190   35.2118 C   0  0  0  0  0  0
   54.1775  104.7349   33.6070 C   0  0  0  0  0  0
   54.5653  105.0994   34.9017 C   0  0  0  0  0  0
   55.2936  104.1804   35.7164 C   0  0  0  0  0  0
   55.5675  104.6916   36.9565 N   0  0  0  0  0  0
   55.0088  105.9133   36.9123 N   0  0  0  0  0  0
   54.4193  106.2472   35.7191 C   0  0  0  0  0  0
   51.0951   99.5097   27.2718 C   0  0  0  0  0  0
   50.9602   98.1228   27.4330 C   0  0  0  0  0  0
   50.4429   97.3781   26.3752 C   0  0  0  0  0  0
   50.0429   97.9311   25.2110 N   0  0  0  0  0  0
   50.1542   99.2696   25.0611 C   0  0  0  0  0  0
   50.6872  100.0867   26.0520 C   0  0  0  0  0  0
   52.8254   98.4420   35.4689 F   0  0  0  0  0  0
   54.0527  100.8555   30.1084 H   0  0  0  0  0  0
   50.6243  101.9531   27.5971 H   0  0  0  0  0  0
   51.8545  104.7029   28.8085 H   0  0  0  0  0  0
   50.5414  103.9922   27.9033 H   0  0  0  0  0  0
   50.3209  104.3014   29.6112 H   0  0  0  0  0  0
   54.6465   98.9006   31.3645 H   0  0  0  0  0  0
   54.5939   97.8979   33.6135 H   0  0  0  0  0  0
   51.1038  100.1879   34.5773 H   0  0  0  0  0  0
   51.1097  101.1613   32.3247 H   0  0  0  0  0  0
   54.6038  102.2385   31.4833 H   0  0  0  0  0  0
   55.4640  101.5864   33.5566 H   0  0  0  0  0  0
   56.2113  102.2174   35.8072 H   0  0  0  0  0  0
   53.6435  105.4402   32.9908 H   0  0  0  0  0  0
   55.0400  106.5287   37.7133 H   0  0  0  0  0  0
   53.9541  107.2115   35.5752 H   0  0  0  0  0  0
   51.2616   97.6266   28.3464 H   0  0  0  0  0  0
   50.3674   96.3029   26.4137 H   0  0  0  0  0  0
   49.8290   99.6819   24.1160 H   0  0  0  0  0  0
   50.7734  101.1452   25.8540 H   0  0  0  0  0  0
  1  2  2  0  0  0
  1  6  1  0  0  0
  1 26  1  0  0  0
  2  3  1  0  0  0
  3  4  1  0  0  0
  3  8  1  0  0  0
  3 33  1  0  0  0
  4  5  2  0  0  0
  4 14  1  0  0  0
  5  6  1  0  0  0
  5  7  1  0  0  0
  6 34  1  0  0  0
  7 35  1  0  0  0
  7 36  1  0  0  0
  7 37  1  0  0  0
  8  9  2  0  0  0
  8 13  1  0  0  0
  9 10  1  0  0  0
  9 38  1  0  0  0
 10 11  2  0  0  0
 10 39  1  0  0  0
 11 12  1  0  0  0
 11 32  1  0  0  0
 12 13  2  0  0  0
 12 40  1  0  0  0
 13 41  1  0  0  0
 14 16  1  0  0  0
 14 15  2  0  0  0
 16 42  1  0  0  0
 16 17  1  0  0  0
 17 18  1  0  0  0
 17 20  2  0  0  0
 18 19  2  0  0  0
 18 43  1  0  0  0
 19 22  1  0  0  0
 19 44  1  0  0  0
 20 45  1  0  0  0
 20 21  1  0  0  0
 21 22  1  0  0  0
 21 25  2  0  0  0
 22 23  2  0  0  0
 23 24  1  0  0  0
 24 46  1  0  0  0
 24 25  1  0  0  0
 25 47  1  0  0  0
 26 27  2  0  0  0
 26 31  1  0  0  0
 27 28  1  0  0  0
 27 48  1  0  0  0
 28 29  2  0  0  0
 28 49  1  0  0  0
 29 30  1  0  0  0
 30 31  2  0  0  0
 30 50  1  0  0  0
 31 51  1  0  0  0
M  END
> <s_m_entry_id>
28468

> <s_m_entry_name>
dock_pv.629

> <s_m_Source_Path>
/home/csk/Desktop/cluster/DUD-E-result/rock1

> <s_m_Source_File>
dock_pv.maegz

> <i_m_Source_File_Index>
629

> <chembl_id>
CHEMBL483395

> <chembl_pref_name>
None

> <i_lp_mmshare_version>
53161

> <r_lp_tautomer_probability>
0.0196078431372549

> <s_lp_Force_Field>
OPLS_2005

> <r_lp_Energy>
46.014263

> <b_lp_Chiralities_Consistent>
1

> <s_lp_Variant>
CHEMBL3231_lig95-4

> <s_i_glide_gridfile>
glide-grid_2etr

> <i_i_glide_lignum>
179

> <i_i_glide_rotatable_bonds>
5

> <r_i_docking_score>
-7.17429630719461

> <r_i_glide_ligand_efficiency>
-0.224196759599832

> <r_i_glide_ligand_efficiency_sa>
-0.711780343250987

> <r_i_glide_ligand_efficiency_ln>
-1.60652050711212

> <r_i_glide_gscore>
-7.17429630719461

> <r_i_glide_lipo>
-1.98322480443308

> <r_i_glide_hbond>
-0.402443451949109

> <r_i_glide_metal>
0

> <r_i_glide_rewards>
-1.94197011958836

> <r_i_glide_evdw>
-44.8862380981445

> <r_i_glide_ecoul>
-6.73931741714478

> <r_i_glide_erotb>
0.54565587374389

> <r_i_glide_esite>
-0.137104287489009

> <r_i_glide_emodel>
-68.4556827192276

> <r_i_glide_energy>
-51.6255555152893

> <r_i_glide_einternal>
4.4456992149353

> <i_i_glide_confnum>
38

> <i_i_glide_posenum>
197

> <r_i_glide_eff_state_penalty>
0

> <s_user_duplicate_titles>
CHEMBL3231_lig95,513864

> <i_f3d_flags>
0

> <s_m_subgroup_title>
dock_pv

> <s_m_subgroupid>
dock_pv

> <b_m_subgroup_collapsed>
1

$$$$
CHEMBL3231_lig563
                    3D
 Schrodinger Suite 2021-1.
 35 37  0  0  1  0            999 V2000
   52.6588  102.6665   32.6603 O   0  0  0  0  0  0
   53.6311  102.1191   32.1301 C   0  0  0  0  0  0
   54.8129  101.9532   32.7476 N   0  0  0  0  0  0
   55.0591  102.1535   34.1826 C   0  0  0  0  0  0
   55.0151  103.5872   34.7183 C   0  0  0  0  0  0
   54.9350  104.7115   33.8817 C   0  0  0  0  0  0
   54.8431  105.9892   34.4319 C   0  0  0  0  0  0
   54.8414  106.1161   35.8200 C   0  0  0  0  0  0
   54.9372  105.0495   36.6540 N   0  0  0  0  0  0
   55.0194  103.8120   36.0978 C   0  0  0  0  0  0
   53.6352  101.5830   30.8916 N   0  0  0  0  0  0
   52.6047  101.6795   29.9648 C   0  0  0  0  0  0
   52.3614  100.7327   29.0881 N   0  0  0  0  0  0
   51.3878  101.0501   28.2416 C   0  0  0  0  0  0
   50.8426  102.3213   28.4386 C   0  0  0  0  0  0
   51.6248  103.1067   29.7702 S   0  0  0  0  0  0
   50.9419  100.0874   27.1894 C   0  0  0  0  0  0
   50.9819   98.7005   27.4016 C   0  0  0  0  0  0
   50.5165   97.8503   26.3995 C   0  0  0  0  0  0
   50.0430   98.3027   25.2119 N   0  0  0  0  0  0
   50.0264   99.6423   25.0062 C   0  0  0  0  0  0
   50.4520  100.5615   25.9658 C   0  0  0  0  0  0
   55.6211  101.7307   32.1817 H   0  0  0  0  0  0
   56.0425  101.7427   34.4118 H   0  0  0  0  0  0
   54.3408  101.5530   34.7456 H   0  0  0  0  0  0
   54.9270  104.6117   32.8079 H   0  0  0  0  0  0
   54.7622  106.8547   33.7872 H   0  0  0  0  0  0
   54.7538  107.0917   36.2810 H   0  0  0  0  0  0
   55.0793  102.9834   36.7902 H   0  0  0  0  0  0
   54.4512  101.0570   30.6107 H   0  0  0  0  0  0
   50.0524  102.8090   27.8886 H   0  0  0  0  0  0
   51.3484   98.2922   28.3323 H   0  0  0  0  0  0
   50.5219   96.7777   26.5362 H   0  0  0  0  0  0
   49.6461   99.9802   24.0540 H   0  0  0  0  0  0
   50.4053  101.6195   25.7549 H   0  0  0  0  0  0
  1  2  2  0  0  0
  2  3  1  0  0  0
  2 11  1  0  0  0
  3  4  1  0  0  0
  3 23  1  0  0  0
  4  5  1  0  0  0
  4 24  1  0  0  0
  4 25  1  0  0  0
  5  6  2  0  0  0
  5 10  1  0  0  0
  6  7  1  0  0  0
  6 26  1  0  0  0
  7  8  2  0  0  0
  7 27  1  0  0  0
  8  9  1  0  0  0
  8 28  1  0  0  0
  9 10  2  0  0  0
 10 29  1  0  0  0
 11 12  1  0  0  0
 11 30  1  0  0  0
 12 13  2  0  0  0
 12 16  1  0  0  0
 13 14  1  0  0  0
 14 15  2  0  0  0
 14 17  1  0  0  0
 15 16  1  0  0  0
 15 31  1  0  0  0
 17 18  2  0  0  0
 17 22  1  0  0  0
 18 19  1  0  0  0
 18 32  1  0  0  0
 19 20  2  0  0  0
 19 33  1  0  0  0
 20 21  1  0  0  0
 21 22  2  0  0  0
 21 34  1  0  0  0
 22 35  1  0  0  0
M  END
> <s_m_entry_id>
28469

> <s_m_entry_name>
dock_pv.630

> <s_m_Source_Path>
/home/csk/Desktop/cluster/DUD-E-result/rock1

> <s_m_Source_File>
dock_pv.maegz

> <i_m_Source_File_Index>
630

> <chembl_id>
CHEMBL3926492

> <chembl_pref_name>
None

> <i_lp_mmshare_version>
53161

> <r_lp_tautomer_probability>
0.999000488399163

> <s_lp_Force_Field>
OPLS_2005

> <r_lp_Energy>
6.340917

> <b_lp_Chiralities_Consistent>
1

> <s_lp_Variant>
CHEMBL3231_lig563-1

> <s_i_glide_gridfile>
glide-grid_2etr

> <i_i_glide_lignum>
841

> <i_i_glide_rotatable_bonds>
6

> <r_i_docking_score>
-7.17381581875759

> <r_i_glide_ligand_efficiency>
-0.326082537216254

> <r_i_glide_ligand_efficiency_sa>
-0.913696093378418

> <r_i_glide_ligand_efficiency_ln>
-1.75354225739423

> <r_i_glide_gscore>
-7.17381581875759

> <r_i_glide_lipo>
-2.08627958404838

> <r_i_glide_hbond>
-0.303590312810035

> <r_i_glide_metal>
0

> <r_i_glide_rewards>
-2.60044727576311

> <r_i_glide_evdw>
-38.4183464050293

> <r_i_glide_ecoul>
-7.63749599456787

> <r_i_glide_erotb>
0.956411501823036

> <r_i_glide_esite>
-0.0733684285224618

> <r_i_glide_emodel>
-66.4695981639696

> <r_i_glide_energy>
-46.0558423995972

> <r_i_glide_einternal>
2.92645907402039

> <i_i_glide_confnum>
8

> <i_i_glide_posenum>
364

> <r_i_glide_eff_state_penalty>
0

> <s_user_duplicate_titles>
CHEMBL3231_lig563

> <i_f3d_flags>
0

> <s_m_subgroup_title>
dock_pv

> <s_m_subgroupid>
dock_pv

> <b_m_subgroup_collapsed>
1

$$$$
CHEMBL3231_lig2114
                    3D
 Schrodinger Suite 2021-1.
 39 42  0  0  1  0            999 V2000
   50.8416  106.7782   34.8683 C   0  0  0  0  0  0
   49.6832  107.2860   35.4520 C   0  0  0  0  0  0
   48.6963  106.5217   35.9863 N   0  0  0  0  0  0
   51.0357  105.3975   34.8105 C   0  0  0  0  0  0
   50.0319  104.5649   35.3361 C   0  0  0  0  0  0
   48.8961  105.2038   35.9106 C   0  0  0  0  0  0
   48.0460  104.2192   36.3581 N   0  0  0  0  0  0
   48.6078  102.9917   36.1008 C   0  0  0  0  0  0
   49.8248  103.1468   35.4558 C   0  0  0  0  0  0
   50.6827  102.0824   34.9932 C   0  0  0  0  0  0
   51.2234  102.1342   33.7901 N   0  0  0  0  0  0
   51.9198  101.0605   33.5142 C   0  0  0  0  0  0
   52.0431   99.9027   34.8064 S   0  0  0  0  0  0
   51.0167  100.9506   35.7395 C   0  0  0  0  0  0
   52.5748  100.9008   32.3128 N   0  0  0  0  0  0
   52.3844   99.8566   31.4845 C   0  0  0  0  0  0
   53.0908   99.9436   30.1312 C   0  0  0  0  0  0
   51.6429   98.8995   31.7141 O   0  0  0  0  0  0
   52.1257  100.4215   29.0493 C   0  0  0  0  0  0
   51.6433   99.5233   28.0925 C   0  0  0  0  0  0
   50.8111   99.9687   27.0632 C   0  0  0  0  0  0
   50.4157  101.3079   27.0225 C   0  0  0  0  0  0
   50.8429  102.1942   28.0114 C   0  0  0  0  0  0
   51.7112  101.7584   29.0109 C   0  0  0  0  0  0
   50.3819   99.0426   26.0326 C   0  0  0  0  0  0
   50.0430   98.3030   25.2110 N   0  0  0  0  0  0
   51.5901  107.4470   34.4647 H   0  0  0  0  0  0
   49.5327  108.3551   35.5090 H   0  0  0  0  0  0
   51.9312  104.9834   34.3678 H   0  0  0  0  0  0
   47.1452  104.3307   36.8026 H   0  0  0  0  0  0
   48.0828  102.0903   36.3862 H   0  0  0  0  0  0
   50.7346  100.7027   36.7487 H   0  0  0  0  0  0
   53.1012  101.6909   31.9697 H   0  0  0  0  0  0
   53.4984   98.9599   29.8880 H   0  0  0  0  0  0
   53.9432  100.6243   30.1799 H   0  0  0  0  0  0
   51.9591   98.4889   28.1327 H   0  0  0  0  0  0
   49.7677  101.6706   26.2349 H   0  0  0  0  0  0
   50.5269  103.2262   27.9800 H   0  0  0  0  0  0
   52.0659  102.4635   29.7486 H   0  0  0  0  0  0
  1  2  2  0  0  0
  1  4  1  0  0  0
  1 27  1  0  0  0
  2  3  1  0  0  0
  2 28  1  0  0  0
  3  6  2  0  0  0
  4  5  2  0  0  0
  4 29  1  0  0  0
  5  6  1  0  0  0
  5  9  1  0  0  0
  6  7  1  0  0  0
  7  8  1  0  0  0
  7 30  1  0  0  0
  8  9  2  0  0  0
  8 31  1  0  0  0
  9 10  1  0  0  0
 10 11  1  0  0  0
 10 14  2  0  0  0
 11 12  2  0  0  0
 12 13  1  0  0  0
 12 15  1  0  0  0
 13 14  1  0  0  0
 14 32  1  0  0  0
 15 16  1  0  0  0
 15 33  1  0  0  0
 16 17  1  0  0  0
 16 18  2  0  0  0
 17 19  1  0  0  0
 17 34  1  0  0  0
 17 35  1  0  0  0
 19 20  2  0  0  0
 19 24  1  0  0  0
 20 21  1  0  0  0
 20 36  1  0  0  0
 21 22  2  0  0  0
 21 25  1  0  0  0
 22 23  1  0  0  0
 22 37  1  0  0  0
 23 24  2  0  0  0
 23 38  1  0  0  0
 24 39  1  0  0  0
 25 26  3  0  0  0
M  END
> <s_m_entry_id>
28471

> <s_m_entry_name>
dock_pv.632

> <s_m_Source_Path>
/home/csk/Desktop/cluster/DUD-E-result/rock1

> <s_m_Source_File>
dock_pv.maegz

> <i_m_Source_File_Index>
632

> <chembl_id>
CHEMBL4239032

> <chembl_pref_name>
None

> <i_lp_mmshare_version>
53161

> <r_lp_tautomer_probability>
0.998998924059464

> <s_lp_Force_Field>
OPLS_2005

> <r_lp_Energy>
10.06489

> <b_lp_Chiralities_Consistent>
1

> <s_lp_Variant>
CHEMBL3231_lig2114-1

> <s_i_glide_gridfile>
glide-grid_2etr

> <i_i_glide_lignum>
3042

> <i_i_glide_rotatable_bonds>
5

> <r_i_docking_score>
-7.1693195877034

> <r_i_glide_ligand_efficiency>
-0.275743061065515

> <r_i_glide_ligand_efficiency_sa>
-0.816887733410036

> <r_i_glide_ligand_efficiency_ln>
-1.68369118071584

> <r_i_glide_gscore>
-7.1693195877034

> <r_i_glide_lipo>
-2.34865076315093

> <r_i_glide_hbond>
-0.236067567121731

> <r_i_glide_metal>
0

> <r_i_glide_rewards>
-2.31814265980482

> <r_i_glide_evdw>
-44.3806304931641

> <r_i_glide_ecoul>
-5.20096874237061

> <r_i_glide_erotb>
0.741917050278346

> <r_i_glide_esite>
-0.00919881189046429

> <r_i_glide_emodel>
-66.2405222383059

> <r_i_glide_energy>
-49.5815992355347

> <r_i_glide_einternal>
10.1423797607422

> <i_i_glide_confnum>
16

> <i_i_glide_posenum>
389

> <r_i_glide_eff_state_penalty>
0

> <s_user_duplicate_titles>
CHEMBL3231_lig2114

> <i_f3d_flags>
0

> <s_m_subgroup_title>
dock_pv

> <s_m_subgroupid>
dock_pv

> <b_m_subgroup_collapsed>
1

$$$$
CHEMBL3231_lig254
                    3D
 Schrodinger Suite 2021-1.
 37 39  0  0  1  0            999 V2000
   50.0431   99.2625   25.0429 N   0  0  0  0  0  0
   50.0385  100.6173   25.1914 C   0  0  0  0  0  0
   50.4180  101.2679   26.3025 C   0  0  0  0  0  0
   50.4373   98.3922   26.0108 C   0  0  0  0  0  0
   50.8483   99.0595   27.3205 C   0  0  0  0  0  0
   50.8449  100.4605   27.4507 C   0  0  0  0  0  0
   51.2254  101.0503   28.6514 C   0  0  0  0  0  0
   51.6432  100.2602   29.7366 C   0  0  0  0  0  0
   51.6431   98.8705   29.5974 C   0  0  0  0  0  0
   51.2430   98.2696   28.4029 C   0  0  0  0  0  0
   52.0525  100.7686   30.9567 O   0  0  0  0  0  0
   52.2044  102.1801   31.1109 C   0  0  1  0  0  0
   50.4431   97.1849   25.7851 O   0  0  0  0  0  0
   52.5495  102.5223   32.5638 C   0  0  0  0  0  0
   53.3102  103.8560   32.4818 C   0  0  2  0  0  0
   54.0654  103.7711   31.1424 C   0  0  0  0  0  0
   53.3783  102.7173   30.2800 C   0  0  0  0  0  0
   54.2313  104.1117   33.6960 C   0  0  0  0  0  0
   54.8428  105.4288   33.6110 N   0  0  0  0  0  0
   49.7412   98.8473   24.1759 H   0  0  0  0  0  0
   49.6827  101.1030   24.2942 H   0  0  0  0  0  0
   50.3848  102.3466   26.3514 H   0  0  0  0  0  0
   51.1891  102.1250   28.7184 H   0  0  0  0  0  0
   51.9561   98.2528   30.4272 H   0  0  0  0  0  0
   51.2429   97.1909   28.3279 H   0  0  0  0  0  0
   51.2513  102.6502   30.8597 H   0  0  0  0  0  0
   53.1508  101.7345   33.0218 H   0  0  0  0  0  0
   51.6441  102.6391   33.1604 H   0  0  0  0  0  0
   52.5815  104.6685   32.4286 H   0  0  0  0  0  0
   54.0430  104.7279   30.6264 H   0  0  0  0  0  0
   55.1149  103.5031   31.2857 H   0  0  0  0  0  0
   54.0765  101.9201   30.0180 H   0  0  0  0  0  0
   53.0413  103.1687   29.3473 H   0  0  0  0  0  0
   55.0134  103.3531   33.7562 H   0  0  0  0  0  0
   53.6583  104.0540   34.6225 H   0  0  0  0  0  0
   55.3317  105.4937   32.7177 H   0  0  0  0  0  0
   54.1074  106.1260   33.5279 H   0  0  0  0  0  0
  1  4  1  0  0  0
  1  2  1  0  0  0
  1 20  1  0  0  0
  2  3  2  0  0  0
  2 21  1  0  0  0
  3  6  1  0  0  0
  3 22  1  0  0  0
  4 13  2  0  0  0
  4  5  1  0  0  0
  5 10  1  0  0  0
  5  6  2  0  0  0
  6  7  1  0  0  0
  7  8  2  0  0  0
  7 23  1  0  0  0
  8 11  1  0  0  0
  8  9  1  0  0  0
  9 10  2  0  0  0
  9 24  1  0  0  0
 10 25  1  0  0  0
 11 12  1  0  0  0
 12 14  1  0  0  0
 12 17  1  0  0  0
 12 26  1  0  0  0
 14 15  1  0  0  0
 14 27  1  0  0  0
 14 28  1  0  0  0
 15 16  1  0  0  0
 15 18  1  0  0  0
 15 29  1  0  0  0
 16 17  1  0  0  0
 16 30  1  0  0  0
 16 31  1  0  0  0
 17 32  1  0  0  0
 17 33  1  0  0  0
 18 19  1  0  0  0
 18 34  1  0  0  0
 18 35  1  0  0  0
 19 36  1  0  0  0
 19 37  1  0  0  0
M  END
> <s_m_entry_id>
28472

> <s_m_entry_name>
dock_pv.633

> <s_m_Source_Path>
/home/csk/Desktop/cluster/DUD-E-result/rock1

> <s_m_Source_File>
dock_pv.maegz

> <i_m_Source_File_Index>
633

> <chembl_id>
CHEMBL1667980

> <chembl_pref_name>
None

> <i_lp_mmshare_version>
53161

> <r_lp_tautomer_probability>
1

> <s_lp_Force_Field>
OPLS_2005

> <r_lp_Energy>
37.802145

> <b_lp_Chiralities_Consistent>
1

> <s_lp_Variant>
CHEMBL3231_lig254-1

> <s_i_glide_gridfile>
glide-grid_2etr

> <i_i_glide_lignum>
398

> <i_i_glide_rotatable_bonds>
3

> <r_i_docking_score>
-7.16714854038465

> <r_i_glide_ligand_efficiency>
-0.377218344230771

> <r_i_glide_ligand_efficiency_sa>
-1.00657005068562

> <r_i_glide_ligand_efficiency_ln>
-1.81702609122356

> <r_i_glide_gscore>
-7.16714854038465

> <r_i_glide_lipo>
-2.37272961440533

> <r_i_glide_hbond>
-0.484113341603379

> <r_i_glide_metal>
0

> <r_i_glide_rewards>
-2.12246772793122

> <r_i_glide_evdw>
-33.555061340332

> <r_i_glide_ecoul>
-6.92986392974854

> <r_i_glide_erotb>
0.52939480003416

> <r_i_glide_esite>
0

> <r_i_glide_emodel>
-55.8871566700813

> <r_i_glide_energy>
-40.4849252700806

> <r_i_glide_einternal>
3.31745672225952

> <i_i_glide_confnum>
2

> <i_i_glide_posenum>
347

> <r_i_glide_eff_state_penalty>
0

> <s_user_duplicate_titles>
CHEMBL3231_lig254

> <i_f3d_flags>
0

> <s_m_subgroup_title>
dock_pv

> <s_m_subgroupid>
dock_pv

> <b_m_subgroup_collapsed>
1

$$$$
CHEMBL3231_lig1105
                    3D
 Schrodinger Suite 2021-1.
 36 39  0  0  1  0            999 V2000
   50.7676   99.5836   26.5122 C   0  0  0  0  0  0
   50.8431   98.4109   27.2690 C   0  0  0  0  0  0
   51.2429   98.4156   28.6071 C   0  0  0  0  0  0
   51.0942  100.8192   27.0769 C   0  0  0  0  0  0
   51.4965  100.8553   28.4152 C   0  0  0  0  0  0
   51.5807   99.6566   29.1638 C   0  0  0  0  0  0
   52.0133  100.0658   30.4143 N   0  0  0  0  0  0
   52.0703  101.4544   30.3652 C   0  0  0  0  0  0
   51.8169  101.9408   29.1757 N   0  0  0  0  0  0
   52.3292  102.3327   31.4989 C   0  0  0  0  0  0
   51.6859  102.2006   32.6333 N   0  0  0  0  0  0
   52.1895  103.2235   33.4313 O   0  0  0  0  0  0
   53.1478  103.9691   32.7478 N   0  0  0  0  0  0
   53.2070  103.4158   31.5652 C   0  0  0  0  0  0
   54.0430  103.9024   30.6051 N   0  0  0  0  0  0
   52.2794   99.1950   31.5634 C   0  0  0  0  0  0
   52.9606   97.8296   31.3463 C   0  0  0  0  0  0
   53.6007   97.9838   32.7288 C   0  0  0  0  0  0
   53.4448   99.4957   32.5296 C   0  0  0  0  0  0
   50.3096   99.5292   25.0672 C   0  0  0  0  0  0
   49.2430  100.4129   24.8110 O   0  0  0  0  0  0
   50.5692   97.4688   26.8164 H   0  0  0  0  0  0
   51.2449   97.5029   29.1821 H   0  0  0  0  0  0
   51.0106  101.7272   26.4984 H   0  0  0  0  0  0
   54.1452  103.4450   29.7119 H   0  0  0  0  0  0
   54.7054  104.6516   30.8109 H   0  0  0  0  0  0
   51.3190   99.1049   32.0762 H   0  0  0  0  0  0
   52.2922   96.9785   31.2120 H   0  0  0  0  0  0
   53.6879   97.8293   30.5306 H   0  0  0  0  0  0
   52.9974   97.5765   33.5429 H   0  0  0  0  0  0
   54.6262   97.6213   32.8187 H   0  0  0  0  0  0
   54.3065   99.9632   32.0452 H   0  0  0  0  0  0
   53.1961  100.0757   33.4184 H   0  0  0  0  0  0
   50.0007   98.5185   24.7965 H   0  0  0  0  0  0
   51.1494   99.8026   24.4280 H   0  0  0  0  0  0
   48.9667  100.3033   23.8884 H   0  0  0  0  0  0
  1  4  1  0  0  0
  1  2  2  0  0  0
  1 20  1  0  0  0
  2  3  1  0  0  0
  2 22  1  0  0  0
  3  6  2  0  0  0
  3 23  1  0  0  0
  4  5  2  0  0  0
  4 24  1  0  0  0
  5  6  1  0  0  0
  5  9  1  0  0  0
  6  7  1  0  0  0
  7 16  1  0  0  0
  7  8  1  0  0  0
  8 10  1  0  0  0
  8  9  2  0  0  0
 10 14  1  0  0  0
 10 11  2  0  0  0
 11 12  1  0  0  0
 12 13  1  0  0  0
 13 14  2  0  0  0
 14 15  1  0  0  0
 15 25  1  0  0  0
 15 26  1  0  0  0
 16 17  1  0  0  0
 16 19  1  0  0  0
 16 27  1  0  0  0
 17 18  1  0  0  0
 17 28  1  0  0  0
 17 29  1  0  0  0
 18 19  1  0  0  0
 18 30  1  0  0  0
 18 31  1  0  0  0
 19 32  1  0  0  0
 19 33  1  0  0  0
 20 21  1  0  0  0
 20 34  1  0  0  0
 20 35  1  0  0  0
 21 36  1  0  0  0
M  END
> <s_m_entry_id>
28473

> <s_m_entry_name>
dock_pv.634

> <s_m_Source_Path>
/home/csk/Desktop/cluster/DUD-E-result/rock1

> <s_m_Source_File>
dock_pv.maegz

> <i_m_Source_File_Index>
634

> <chembl_id>
CHEMBL1080970

> <chembl_pref_name>
None

> <i_lp_mmshare_version>
53161

> <r_lp_tautomer_probability>
1

> <s_lp_Force_Field>
OPLS_2005

> <r_lp_Energy>
36.67327

> <b_lp_Chiralities_Consistent>
1

> <s_lp_Variant>
CHEMBL3231_lig1105-1

> <s_i_glide_gridfile>
glide-grid_2etr

> <i_i_glide_lignum>
1530

> <i_i_glide_rotatable_bonds>
4

> <r_i_docking_score>
-7.16598786259965

> <r_i_glide_ligand_efficiency>
-0.34123751726665

> <r_i_glide_ligand_efficiency_sa>
-0.941448435319811

> <r_i_glide_ligand_efficiency_ln>
-1.77177601878585

> <r_i_glide_gscore>
-7.16598786259965

> <r_i_glide_lipo>
-2.066498406134

> <r_i_glide_hbond>
-0.608

> <r_i_glide_metal>
0

> <r_i_glide_rewards>
-2.01278394968216

> <r_i_glide_evdw>
-35.5826072692871

> <r_i_glide_ecoul>
-8.14880847930908

> <r_i_glide_erotb>
0.668626182757663

> <r_i_glide_esite>
-0.145880054180434

> <r_i_glide_emodel>
-61.7856472579218

> <r_i_glide_energy>
-43.7314157485962

> <r_i_glide_einternal>
1.26504600048065

> <i_i_glide_confnum>
26

> <i_i_glide_posenum>
384

> <r_i_glide_eff_state_penalty>
0

> <s_user_duplicate_titles>
CHEMBL3231_lig1105

> <i_f3d_flags>
0

> <s_m_subgroup_title>
dock_pv

> <s_m_subgroupid>
dock_pv

> <b_m_subgroup_collapsed>
1

$$$$
CHEMBL3231_lig522
                    3D
 Schrodinger Suite 2021-1.
 62 66  0  0  1  0            999 V2000
   52.8186  101.7626   33.3888 C   0  0  2  0  0  0
   52.9217  102.0703   31.8613 C   0  0  0  0  0  0
   53.7416  103.0941   31.4766 C   0  0  0  0  0  0
   54.4164  103.8588   32.3847 N   0  0  0  0  0  0
   54.3990  103.7202   33.7246 C   0  0  0  0  0  0
   53.4728  102.8420   34.1791 N   0  0  0  0  0  0
   55.2184  104.2616   34.4615 O   0  0  0  0  0  0
   54.0433  103.5556   30.0491 C   0  0  0  0  0  0
   52.1384  101.2110   30.9577 C   0  0  0  0  0  0
   51.9485  101.6734   29.7052 N   0  0  0  0  0  0
   51.6432  100.1489   31.3400 O   0  0  0  0  0  0
   51.3558  101.0525   28.5940 C   0  0  0  0  0  0
   51.3468   99.6628   28.4006 C   0  0  0  0  0  0
   50.3419  101.4361   26.3965 C   0  0  0  0  0  0
   50.8430  101.9034   27.6108 C   0  0  0  0  0  0
   50.3240  100.0523   26.2207 C   0  0  0  0  0  0
   50.8107   99.1584   27.2048 C   0  0  0  0  0  0
   50.5984   97.8716   26.6322 C   0  0  0  0  0  0
   50.0434   97.9511   25.4514 N   0  0  0  0  0  0
   49.8867   99.2583   25.1808 N   0  0  0  0  0  0
   53.1513  100.3577   33.9260 C   0  0  0  0  0  0
   53.8781   99.4094   33.1903 C   0  0  0  0  0  0
   54.0761   98.1021   33.6732 C   0  0  0  0  0  0
   53.5816   97.7803   34.9545 C   0  0  0  0  0  0
   52.8910   98.7285   35.7033 C   0  0  0  0  0  0
   52.6670  100.0008   35.1901 C   0  0  0  0  0  0
   53.7241   96.5425   35.4924 F   0  0  0  0  0  0
   54.7965   97.0936   32.8001 C   0  0  0  0  0  0
   55.3869   96.0713   33.4401 N   0  0  0  0  0  0
   54.8427   97.2355   31.5774 O   0  0  0  0  0  0
   56.3350   95.0980   32.8898 C   0  0  0  0  0  0
   57.8159   95.3726   33.2628 C   0  0  0  0  0  0
   58.0419   96.1629   34.5498 C   0  0  0  0  0  0
   58.2305   95.5031   35.7687 C   0  0  0  0  0  0
   58.4105   96.2656   36.9251 C   0  0  0  0  0  0
   58.4070   97.6243   36.9211 N   0  0  0  0  0  0
   58.2252   98.2525   35.7326 C   0  0  0  0  0  0
   58.0426   97.5630   34.5326 C   0  0  0  0  0  0
   51.7590  101.8473   33.6402 H   0  0  0  0  0  0
   55.0190  104.6016   32.0477 H   0  0  0  0  0  0
   53.4186  102.7723   35.1829 H   0  0  0  0  0  0
   53.1776  104.0412   29.5983 H   0  0  0  0  0  0
   54.8396  104.2965   30.0110 H   0  0  0  0  0  0
   54.3614  102.7128   29.4319 H   0  0  0  0  0  0
   52.2853  102.6079   29.5383 H   0  0  0  0  0  0
   51.7583   98.9894   29.1385 H   0  0  0  0  0  0
   49.9623  102.1107   25.6411 H   0  0  0  0  0  0
   50.8428  102.9715   27.7778 H   0  0  0  0  0  0
   50.8430   96.9160   27.0696 H   0  0  0  0  0  0
   49.4735   99.5552   24.3057 H   0  0  0  0  0  0
   54.2644   99.6819   32.2163 H   0  0  0  0  0  0
   52.5181   98.4735   36.6846 H   0  0  0  0  0  0
   52.1057  100.7102   35.7815 H   0  0  0  0  0  0
   55.1915   95.9781   34.4271 H   0  0  0  0  0  0
   56.2630   95.1042   31.7978 H   0  0  0  0  0  0
   56.0511   94.0873   33.1934 H   0  0  0  0  0  0
   58.3070   95.9037   32.4469 H   0  0  0  0  0  0
   58.3587   94.4277   33.3234 H   0  0  0  0  0  0
   58.2317   94.4230   35.8192 H   0  0  0  0  0  0
   58.5538   95.7846   37.8827 H   0  0  0  0  0  0
   58.2328   99.3337   35.7479 H   0  0  0  0  0  0
   57.8987   98.1054   33.6115 H   0  0  0  0  0  0
  1  2  1  0  0  0
  1  6  1  0  0  0
  1 21  1  0  0  0
  1 39  1  0  0  0
  2  3  2  0  0  0
  2  9  1  0  0  0
  3  4  1  0  0  0
  3  8  1  0  0  0
  4  5  1  0  0  0
  4 40  1  0  0  0
  5  6  1  0  0  0
  5  7  2  0  0  0
  6 41  1  0  0  0
  8 42  1  0  0  0
  8 43  1  0  0  0
  8 44  1  0  0  0
  9 10  1  0  0  0
  9 11  2  0  0  0
 10 12  1  0  0  0
 10 45  1  0  0  0
 12 13  2  0  0  0
 12 15  1  0  0  0
 13 17  1  0  0  0
 13 46  1  0  0  0
 14 16  1  0  0  0
 14 15  2  0  0  0
 14 47  1  0  0  0
 15 48  1  0  0  0
 16 17  2  0  0  0
 16 20  1  0  0  0
 17 18  1  0  0  0
 18 19  2  0  0  0
 18 49  1  0  0  0
 19 20  1  0  0  0
 20 50  1  0  0  0
 21 22  2  0  0  0
 21 26  1  0  0  0
 22 23  1  0  0  0
 22 51  1  0  0  0
 23 24  2  0  0  0
 23 28  1  0  0  0
 24 25  1  0  0  0
 24 27  1  0  0  0
 25 26  2  0  0  0
 25 52  1  0  0  0
 26 53  1  0  0  0
 28 29  1  0  0  0
 28 30  2  0  0  0
 29 31  1  0  0  0
 29 54  1  0  0  0
 31 32  1  0  0  0
 31 55  1  0  0  0
 31 56  1  0  0  0
 32 33  1  0  0  0
 32 57  1  0  0  0
 32 58  1  0  0  0
 33 34  2  0  0  0
 33 38  1  0  0  0
 34 35  1  0  0  0
 34 59  1  0  0  0
 35 36  2  0  0  0
 35 60  1  0  0  0
 36 37  1  0  0  0
 37 38  2  0  0  0
 37 61  1  0  0  0
 38 62  1  0  0  0
M  END
> <s_m_entry_id>
28474

> <s_m_entry_name>
dock_pv.635

> <s_m_Source_Path>
/home/csk/Desktop/cluster/DUD-E-result/rock1

> <s_m_Source_File>
dock_pv.maegz

> <i_m_Source_File_Index>
635

> <chembl_id>
CHEMBL3808565

> <chembl_pref_name>
None

> <i_lp_mmshare_version>
53161

> <r_lp_tautomer_probability>
0.980392156860701

> <s_lp_Force_Field>
OPLS_2005

> <r_lp_Energy>
51.337005

> <b_lp_Chiralities_Consistent>
1

> <s_lp_Variant>
CHEMBL3231_lig522-1

> <s_i_glide_gridfile>
glide-grid_2etr

> <i_i_glide_lignum>
765

> <i_i_glide_rotatable_bonds>
9

> <r_i_docking_score>
-7.16169903002924

> <r_i_glide_ligand_efficiency>
-0.188465763948138

> <r_i_glide_ligand_efficiency_sa>
-0.633617262648939

> <r_i_glide_ligand_efficiency_ln>
-1.54427298671509

> <r_i_glide_gscore>
-7.16169903002924

> <r_i_glide_lipo>
-2.05861196422089

> <r_i_glide_hbond>
-0.552570459757816

> <r_i_glide_metal>
0

> <r_i_glide_rewards>
-0.931157483444193

> <r_i_glide_evdw>
-52.1858367919922

> <r_i_glide_ecoul>
-8.76117134094238

> <r_i_glide_erotb>
0.435475193338992

> <r_i_glide_esite>
-0.13136677520437

> <r_i_glide_emodel>
-82.1659895880304

> <r_i_glide_energy>
-60.9470081329346

> <r_i_glide_einternal>
11.9437618255615

> <i_i_glide_confnum>
16

> <i_i_glide_posenum>
63

> <r_i_glide_eff_state_penalty>
0

> <s_user_duplicate_titles>
CHEMBL3231_lig522,CHEMBL3231_lig522

> <i_f3d_flags>
0

> <s_m_subgroup_title>
dock_pv

> <s_m_subgroupid>
dock_pv

> <b_m_subgroup_collapsed>
1

$$$$
CHEMBL3231_lig1052 
                    3D
 Schrodinger Suite 2021-1.
 58 61  0  0  1  0            999 V2000
   52.3479  101.9336   36.4107 C   0  0  0  0  0  0
   52.8821  100.6653   36.6286 C   0  0  0  0  0  0
   54.0552  100.2847   35.9805 C   0  0  0  0  0  0
   54.6973  101.1720   35.1152 C   0  0  0  0  0  0
   52.9960  102.8270   35.5584 C   0  0  0  0  0  0
   54.1857  102.4564   34.8947 C   0  0  0  0  0  0
   54.8708  103.4644   33.9754 C   0  0  0  0  0  0
   53.8186  104.4493   33.3940 C   0  0  2  0  0  0
   53.0546  105.0354   34.6144 C   0  0  0  0  0  0
   52.3364  104.0283   35.3456 O   0  0  0  0  0  0
   52.8654  103.7560   32.3826 C   0  0  0  0  0  0
   51.6431  103.9033   32.4560 O   0  0  0  0  0  0
   53.4512  103.0020   31.4345 N   0  0  0  0  0  0
   52.7936  102.2280   30.4696 C   0  0  0  0  0  0
   53.2365  100.9152   30.2692 C   0  0  0  0  0  0
   52.6137  100.1409   29.2796 C   0  0  0  0  0  0
   51.6003  100.6612   28.4627 C   0  0  0  0  0  0
   51.1730  101.9749   28.6924 C   0  0  0  0  0  0
   51.7652  102.7561   29.6807 C   0  0  0  0  0  0
   54.2544  100.4494   31.0836 O   0  0  0  0  0  0
   55.0322   99.3179   30.6937 C   0  0  0  0  0  0
   54.4874   97.9856   31.2613 C   0  0  0  0  0  0
   54.4432   97.9243   32.7277 N   0  0  0  0  0  0
   53.7419   96.7147   33.1504 C   0  0  0  0  0  0
   55.7885   97.9159   33.3061 C   0  0  0  0  0  0
   51.0264   99.8476   27.3525 C   0  0  0  0  0  0
   50.6365  100.4479   26.1439 C   0  0  0  0  0  0
   50.1462   99.6504   25.1103 C   0  0  0  0  0  0
   50.0430   98.3031   25.2111 N   0  0  0  0  0  0
   50.4161   97.7245   26.3761 C   0  0  0  0  0  0
   50.8949   98.4538   27.4632 C   0  0  0  0  0  0
   54.5693   99.0540   36.1965 F   0  0  0  0  0  0
   51.4228  102.2206   36.8861 H   0  0  0  0  0  0
   52.3869   99.9708   37.2915 H   0  0  0  0  0  0
   55.6044  100.8575   34.6193 H   0  0  0  0  0  0
   55.5753  104.0193   34.5964 H   0  0  0  0  0  0
   55.4654  102.9703   33.2044 H   0  0  0  0  0  0
   54.3044  105.2370   32.8144 H   0  0  0  0  0  0
   52.3727  105.8341   34.3190 H   0  0  0  0  0  0
   53.7720  105.5019   35.2924 H   0  0  0  0  0  0
   54.4423  102.8285   31.5187 H   0  0  0  0  0  0
   52.9415   99.1279   29.1205 H   0  0  0  0  0  0
   50.3887  102.4081   28.0895 H   0  0  0  0  0  0
   51.4422  103.7772   29.8151 H   0  0  0  0  0  0
   55.1425   99.2537   29.6116 H   0  0  0  0  0  0
   56.0429   99.5034   31.0495 H   0  0  0  0  0  0
   53.4773   97.8391   30.8784 H   0  0  0  0  0  0
   55.0835   97.1573   30.8718 H   0  0  0  0  0  0
   53.6702   96.6691   34.2382 H   0  0  0  0  0  0
   52.7248   96.7031   32.7600 H   0  0  0  0  0  0
   54.2453   95.8098   32.8052 H   0  0  0  0  0  0
   55.7499   97.7928   34.3888 H   0  0  0  0  0  0
   56.3988   97.1059   32.9001 H   0  0  0  0  0  0
   56.3094   98.8544   33.1184 H   0  0  0  0  0  0
   50.7257  101.5137   25.9941 H   0  0  0  0  0  0
   49.8417  100.0880   24.1696 H   0  0  0  0  0  0
   50.3283   96.6493   26.4231 H   0  0  0  0  0  0
   51.1711   97.9351   28.3695 H   0  0  0  0  0  0
  1  5  1  0  0  0
  1  2  2  0  0  0
  1 33  1  0  0  0
  2  3  1  0  0  0
  2 34  1  0  0  0
  3  4  2  0  0  0
  3 32  1  0  0  0
  4  6  1  0  0  0
  4 35  1  0  0  0
  5  6  2  0  0  0
  5 10  1  0  0  0
  6  7  1  0  0  0
  7  8  1  0  0  0
  7 36  1  0  0  0
  7 37  1  0  0  0
  8  9  1  0  0  0
  8 11  1  0  0  0
  8 38  1  0  0  0
  9 10  1  0  0  0
  9 39  1  0  0  0
  9 40  1  0  0  0
 11 12  2  0  0  0
 11 13  1  0  0  0
 13 14  1  0  0  0
 13 41  1  0  0  0
 14 15  2  0  0  0
 14 19  1  0  0  0
 15 16  1  0  0  0
 15 20  1  0  0  0
 16 17  2  0  0  0
 16 42  1  0  0  0
 17 18  1  0  0  0
 17 26  1  0  0  0
 18 19  2  0  0  0
 18 43  1  0  0  0
 19 44  1  0  0  0
 20 21  1  0  0  0
 21 22  1  0  0  0
 21 45  1  0  0  0
 21 46  1  0  0  0
 22 23  1  0  0  0
 22 47  1  0  0  0
 22 48  1  0  0  0
 23 24  1  0  0  0
 23 25  1  0  0  0
 24 49  1  0  0  0
 24 50  1  0  0  0
 24 51  1  0  0  0
 25 52  1  0  0  0
 25 53  1  0  0  0
 25 54  1  0  0  0
 26 27  2  0  0  0
 26 31  1  0  0  0
 27 28  1  0  0  0
 27 55  1  0  0  0
 28 29  2  0  0  0
 28 56  1  0  0  0
 29 30  1  0  0  0
 30 31  2  0  0  0
 30 57  1  0  0  0
 31 58  1  0  0  0
M  END
> <s_m_entry_id>
28475

> <s_m_entry_name>
dock_pv.636

> <s_m_Source_Path>
/home/csk/Desktop/cluster/DUD-E-result/rock1

> <s_m_Source_File>
dock_pv.maegz

> <i_m_Source_File_Index>
636

> <chembl_id>
CHEMBL4483646

> <chembl_pref_name>
None

> <i_lp_mmshare_version>
53161

> <r_lp_tautomer_probability>
1

> <s_lp_Force_Field>
OPLS_2005

> <r_lp_Energy>
35.701477

> <b_lp_Chiralities_Consistent>
1

> <s_lp_Variant>
CHEMBL3231_lig1052 -1

> <s_i_glide_gridfile>
glide-grid_2etr

> <i_i_glide_lignum>
1467

> <i_i_glide_rotatable_bonds>
8

> <r_i_docking_score>
-7.16163025154379

> <r_i_glide_ligand_efficiency>
-0.223800945360744

> <r_i_glide_ligand_efficiency_sa>
-0.710523711373415

> <r_i_glide_ligand_efficiency_ln>
-1.60368423198826

> <r_i_glide_gscore>
-7.16163025154379

> <r_i_glide_lipo>
-2.31282205161884

> <r_i_glide_hbond>
-0.307762765300465

> <r_i_glide_metal>
0

> <r_i_glide_rewards>
-1.80637437863544

> <r_i_glide_evdw>
-44.7042236328125

> <r_i_glide_ecoul>
-7.61471509933472

> <r_i_glide_erotb>
0.735416567972232

> <r_i_glide_esite>
-0.0926691774204485

> <r_i_glide_emodel>
-73.2844297071375

> <r_i_glide_energy>
-52.3189387321472

> <r_i_glide_einternal>
7.01130962371826

> <i_i_glide_confnum>
44

> <i_i_glide_posenum>
349

> <r_i_glide_eff_state_penalty>
0

> <s_user_duplicate_titles>
CHEMBL3231_lig1052 

> <i_f3d_flags>
0

> <s_m_subgroup_title>
dock_pv

> <s_m_subgroupid>
dock_pv

> <b_m_subgroup_collapsed>
1

$$$$
CHEMBL3231_lig883
                    3D
 Schrodinger Suite 2021-1.
 42 45  0  0  1  0            999 V2000
   52.5528   99.8787   31.4806 N   0  0  0  0  0  0
   52.7708  100.6380   32.5043 C   0  0  0  0  0  0
   52.4775  101.9887   32.4418 N   0  0  0  0  0  0
   51.9007  102.6859   31.4161 C   0  0  0  0  0  0
   51.9972  100.4460   30.3688 C   0  0  0  0  0  0
   51.6572  101.7959   30.2923 C   0  0  0  0  0  0
   50.9200  102.2115   28.7844 S   0  0  0  0  0  0
   51.0788  100.5659   28.2122 C   0  0  0  0  0  0
   51.6765   99.7665   29.1940 C   0  0  0  0  0  0
   50.6133  100.1776   26.8758 C   0  0  0  0  0  0
   50.1679  101.0115   25.8615 C   0  0  0  0  0  0
   49.8397  100.2011   24.8118 N   0  0  0  0  0  0
   50.0430   98.9118   25.0828 N   0  0  0  0  0  0
   50.5021   98.8866   26.3169 C   0  0  0  0  0  0
   51.6456  103.8805   31.5197 O   0  0  0  0  0  0
   50.8301   97.5562   26.9460 C   0  0  0  0  0  0
   53.4080  100.1370   33.8085 C   0  0  0  0  0  0
   53.2343   98.7126   34.1505 N   0  0  1  0  0  0
   53.9052   97.7021   33.3188 C   0  0  2  0  0  0
   53.7677   96.4248   34.1650 C   0  0  0  0  0  0
   53.6692   96.8861   35.6205 C   0  0  0  0  0  0
   53.6201   98.4077   35.5240 C   0  0  0  0  0  0
   55.3713   98.0274   32.9537 C   0  0  0  0  0  0
   52.6994  102.5545   33.2438 H   0  0  0  0  0  0
   51.8787   98.7131   29.0796 H   0  0  0  0  0  0
   50.0482  102.0829   25.8122 H   0  0  0  0  0  0
   49.4696  100.5043   23.9169 H   0  0  0  0  0  0
   51.8869   97.5048   27.2028 H   0  0  0  0  0  0
   50.2709   97.4331   27.8730 H   0  0  0  0  0  0
   50.5942   96.7029   26.3075 H   0  0  0  0  0  0
   54.4711  100.3814   33.8064 H   0  0  0  0  0  0
   52.9863  100.7183   34.6323 H   0  0  0  0  0  0
   53.3137   97.5765   32.4114 H   0  0  0  0  0  0
   54.6262   95.7616   34.0276 H   0  0  0  0  0  0
   52.8981   95.8434   33.8480 H   0  0  0  0  0  0
   54.5369   96.5597   36.1960 H   0  0  0  0  0  0
   52.7762   96.4841   36.1028 H   0  0  0  0  0  0
   54.5727   98.8693   35.7922 H   0  0  0  0  0  0
   52.8954   98.8483   36.2100 H   0  0  0  0  0  0
   55.8353   97.1953   32.4224 H   0  0  0  0  0  0
   55.4424   98.8939   32.2973 H   0  0  0  0  0  0
   55.9795   98.2265   33.8354 H   0  0  0  0  0  0
  1  5  1  0  0  0
  1  2  2  0  0  0
  2  3  1  0  0  0
  2 17  1  0  0  0
  3  4  1  0  0  0
  3 24  1  0  0  0
  4  6  1  0  0  0
  4 15  2  0  0  0
  5  6  2  0  0  0
  5  9  1  0  0  0
  6  7  1  0  0  0
  7  8  1  0  0  0
  8  9  2  0  0  0
  8 10  1  0  0  0
  9 25  1  0  0  0
 10 11  2  0  0  0
 10 14  1  0  0  0
 11 12  1  0  0  0
 11 26  1  0  0  0
 12 13  1  0  0  0
 12 27  1  0  0  0
 13 14  2  0  0  0
 14 16  1  0  0  0
 16 28  1  0  0  0
 16 29  1  0  0  0
 16 30  1  0  0  0
 17 18  1  0  0  0
 17 31  1  0  0  0
 17 32  1  0  0  0
 18 19  1  0  0  0
 18 22  1  0  0  0
 19 20  1  0  0  0
 19 23  1  0  0  0
 19 33  1  0  0  0
 20 21  1  0  0  0
 20 34  1  0  0  0
 20 35  1  0  0  0
 21 22  1  0  0  0
 21 36  1  0  0  0
 21 37  1  0  0  0
 22 38  1  0  0  0
 22 39  1  0  0  0
 23 40  1  0  0  0
 23 41  1  0  0  0
 23 42  1  0  0  0
M  END
> <s_m_entry_id>
28476

> <s_m_entry_name>
dock_pv.637

> <s_m_Source_Path>
/home/csk/Desktop/cluster/DUD-E-result/rock1

> <s_m_Source_File>
dock_pv.maegz

> <i_m_Source_File_Index>
637

> <chembl_id>
CHEMBL4078941

> <chembl_pref_name>
None

> <i_lp_mmshare_version>
53161

> <r_lp_tautomer_probability>
0.5

> <s_lp_Force_Field>
OPLS_2005

> <r_lp_Energy>
38.356608

> <b_lp_Chiralities_Consistent>
1

> <s_lp_Variant>
CHEMBL3231_lig883-1

> <s_i_glide_gridfile>
glide-grid_2etr

> <i_i_glide_lignum>
1258

> <i_i_glide_rotatable_bonds>
3

> <r_i_docking_score>
-7.16094396491961

> <r_i_glide_ligand_efficiency>
-0.311345389779114

> <r_i_glide_ligand_efficiency_sa>
-0.885424872396421

> <r_i_glide_ligand_efficiency_ln>
-1.73158118256749

> <r_i_glide_gscore>
-7.16094396491961

> <r_i_glide_lipo>
-2.03453263514271

> <r_i_glide_hbond>
-0.431930405466477

> <r_i_glide_metal>
0

> <r_i_glide_rewards>
-2.41332862383866

> <r_i_glide_evdw>
-36.0030250549316

> <r_i_glide_ecoul>
-6.49536657333374

> <r_i_glide_erotb>
0.519580534212525

> <r_i_glide_esite>
-0.0262765959376363

> <r_i_glide_emodel>
-61.0030991979883

> <r_i_glide_energy>
-42.4983916282654

> <r_i_glide_einternal>
0.531109154224396

> <i_i_glide_confnum>
32

> <i_i_glide_posenum>
332

> <r_i_glide_eff_state_penalty>
0

> <s_user_duplicate_titles>
CHEMBL3231_lig883

> <i_f3d_flags>
0

> <s_m_subgroup_title>
dock_pv

> <s_m_subgroupid>
dock_pv

> <b_m_subgroup_collapsed>
1

$$$$
CHEMBL3231_lig1898
                    3D
 Schrodinger Suite 2021-1.
 49 52  0  0  1  0            999 V2000
   56.3620   98.9277   34.2324 N   0  0  0  0  0  0
   51.2430  103.3787   31.9751 N   0  0  0  0  0  0
   55.0112  104.4880   33.6109 N   0  0  0  0  0  0
   50.0460   98.3546   25.2111 N   0  0  0  0  0  0
   54.8805  100.6247   33.8397 C   0  0  0  0  0  0
   54.2887   99.3596   33.4448 C   0  0  0  0  0  0
   55.2692   98.3320   33.6437 C   0  0  0  0  0  0
   54.3490  102.0638   33.6989 C   0  0  2  0  0  0
   56.0844  100.2573   34.4090 C   0  0  0  0  0  0
   53.2989  102.2774   32.6013 C   0  0  0  0  0  0
   53.0444   98.9790   32.9056 C   0  0  0  0  0  0
   55.0539   97.0001   33.2682 C   0  0  0  0  0  0
   53.3371  101.6393   31.3495 C   0  0  0  0  0  0
   55.4916  103.1133   33.5798 C   0  0  0  0  0  0
   52.2398  103.1519   32.8542 C   0  0  0  0  0  0
   52.8437   97.6619   32.5049 C   0  0  0  0  0  0
   52.2625  101.7870   30.4591 C   0  0  0  0  0  0
   53.8290   96.6986   32.6823 C   0  0  0  0  0  0
   57.6188   98.2746   34.5709 C   0  0  0  0  0  0
   51.2593  102.7009   30.8068 C   0  0  0  0  0  0
   52.1127  100.9031   29.2846 C   0  0  0  0  0  0
   51.2549  101.1049   28.2617 C   0  0  0  0  0  0
   50.9199  100.1458   27.1964 C   0  0  0  0  0  0
   50.4513  100.6175   25.9648 C   0  0  0  0  0  0
   50.9774   98.7597   27.4048 C   0  0  0  0  0  0
   50.0313   99.6960   25.0042 C   0  0  0  0  0  0
   50.5268   97.9045   26.3964 C   0  0  0  0  0  0
   55.7194  105.1035   33.2328 H   0  0  0  0  0  0
   54.2480  104.5792   32.9521 H   0  0  0  0  0  0
   53.8364  102.2605   34.6434 H   0  0  0  0  0  0
   56.8429  100.8783   34.8650 H   0  0  0  0  0  0
   52.2575   99.7027   32.7652 H   0  0  0  0  0  0
   55.8076   96.2372   33.4107 H   0  0  0  0  0  0
   54.1444  100.9597   31.1138 H   0  0  0  0  0  0
   56.2105  103.0001   34.3924 H   0  0  0  0  0  0
   56.0287  102.9639   32.6410 H   0  0  0  0  0  0
   52.1757  103.6908   33.7895 H   0  0  0  0  0  0
   51.9071   97.3722   32.0498 H   0  0  0  0  0  0
   53.6295   95.6819   32.3744 H   0  0  0  0  0  0
   57.4222   97.4327   35.2357 H   0  0  0  0  0  0
   58.0855   97.9097   33.6533 H   0  0  0  0  0  0
   58.2946   98.9744   35.0654 H   0  0  0  0  0  0
   50.3913  102.8427   30.1823 H   0  0  0  0  0  0
   52.7009   99.9962   29.3047 H   0  0  0  0  0  0
   50.6979  102.0279   28.2157 H   0  0  0  0  0  0
   50.3862  101.6760   25.7591 H   0  0  0  0  0  0
   51.3210   98.3476   28.3433 H   0  0  0  0  0  0
   49.6484  100.0279   24.0493 H   0  0  0  0  0  0
   50.5277   96.8329   26.5375 H   0  0  0  0  0  0
  1  7  1  0  0  0
  1  9  1  0  0  0
  1 19  1  0  0  0
  2 15  1  0  0  0
  2 20  2  0  0  0
  3 14  1  0  0  0
  3 28  1  0  0  0
  3 29  1  0  0  0
  4 26  2  0  0  0
  4 27  1  0  0  0
  5  6  1  0  0  0
  5  8  1  0  0  0
  5  9  2  0  0  0
  6  7  1  0  0  0
  6 11  2  0  0  0
  7 12  2  0  0  0
  8 10  1  0  0  0
  8 14  1  0  0  0
  8 30  1  0  0  0
  9 31  1  0  0  0
 10 13  1  0  0  0
 10 15  2  0  0  0
 11 16  1  0  0  0
 11 32  1  0  0  0
 12 18  1  0  0  0
 12 33  1  0  0  0
 13 17  2  0  0  0
 13 34  1  0  0  0
 14 35  1  0  0  0
 14 36  1  0  0  0
 15 37  1  0  0  0
 16 18  2  0  0  0
 16 38  1  0  0  0
 17 20  1  0  0  0
 17 21  1  0  0  0
 18 39  1  0  0  0
 19 40  1  0  0  0
 19 41  1  0  0  0
 19 42  1  0  0  0
 20 43  1  0  0  0
 21 22  2  3  0  0
 21 44  1  0  0  0
 22 23  1  0  0  0
 22 45  1  0  0  0
 23 24  2  0  0  0
 23 25  1  0  0  0
 24 26  1  0  0  0
 24 46  1  0  0  0
 25 27  2  0  0  0
 25 47  1  0  0  0
 26 48  1  0  0  0
 27 49  1  0  0  0
M  END
> <s_m_entry_id>
28477

> <s_m_entry_name>
dock_pv.638

> <s_m_Source_Path>
/home/csk/Desktop/cluster/DUD-E-result/rock1

> <s_m_Source_File>
dock_pv.maegz

> <i_m_Source_File_Index>
638

> <chembl_id>
CHEMBL1979357

> <chembl_pref_name>
None

> <i_lp_mmshare_version>
53161

> <r_lp_tautomer_probability>
1

> <s_lp_Force_Field>
OPLS_2005

> <r_lp_Energy>
16.461406

> <b_lp_Chiralities_Consistent>
1

> <s_lp_Variant>
CHEMBL3231_lig1898-1

> <s_i_glide_gridfile>
glide-grid_2etr

> <i_i_glide_lignum>
2752

> <i_i_glide_rotatable_bonds>
5

> <r_i_docking_score>
-7.16077114414422

> <r_i_glide_ligand_efficiency>
-0.265213746079415

> <r_i_glide_ligand_efficiency_sa>
-0.795641237364145

> <r_i_glide_ligand_efficiency_ln>
-1.666909467818

> <r_i_glide_gscore>
-7.16077114414422

> <r_i_glide_lipo>
-2.14906329310493

> <r_i_glide_hbond>
-0.439436346382164

> <r_i_glide_metal>
0

> <r_i_glide_rewards>
-2.3007361969697

> <r_i_glide_evdw>
-36.9292335510254

> <r_i_glide_ecoul>
-6.59035873413086

> <r_i_glide_erotb>
0.608401484509282

> <r_i_glide_esite>
-0.0449213045258152

> <r_i_glide_emodel>
-57.5143119237567

> <r_i_glide_energy>
-43.5195922851562

> <r_i_glide_einternal>
9.23172378540039

> <i_i_glide_confnum>
27

> <i_i_glide_posenum>
188

> <r_i_glide_eff_state_penalty>
0

> <s_user_duplicate_titles>
CHEMBL3231_lig1898

> <i_f3d_flags>
0

> <s_m_subgroup_title>
dock_pv

> <s_m_subgroupid>
dock_pv

> <b_m_subgroup_collapsed>
1

$$$$
CHEMBL3231_lig911
                    3D
 Schrodinger Suite 2021-1.
 37 39  0  0  1  0            999 V2000
   55.0310  101.1230   33.2796 C   0  0  0  0  0  0
   53.5916  101.0270   32.6633 C   0  0  2  0  0  0
   52.6057  100.1403   33.4647 C   0  0  0  0  0  0
   53.7644  100.3729   31.3494 N   0  0  0  0  0  0
   53.0112  102.3882   32.4747 N   0  0  0  0  0  0
   52.1776  102.7983   31.4866 C   0  0  0  0  0  0
   52.7826  100.6011   30.4169 C   0  0  0  0  0  0
   52.0489  101.7799   30.4795 C   0  0  0  0  0  0
   50.9866  101.9117   29.1093 S   0  0  0  0  0  0
   51.4937  100.3554   28.4986 C   0  0  0  0  0  0
   52.4421   99.7844   29.3433 C   0  0  0  0  0  0
   50.9379   99.8061   27.2284 C   0  0  0  0  0  0
   50.9075   98.4179   27.0421 C   0  0  0  0  0  0
   50.4435   97.9091   25.8312 C   0  0  0  0  0  0
   50.0288   98.7030   24.8131 N   0  0  0  0  0  0
   50.0427  100.0449   25.0042 C   0  0  0  0  0  0
   50.4854  100.6328   26.1888 C   0  0  0  0  0  0
   51.6433  103.9029   31.5306 O   0  0  0  0  0  0
   55.7499   99.7625   33.4749 C   0  0  0  0  0  0
   55.0838  101.9272   34.5987 C   0  0  0  0  0  0
   55.6372  101.6871   32.5663 H   0  0  0  0  0  0
   51.6222  100.0931   32.9945 H   0  0  0  0  0  0
   52.9635   99.1150   33.5620 H   0  0  0  0  0  0
   52.4574  100.5293   34.4718 H   0  0  0  0  0  0
   54.3566   99.5549   31.3485 H   0  0  0  0  0  0
   53.1554  103.0548   33.2158 H   0  0  0  0  0  0
   52.9081   98.8265   29.1707 H   0  0  0  0  0  0
   51.2467   97.7400   27.8121 H   0  0  0  0  0  0
   50.4386   96.8430   25.6550 H   0  0  0  0  0  0
   49.6965  100.6503   24.1777 H   0  0  0  0  0  0
   50.4959  101.7091   26.2799 H   0  0  0  0  0  0
   55.2283   99.1251   34.1885 H   0  0  0  0  0  0
   56.7653   99.8973   33.8520 H   0  0  0  0  0  0
   55.8462   99.2082   32.5413 H   0  0  0  0  0  0
   54.4973  101.4500   35.3842 H   0  0  0  0  0  0
   56.1079  102.0126   34.9653 H   0  0  0  0  0  0
   54.7107  102.9438   34.4728 H   0  0  0  0  0  0
  1  2  1  0  0  0
  1 19  1  0  0  0
  1 20  1  0  0  0
  1 21  1  0  0  0
  2  3  1  0  0  0
  2  4  1  0  0  0
  2  5  1  0  0  0
  3 22  1  0  0  0
  3 23  1  0  0  0
  3 24  1  0  0  0
  4  7  1  0  0  0
  4 25  1  0  0  0
  5  6  1  0  0  0
  5 26  1  0  0  0
  6  8  1  0  0  0
  6 18  2  0  0  0
  7  8  2  0  0  0
  7 11  1  0  0  0
  8  9  1  0  0  0
  9 10  1  0  0  0
 10 11  2  0  0  0
 10 12  1  0  0  0
 11 27  1  0  0  0
 12 13  2  0  0  0
 12 17  1  0  0  0
 13 14  1  0  0  0
 13 28  1  0  0  0
 14 15  2  0  0  0
 14 29  1  0  0  0
 15 16  1  0  0  0
 16 17  2  0  0  0
 16 30  1  0  0  0
 17 31  1  0  0  0
 19 32  1  0  0  0
 19 33  1  0  0  0
 19 34  1  0  0  0
 20 35  1  0  0  0
 20 36  1  0  0  0
 20 37  1  0  0  0
M  END
> <s_m_entry_id>
28478

> <s_m_entry_name>
dock_pv.639

> <s_m_Source_Path>
/home/csk/Desktop/cluster/DUD-E-result/rock1

> <s_m_Source_File>
dock_pv.maegz

> <i_m_Source_File_Index>
639

> <chembl_id>
CHEMBL4207608

> <chembl_pref_name>
None

> <i_lp_mmshare_version>
53161

> <r_lp_tautomer_probability>
0.99999637101317

> <s_lp_Force_Field>
OPLS_2005

> <r_lp_Energy>
22.14175

> <b_lp_Chiralities_Consistent>
1

> <s_lp_Variant>
CHEMBL3231_lig911-1

> <s_i_glide_gridfile>
glide-grid_2etr

> <i_i_glide_lignum>
1306

> <i_i_glide_rotatable_bonds>
2

> <r_i_docking_score>
-7.15964976260938

> <r_i_glide_ligand_efficiency>
-0.357982488130469

> <r_i_glide_ligand_efficiency_sa>
-0.971713971243491

> <r_i_glide_ligand_efficiency_ln>
-1.79182419452774

> <r_i_glide_gscore>
-7.15964976260938

> <r_i_glide_lipo>
-2.08960977152961

> <r_i_glide_hbond>
-0.35475144295695

> <r_i_glide_metal>
0

> <r_i_glide_rewards>
-2.4663418030303

> <r_i_glide_evdw>
-32.9079933166504

> <r_i_glide_ecoul>
-4.79153633117676

> <r_i_glide_erotb>
0.220074523103968

> <r_i_glide_esite>
-0.10489115268745

> <r_i_glide_emodel>
-54.6014814768956

> <r_i_glide_energy>
-37.6995296478271

> <r_i_glide_einternal>
0.753148376941681

> <i_i_glide_confnum>
1

> <i_i_glide_posenum>
52

> <r_i_glide_eff_state_penalty>
0

> <s_user_duplicate_titles>
CHEMBL3231_lig911

> <i_f3d_flags>
0

> <s_m_subgroup_title>
dock_pv

> <s_m_subgroupid>
dock_pv

> <b_m_subgroup_collapsed>
1

$$$$
CHEMBL3231_lig46
                    3D
 Schrodinger Suite 2021-1.
 47 50  0  0  1  0            999 V2000
   54.0614  102.1769   31.9724 C   0  0  1  0  0  0
   52.5589  102.5127   32.0516 C   0  0  0  0  0  0
   52.1065  103.0511   33.2170 C   0  0  0  0  0  0
   52.9385  103.4621   34.2231 N   0  0  0  0  0  0
   54.2836  103.5964   34.1510 C   0  0  0  0  0  0
   54.8615  103.2662   32.7539 C   0  0  0  0  0  0
   54.9594  104.0050   35.0924 O   0  0  0  0  0  0
   50.6504  103.2730   33.6046 C   0  0  0  0  0  0
   51.7268  102.2371   30.8864 C   0  0  0  0  0  0
   50.8451  103.0120   30.5030 O   0  0  0  0  0  0
   52.0374  101.0687   30.2830 N   0  0  0  0  0  0
   51.5216  100.4804   29.1135 C   0  0  0  0  0  0
   51.5694   99.0817   29.0308 C   0  0  0  0  0  0
   51.1380   98.4027   27.8923 C   0  0  0  0  0  0
   51.0269  101.2386   28.0420 C   0  0  0  0  0  0
   50.5842  100.5698   26.8900 C   0  0  0  0  0  0
   50.6419   99.1436   26.8113 C   0  0  0  0  0  0
   50.1710   98.6615   25.6188 N   0  0  0  0  0  0
   49.8203   99.7796   24.9609 N   0  0  0  0  0  0
   50.0298  100.9499   25.6444 C   0  0  0  0  0  0
   54.3351  100.7157   32.3872 C   0  0  0  0  0  0
   54.1495  100.2710   33.7024 C   0  0  0  0  0  0
   54.3255   98.9287   34.0281 C   0  0  0  0  0  0
   54.6725   98.0038   33.0415 C   0  0  0  0  0  0
   54.8441   98.4404   31.7257 C   0  0  0  0  0  0
   54.7058   99.7880   31.4083 C   0  0  0  0  0  0
   54.8786   96.5370   33.4205 C   0  0  0  0  0  0
   55.9020   96.4357   34.2687 F   0  0  0  0  0  0
   55.1356   95.7640   32.3625 F   0  0  0  0  0  0
   53.7834   96.0708   34.0224 F   0  0  0  0  0  0
   52.0393   98.3527   30.0714 F   0  0  0  0  0  0
   54.3961  102.2553   30.9334 H   0  0  0  0  0  0
   52.5526  103.7672   35.1033 H   0  0  0  0  0  0
   55.9352  103.0849   32.7873 H   0  0  0  0  0  0
   54.7244  104.2106   32.2307 H   0  0  0  0  0  0
   49.9450  102.8464   32.8915 H   0  0  0  0  0  0
   50.4381  102.7892   34.5602 H   0  0  0  0  0  0
   50.4430  104.3350   33.7172 H   0  0  0  0  0  0
   52.7169  100.5012   30.7700 H   0  0  0  0  0  0
   51.1867   97.3244   27.8528 H   0  0  0  0  0  0
   50.9999  102.3174   28.0835 H   0  0  0  0  0  0
   49.4108   99.7404   24.0350 H   0  0  0  0  0  0
   49.7441  101.8948   25.2111 H   0  0  0  0  0  0
   53.8554  100.9460   34.4878 H   0  0  0  0  0  0
   54.1901   98.6071   35.0507 H   0  0  0  0  0  0
   55.1362   97.7473   30.9509 H   0  0  0  0  0  0
   54.8783  100.1013   30.3886 H   0  0  0  0  0  0
  1  6  1  0  0  0
  1 21  1  0  0  0
  1  2  1  0  0  0
  1 32  1  0  0  0
  2  9  1  0  0  0
  2  3  2  0  0  0
  3  8  1  0  0  0
  3  4  1  0  0  0
  4  5  1  0  0  0
  4 33  1  0  0  0
  5  6  1  0  0  0
  5  7  2  0  0  0
  6 34  1  0  0  0
  6 35  1  0  0  0
  8 36  1  0  0  0
  8 37  1  0  0  0
  8 38  1  0  0  0
  9 10  2  0  0  0
  9 11  1  0  0  0
 11 39  1  0  0  0
 11 12  1  0  0  0
 12 13  1  0  0  0
 12 15  2  0  0  0
 13 14  2  0  0  0
 13 31  1  0  0  0
 14 17  1  0  0  0
 14 40  1  0  0  0
 15 41  1  0  0  0
 15 16  1  0  0  0
 16 17  1  0  0  0
 16 20  2  0  0  0
 17 18  2  0  0  0
 18 19  1  0  0  0
 19 42  1  0  0  0
 19 20  1  0  0  0
 20 43  1  0  0  0
 21 22  2  0  0  0
 21 26  1  0  0  0
 22 23  1  0  0  0
 22 44  1  0  0  0
 23 24  2  0  0  0
 23 45  1  0  0  0
 24 25  1  0  0  0
 24 27  1  0  0  0
 25 26  2  0  0  0
 25 46  1  0  0  0
 26 47  1  0  0  0
 27 28  1  0  0  0
 27 29  1  0  0  0
 27 30  1  0  0  0
M  END
> <s_m_entry_id>
28479

> <s_m_entry_name>
dock_pv.640

> <s_m_Source_Path>
/home/csk/Desktop/cluster/DUD-E-result/rock1

> <s_m_Source_File>
dock_pv.maegz

> <i_m_Source_File_Index>
640

> <chembl_id>
CHEMBL375312

> <chembl_pref_name>
None

> <i_lp_mmshare_version>
53161

> <r_lp_tautomer_probability>
0.019607843137214

> <s_lp_Force_Field>
OPLS_2005

> <r_lp_Energy>
45.547262

> <b_lp_Chiralities_Consistent>
1

> <s_lp_Variant>
CHEMBL3231_lig46-4

> <s_i_glide_gridfile>
glide-grid_2etr

> <i_i_glide_lignum>
58

> <i_i_glide_rotatable_bonds>
5

> <r_i_docking_score>
-7.15947225310746

> <r_i_glide_ligand_efficiency>
-0.230950717842176

> <r_i_glide_ligand_efficiency_sa>
-0.725504115854858

> <r_i_glide_ligand_efficiency_ln>
-1.61468040454997

> <r_i_glide_gscore>
-7.15947225310746

> <r_i_glide_lipo>
-1.93834980635872

> <r_i_glide_hbond>
-0.394580435070233

> <r_i_glide_metal>
0

> <r_i_glide_rewards>
-2.00184296516831

> <r_i_glide_evdw>
-44.302604675293

> <r_i_glide_ecoul>
-6.32708406448364

> <r_i_glide_erotb>
0.425750548183419

> <r_i_glide_esite>
-0.086256751256414

> <r_i_glide_emodel>
-69.9063517699885

> <r_i_glide_energy>
-50.6296887397766

> <r_i_glide_einternal>
4.0420126914978

> <i_i_glide_confnum>
80

> <i_i_glide_posenum>
185

> <r_i_glide_eff_state_penalty>
0

> <s_user_duplicate_titles>
CHEMBL3231_lig46

> <i_f3d_flags>
0

> <s_m_subgroup_title>
dock_pv

> <s_m_subgroupid>
dock_pv

> <b_m_subgroup_collapsed>
1

$$$$
CHEMBL3231_lig1057 
                    3D
 Schrodinger Suite 2021-1.
 62 65  0  0  1  0            999 V2000
   48.8634  103.7548   36.2920 C   0  0  0  0  0  0
   48.5815  105.0850   35.9827 C   0  0  0  0  0  0
   49.5290  105.8896   35.3476 C   0  0  0  0  0  0
   50.7769  105.3325   35.0172 C   0  0  0  0  0  0
   50.1094  103.2196   35.9713 C   0  0  0  0  0  0
   51.0850  104.0027   35.3208 C   0  0  0  0  0  0
   52.4603  103.4081   35.0205 C   0  0  0  0  0  0
   52.4023  101.8583   34.9873 C   0  0  1  0  0  0
   51.6294  101.3931   36.2486 C   0  0  0  0  0  0
   50.2748  101.8723   36.2579 O   0  0  0  0  0  0
   51.7891  101.3014   33.6761 C   0  0  0  0  0  0
   50.8436  100.5088   33.7166 O   0  0  0  0  0  0
   52.3787  101.6908   32.5237 N   0  0  0  0  0  0
   52.0715  101.1841   31.2476 C   0  0  0  0  0  0
   52.2131   99.8187   30.9345 C   0  0  0  0  0  0
   51.8905   99.3912   29.6380 C   0  0  0  0  0  0
   51.3810  100.2641   28.6656 C   0  0  0  0  0  0
   51.2790  101.6230   29.0040 C   0  0  0  0  0  0
   51.6440  102.0835   30.2700 C   0  0  0  0  0  0
   52.6743   98.9695   31.9250 O   0  0  0  0  0  0
   52.8946   97.5874   31.6439 C   0  0  0  0  0  0
   53.3431   96.8490   32.9228 C   0  0  0  0  0  0
   54.4430   97.4970   33.6512 N   0  0  0  0  0  0
   54.7670   96.7260   34.8485 C   0  0  0  0  0  0
   55.6434   97.6518   32.8305 C   0  0  0  0  0  0
   50.9398   99.7496   27.3253 C   0  0  0  0  0  0
   49.1598  107.1964   35.0855 O   0  0  0  0  0  0
   50.1263  108.0945   34.5464 C   0  0  0  0  0  0
   50.8038  100.5959   26.2084 C   0  0  0  0  0  0
   50.3413  100.0736   24.9972 C   0  0  0  0  0  0
   50.0430   98.7617   24.8227 N   0  0  0  0  0  0
   50.2185   97.9405   25.8870 C   0  0  0  0  0  0
   50.6300   98.3917   27.1364 C   0  0  0  0  0  0
   48.1158  103.1385   36.7725 H   0  0  0  0  0  0
   47.6163  105.4971   36.2342 H   0  0  0  0  0  0
   51.5339  105.9356   34.5306 H   0  0  0  0  0  0
   52.8476  103.8293   34.0919 H   0  0  0  0  0  0
   53.1330  103.7211   35.8183 H   0  0  0  0  0  0
   53.4124  101.4472   34.9966 H   0  0  0  0  0  0
   52.1315  101.7848   37.1360 H   0  0  0  0  0  0
   51.6447  100.3056   36.3470 H   0  0  0  0  0  0
   53.0901  102.4022   32.5651 H   0  0  0  0  0  0
   52.0199   98.3511   29.3919 H   0  0  0  0  0  0
   50.9055  102.3430   28.2957 H   0  0  0  0  0  0
   51.5622  103.1346   30.5006 H   0  0  0  0  0  0
   51.9728   97.1245   31.2874 H   0  0  0  0  0  0
   53.6408   97.4711   30.8559 H   0  0  0  0  0  0
   52.4855   96.7760   33.5903 H   0  0  0  0  0  0
   53.6280   95.8260   32.6631 H   0  0  0  0  0  0
   55.5527   97.2168   35.4261 H   0  0  0  0  0  0
   53.8968   96.6340   35.5010 H   0  0  0  0  0  0
   55.1117   95.7199   34.5993 H   0  0  0  0  0  0
   56.4572   98.0936   33.4082 H   0  0  0  0  0  0
   55.9905   96.6957   32.4333 H   0  0  0  0  0  0
   55.4627   98.3216   31.9892 H   0  0  0  0  0  0
   49.6898  109.0885   34.4646 H   0  0  0  0  0  0
   50.4421  107.7871   33.5499 H   0  0  0  0  0  0
   51.0059  108.1735   35.1869 H   0  0  0  0  0  0
   51.0411  101.6486   26.2613 H   0  0  0  0  0  0
   50.2083  100.7033   24.1309 H   0  0  0  0  0  0
   50.0431   96.8885   25.7296 H   0  0  0  0  0  0
   50.7019   97.6691   27.9364 H   0  0  0  0  0  0
  1  5  1  0  0  0
  1  2  2  0  0  0
  1 34  1  0  0  0
  2  3  1  0  0  0
  2 35  1  0  0  0
  3  4  2  0  0  0
  3 27  1  0  0  0
  4  6  1  0  0  0
  4 36  1  0  0  0
  5  6  2  0  0  0
  5 10  1  0  0  0
  6  7  1  0  0  0
  7  8  1  0  0  0
  7 37  1  0  0  0
  7 38  1  0  0  0
  8  9  1  0  0  0
  8 11  1  0  0  0
  8 39  1  0  0  0
  9 10  1  0  0  0
  9 40  1  0  0  0
  9 41  1  0  0  0
 11 12  2  0  0  0
 11 13  1  0  0  0
 13 14  1  0  0  0
 13 42  1  0  0  0
 14 15  2  0  0  0
 14 19  1  0  0  0
 15 16  1  0  0  0
 15 20  1  0  0  0
 16 17  2  0  0  0
 16 43  1  0  0  0
 17 18  1  0  0  0
 17 26  1  0  0  0
 18 19  2  0  0  0
 18 44  1  0  0  0
 19 45  1  0  0  0
 20 21  1  0  0  0
 21 22  1  0  0  0
 21 46  1  0  0  0
 21 47  1  0  0  0
 22 23  1  0  0  0
 22 48  1  0  0  0
 22 49  1  0  0  0
 23 24  1  0  0  0
 23 25  1  0  0  0
 24 50  1  0  0  0
 24 51  1  0  0  0
 24 52  1  0  0  0
 25 53  1  0  0  0
 25 54  1  0  0  0
 25 55  1  0  0  0
 26 29  2  0  0  0
 26 33  1  0  0  0
 27 28  1  0  0  0
 28 56  1  0  0  0
 28 57  1  0  0  0
 28 58  1  0  0  0
 29 30  1  0  0  0
 29 59  1  0  0  0
 30 31  2  0  0  0
 30 60  1  0  0  0
 31 32  1  0  0  0
 32 33  2  0  0  0
 32 61  1  0  0  0
 33 62  1  0  0  0
M  END
> <s_m_entry_id>
28481

> <s_m_entry_name>
dock_pv.642

> <s_m_Source_Path>
/home/csk/Desktop/cluster/DUD-E-result/rock1

> <s_m_Source_File>
dock_pv.maegz

> <i_m_Source_File_Index>
642

> <chembl_id>
CHEMBL4552537

> <chembl_pref_name>
None

> <i_lp_mmshare_version>
53161

> <r_lp_tautomer_probability>
1

> <s_lp_Force_Field>
OPLS_2005

> <r_lp_Energy>
39.842324

> <b_lp_Chiralities_Consistent>
1

> <s_lp_Variant>
CHEMBL3231_lig1057 -1

> <s_i_glide_gridfile>
glide-grid_2etr

> <i_i_glide_lignum>
1476

> <i_i_glide_rotatable_bonds>
9

> <r_i_docking_score>
-7.1565973988613

> <r_i_glide_ligand_efficiency>
-0.216866587844282

> <r_i_glide_ligand_efficiency_sa>
-0.695607024728858

> <r_i_glide_ligand_efficiency_ln>
-1.59159020662856

> <r_i_glide_gscore>
-7.1565973988613

> <r_i_glide_lipo>
-3.21310091866657

> <r_i_glide_hbond>
-0.163846734874796

> <r_i_glide_metal>
0

> <r_i_glide_rewards>
-1.07850885099429

> <r_i_glide_evdw>
-50.7327156066895

> <r_i_glide_ecoul>
-5.64544725418091

> <r_i_glide_erotb>
0.699907783908909

> <r_i_glide_esite>
-0.0175958097729397

> <r_i_glide_emodel>
-79.6511819393119

> <r_i_glide_energy>
-56.3781628608704

> <r_i_glide_einternal>
5.58898401260376

> <i_i_glide_confnum>
14

> <i_i_glide_posenum>
79

> <r_i_glide_eff_state_penalty>
0

> <s_user_duplicate_titles>
CHEMBL3231_lig1057 ,CHEMBL3231_lig1058 

> <i_f3d_flags>
0

> <s_m_subgroup_title>
dock_pv

> <s_m_subgroupid>
dock_pv

> <b_m_subgroup_collapsed>
1

$$$$
CHEMBL3231_lig225
                    3D
 Schrodinger Suite 2021-1.
 45 47  0  0  1  0            999 V2000
   52.8879  102.9577   31.3507 C   0  0  0  0  0  0
   53.0133  102.7898   32.7249 C   0  0  0  0  0  0
   52.7004  101.5805   33.3436 C   0  0  0  0  0  0
   52.2840  100.4871   32.5751 C   0  0  0  0  0  0
   52.4034  101.8808   30.5969 C   0  0  0  0  0  0
   52.1118  100.6175   31.1838 C   0  0  0  0  0  0
   51.6364   99.6564   30.2294 C   0  0  0  0  0  0
   51.5308  100.2043   28.9484 C   0  0  0  0  0  0
   52.0543  101.8838   28.8894 S   0  0  0  0  0  0
   51.2441   98.2500   30.6598 C   0  0  0  0  0  0
   51.0193   99.5774   27.6805 C   0  0  0  0  0  0
   50.4013  100.4130   26.8009 N   0  0  0  0  0  0
   49.9350   99.8631   25.6573 C   0  0  0  0  0  0
   50.0430   98.5662   25.2862 N   0  0  0  0  0  0
   50.6564   97.7508   26.1770 C   0  0  0  0  0  0
   51.1609   98.2145   27.3934 C   0  0  0  0  0  0
   49.2430  100.7031   24.8109 N   0  0  0  0  0  0
   52.7649  101.4814   34.8701 C   0  0  2  0  0  0
   53.7878  100.5338   35.2774 N   0  0  0  0  0  0
   51.4175  101.0860   35.5300 C   0  0  0  0  0  0
   50.1947  101.9543   35.1299 C   0  0  0  0  0  0
   50.3631  103.4364   35.5143 C   0  0  0  0  0  0
   48.8928  101.3837   35.7167 C   0  0  0  0  0  0
   53.1361  103.9027   30.8873 H   0  0  0  0  0  0
   53.3528  103.6268   33.3191 H   0  0  0  0  0  0
   52.0554   99.5510   33.0584 H   0  0  0  0  0  0
   52.1161   97.6064   30.7812 H   0  0  0  0  0  0
   50.7167   98.2477   31.6110 H   0  0  0  0  0  0
   50.5655   97.7555   29.9676 H   0  0  0  0  0  0
   50.7399   96.7103   25.8998 H   0  0  0  0  0  0
   51.6427   97.5360   28.0727 H   0  0  0  0  0  0
   49.1812  101.6822   25.0447 H   0  0  0  0  0  0
   48.9572  100.3575   23.8960 H   0  0  0  0  0  0
   53.0762  102.4419   35.2832 H   0  0  0  0  0  0
   53.5138   99.5859   35.0643 H   0  0  0  0  0  0
   54.6530  100.7183   34.7864 H   0  0  0  0  0  0
   51.5324  101.1187   36.6152 H   0  0  0  0  0  0
   51.1947  100.0441   35.2934 H   0  0  0  0  0  0
   50.0901  101.9092   34.0448 H   0  0  0  0  0  0
   50.5001  103.5549   36.5895 H   0  0  0  0  0  0
   49.4889  104.0207   35.2256 H   0  0  0  0  0  0
   51.2244  103.8855   35.0195 H   0  0  0  0  0  0
   48.8660  101.4852   36.8023 H   0  0  0  0  0  0
   48.0174  101.8990   35.3195 H   0  0  0  0  0  0
   48.7880  100.3258   35.4737 H   0  0  0  0  0  0
  1  5  2  0  0  0
  1  2  1  0  0  0
  1 24  1  0  0  0
  2  3  2  0  0  0
  2 25  1  0  0  0
  3 18  1  0  0  0
  3  4  1  0  0  0
  4  6  2  0  0  0
  4 26  1  0  0  0
  5  9  1  0  0  0
  5  6  1  0  0  0
  6  7  1  0  0  0
  7  8  2  0  0  0
  7 10  1  0  0  0
  8 11  1  0  0  0
  8  9  1  0  0  0
 10 27  1  0  0  0
 10 28  1  0  0  0
 10 29  1  0  0  0
 11 12  2  0  0  0
 11 16  1  0  0  0
 12 13  1  0  0  0
 13 14  2  0  0  0
 13 17  1  0  0  0
 14 15  1  0  0  0
 15 16  2  0  0  0
 15 30  1  0  0  0
 16 31  1  0  0  0
 17 32  1  0  0  0
 17 33  1  0  0  0
 18 19  1  0  0  0
 18 20  1  0  0  0
 18 34  1  0  0  0
 19 35  1  0  0  0
 19 36  1  0  0  0
 20 21  1  0  0  0
 20 37  1  0  0  0
 20 38  1  0  0  0
 21 22  1  0  0  0
 21 23  1  0  0  0
 21 39  1  0  0  0
 22 40  1  0  0  0
 22 41  1  0  0  0
 22 42  1  0  0  0
 23 43  1  0  0  0
 23 44  1  0  0  0
 23 45  1  0  0  0
M  END
> <s_m_entry_id>
28484

> <s_m_entry_name>
dock_pv.645

> <s_m_Source_Path>
/home/csk/Desktop/cluster/DUD-E-result/rock1

> <s_m_Source_File>
dock_pv.maegz

> <i_m_Source_File_Index>
645

> <chembl_id>
CHEMBL1082439

> <chembl_pref_name>
None

> <i_lp_mmshare_version>
53161

> <r_lp_tautomer_probability>
0.999999987636

> <s_lp_Force_Field>
OPLS_2005

> <r_lp_Energy>
7.408875

> <b_lp_Chiralities_Consistent>
1

> <s_lp_Variant>
CHEMBL3231_lig225-1

> <s_i_glide_gridfile>
glide-grid_2etr

> <i_i_glide_lignum>
367

> <i_i_glide_rotatable_bonds>
4

> <r_i_docking_score>
-7.15497634889341

> <r_i_glide_ligand_efficiency>
-0.311085928212757

> <r_i_glide_ligand_efficiency_sa>
-0.88468699821609

> <r_i_glide_ligand_efficiency_ln>
-1.730138158901

> <r_i_glide_gscore>
-7.15497634889341

> <r_i_glide_lipo>
-2.38098186836384

> <r_i_glide_hbond>
-0.381984795466898

> <r_i_glide_metal>
0

> <r_i_glide_rewards>
-2.12704130629356

> <r_i_glide_evdw>
-39.5980606079102

> <r_i_glide_ecoul>
-4.36412334442139

> <r_i_glide_erotb>
0.369553153289608

> <r_i_glide_esite>
0

> <r_i_glide_emodel>
-61.7898050542627

> <r_i_glide_energy>
-43.9621839523315

> <r_i_glide_einternal>
1.37837648391724

> <i_i_glide_confnum>
4

> <i_i_glide_posenum>
165

> <r_i_glide_eff_state_penalty>
0

> <s_user_duplicate_titles>
CHEMBL3231_lig225

> <i_f3d_flags>
0

> <s_m_subgroup_title>
dock_pv

> <s_m_subgroupid>
dock_pv

> <b_m_subgroup_collapsed>
1

$$$$
CHEMBL3231_lig1497
                    3D
 Schrodinger Suite 2021-1.
 36 39  0  0  1  0            999 V2000
   50.9231  103.8017   29.2566 O   0  0  0  0  0  0
   50.0945  102.2170   35.8513 O   0  0  0  0  0  0
   50.4430  102.3079   27.6055 N   0  0  0  0  0  0
   53.6219  104.3030   32.1549 N   0  0  0  0  0  0
   51.4718  101.4269   29.3791 C   0  0  0  0  0  0
   51.1231  100.3593   28.4431 C   0  0  0  0  0  0
   52.5475  102.4524   31.4234 C   0  0  0  0  0  0
   52.1036  102.7536   32.7605 C   0  0  0  0  0  0
   50.5087  100.9574   27.3665 C   0  0  0  0  0  0
   50.9463  102.6579   28.7998 C   0  0  0  0  0  0
   52.7949  103.9271   33.1889 C   0  0  0  0  0  0
   52.1272  101.3637   30.5605 C   0  0  0  0  0  0
   53.4768  103.4307   31.1110 C   0  0  0  0  0  0
   51.1786  102.1613   33.6380 C   0  0  0  0  0  0
   51.3051   98.9733   28.4572 C   0  0  0  0  0  0
   50.9657  102.7244   34.9067 C   0  0  0  0  0  0
   52.5835  104.5030   34.4424 C   0  0  0  0  0  0
   50.0543  100.2195   26.2740 C   0  0  0  0  0  0
   51.6643  103.8715   35.2790 C   0  0  0  0  0  0
   50.8440   98.2112   27.3782 C   0  0  0  0  0  0
   50.2242   98.8325   26.2880 C   0  0  0  0  0  0
   49.2687  101.1072   35.5212 C   0  0  0  0  0  0
   50.0000  102.9721   26.9881 H   0  0  0  0  0  0
   54.2461  105.1015   32.1101 H   0  0  0  0  0  0
   52.4335  100.3933   30.9247 H   0  0  0  0  0  0
   54.0545  103.5879   30.2095 H   0  0  0  0  0  0
   50.6511  101.2769   33.3225 H   0  0  0  0  0  0
   51.7873   98.4818   29.2902 H   0  0  0  0  0  0
   53.1036  105.3996   34.7501 H   0  0  0  0  0  0
   49.5716  100.6953   25.4323 H   0  0  0  0  0  0
   51.4831  104.2887   36.2587 H   0  0  0  0  0  0
   50.9707   97.1380   27.3869 H   0  0  0  0  0  0
   49.8720   98.2408   25.4565 H   0  0  0  0  0  0
   48.7477  100.7695   36.4113 H   0  0  0  0  0  0
   48.4984  101.3998   34.8106 H   0  0  0  0  0  0
   49.8343  100.2572   35.1364 H   0  0  0  0  0  0
  1 10  2  0  0  0
  2 16  1  0  0  0
  2 22  1  0  0  0
  3  9  1  0  0  0
  3 10  1  0  0  0
  3 23  1  0  0  0
  4 11  1  0  0  0
  4 13  1  0  0  0
  4 24  1  0  0  0
  5  6  1  0  0  0
  5 10  1  0  0  0
  5 12  2  3  0  0
  6  9  1  0  0  0
  6 15  2  0  0  0
  7  8  1  0  0  0
  7 12  1  0  0  0
  7 13  2  0  0  0
  8 11  1  0  0  0
  8 14  2  0  0  0
  9 18  2  0  0  0
 11 17  2  0  0  0
 12 25  1  0  0  0
 13 26  1  0  0  0
 14 16  1  0  0  0
 14 27  1  0  0  0
 15 20  1  0  0  0
 15 28  1  0  0  0
 16 19  2  0  0  0
 17 19  1  0  0  0
 17 29  1  0  0  0
 18 21  1  0  0  0
 18 30  1  0  0  0
 19 31  1  0  0  0
 20 21  2  0  0  0
 20 32  1  0  0  0
 21 33  1  0  0  0
 22 34  1  0  0  0
 22 35  1  0  0  0
 22 36  1  0  0  0
M  END
> <s_m_entry_id>
28486

> <s_m_entry_name>
dock_pv.647

> <s_m_Source_Path>
/home/csk/Desktop/cluster/DUD-E-result/rock1

> <s_m_Source_File>
dock_pv.maegz

> <i_m_Source_File_Index>
647

> <chembl_id>
CHEMBL1997275

> <chembl_pref_name>
None

> <i_lp_mmshare_version>
53161

> <r_lp_tautomer_probability>
1

> <s_lp_Force_Field>
OPLS_2005

> <r_lp_Energy>
38.834641

> <b_lp_Chiralities_Consistent>
1

> <s_lp_Variant>
CHEMBL3231_lig1497-2

> <s_i_glide_gridfile>
glide-grid_2etr

> <i_i_glide_lignum>
2111

> <i_i_glide_rotatable_bonds>
2

> <r_i_docking_score>
-7.15433424073358

> <r_i_glide_ligand_efficiency>
-0.325197010942436

> <r_i_glide_ligand_efficiency_sa>
-0.911214813933407

> <r_i_glide_ligand_efficiency_ln>
-1.74878024911734

> <r_i_glide_gscore>
-7.15433424073358

> <r_i_glide_lipo>
-2.17548443581559

> <r_i_glide_hbond>
-0.195074399399218

> <r_i_glide_metal>
0

> <r_i_glide_rewards>
-2.18316753665642

> <r_i_glide_evdw>
-35.9233131408691

> <r_i_glide_ecoul>
-6.29324626922607

> <r_i_glide_erotb>
0.216211536352508

> <r_i_glide_esite>
-0.0766668077875018

> <r_i_glide_emodel>
-60.0274431109215

> <r_i_glide_energy>
-42.2165594100952

> <r_i_glide_einternal>
2.38673186302185

> <i_i_glide_confnum>
4

> <i_i_glide_posenum>
26

> <r_i_glide_eff_state_penalty>
0

> <s_user_duplicate_titles>
CHEMBL3231_lig1497

> <i_f3d_flags>
0

> <s_m_subgroup_title>
dock_pv

> <s_m_subgroupid>
dock_pv

> <b_m_subgroup_collapsed>
1

$$$$
CHEMBL3231_lig1898
                    3D
 Schrodinger Suite 2021-1.
 49 52  0  0  1  0            999 V2000
   50.9810  104.8574   34.5643 N   0  0  0  0  0  0
   53.4960   98.5970   33.3551 N   0  0  0  0  0  0
   55.2597  104.2968   33.2205 N   0  0  0  0  0  0
   50.0433   98.9997   25.1708 N   0  0  0  0  0  0
   52.4056  103.1564   34.0093 C   0  0  0  0  0  0
   51.1874  102.6024   34.5627 C   0  0  0  0  0  0
   50.3095  103.6930   34.8732 C   0  0  0  0  0  0
   53.6700  102.4002   33.5627 C   0  0  1  0  0  0
   52.1921  104.5293   34.0133 C   0  0  0  0  0  0
   53.3785  100.9968   33.0207 C   0  0  0  0  0  0
   50.7371  101.2979   34.8385 C   0  0  0  0  0  0
   49.0277  103.4963   35.4051 C   0  0  0  0  0  0
   52.7125  100.7926   31.8030 C   0  0  0  0  0  0
   54.5650  103.1928   32.5739 C   0  0  0  0  0  0
   53.7680   99.8665   33.7469 C   0  0  0  0  0  0
   49.4615  101.1033   35.3555 C   0  0  0  0  0  0
   52.4437   99.4886   31.3584 C   0  0  0  0  0  0
   48.6258  102.1815   35.6150 C   0  0  0  0  0  0
   50.5148  106.2106   34.8330 C   0  0  0  0  0  0
   52.8508   98.4277   32.1750 C   0  0  0  0  0  0
   51.8093   99.1796   30.0638 C   0  0  0  0  0  0
   51.7545   99.9856   28.9841 C   0  0  0  0  0  0
   51.1583   99.6330   27.6789 C   0  0  0  0  0  0
   50.7681  100.6443   26.7950 C   0  0  0  0  0  0
   50.9720   98.2983   27.2884 C   0  0  0  0  0  0
   50.2153  100.2891   25.5609 C   0  0  0  0  0  0
   50.4255   98.0258   26.0342 C   0  0  0  0  0  0
   55.6455  104.8801   32.4764 H   0  0  0  0  0  0
   54.5875  104.8809   33.6928 H   0  0  0  0  0  0
   54.2711  102.2459   34.4606 H   0  0  0  0  0  0
   52.8419  105.3322   33.6939 H   0  0  0  0  0  0
   51.3586  100.4393   34.6461 H   0  0  0  0  0  0
   48.3695  104.3198   35.6370 H   0  0  0  0  0  0
   52.4187  101.6458   31.2085 H   0  0  0  0  0  0
   55.3261  102.5360   32.1443 H   0  0  0  0  0  0
   53.9714  103.5687   31.7375 H   0  0  0  0  0  0
   54.2964   99.9616   34.6852 H   0  0  0  0  0  0
   49.1136  100.1032   35.5664 H   0  0  0  0  0  0
   47.6425  101.9899   36.0115 H   0  0  0  0  0  0
   50.4618  106.3575   35.9123 H   0  0  0  0  0  0
   51.2040  106.9440   34.4109 H   0  0  0  0  0  0
   49.5233  106.3534   34.4086 H   0  0  0  0  0  0
   52.6724   97.4014   31.8857 H   0  0  0  0  0  0
   51.3449   98.2060   30.0090 H   0  0  0  0  0  0
   52.2088  100.9648   29.0420 H   0  0  0  0  0  0
   50.8885  101.6866   27.0549 H   0  0  0  0  0  0
   51.2574   97.4786   27.9285 H   0  0  0  0  0  0
   49.8969  101.0435   24.8561 H   0  0  0  0  0  0
   50.2927   97.0057   25.7105 H   0  0  0  0  0  0
  1  7  1  0  0  0
  1  9  1  0  0  0
  1 19  1  0  0  0
  2 15  1  0  0  0
  2 20  2  0  0  0
  3 14  1  0  0  0
  3 28  1  0  0  0
  3 29  1  0  0  0
  4 26  2  0  0  0
  4 27  1  0  0  0
  5  6  1  0  0  0
  5  8  1  0  0  0
  5  9  2  0  0  0
  6  7  1  0  0  0
  6 11  2  0  0  0
  7 12  2  0  0  0
  8 10  1  0  0  0
  8 14  1  0  0  0
  8 30  1  0  0  0
  9 31  1  0  0  0
 10 13  1  0  0  0
 10 15  2  0  0  0
 11 16  1  0  0  0
 11 32  1  0  0  0
 12 18  1  0  0  0
 12 33  1  0  0  0
 13 17  2  0  0  0
 13 34  1  0  0  0
 14 35  1  0  0  0
 14 36  1  0  0  0
 15 37  1  0  0  0
 16 18  2  0  0  0
 16 38  1  0  0  0
 17 20  1  0  0  0
 17 21  1  0  0  0
 18 39  1  0  0  0
 19 40  1  0  0  0
 19 41  1  0  0  0
 19 42  1  0  0  0
 20 43  1  0  0  0
 21 22  2  3  0  0
 21 44  1  0  0  0
 22 23  1  0  0  0
 22 45  1  0  0  0
 23 24  2  0  0  0
 23 25  1  0  0  0
 24 26  1  0  0  0
 24 46  1  0  0  0
 25 27  2  0  0  0
 25 47  1  0  0  0
 26 48  1  0  0  0
 27 49  1  0  0  0
M  END
> <s_m_entry_id>
28487

> <s_m_entry_name>
dock_pv.648

> <s_m_Source_Path>
/home/csk/Desktop/cluster/DUD-E-result/rock1

> <s_m_Source_File>
dock_pv.maegz

> <i_m_Source_File_Index>
648

> <chembl_id>
CHEMBL1979357

> <chembl_pref_name>
None

> <i_lp_mmshare_version>
53161

> <r_lp_tautomer_probability>
1

> <s_lp_Force_Field>
OPLS_2005

> <r_lp_Energy>
17.172328

> <b_lp_Chiralities_Consistent>
1

> <s_lp_Variant>
CHEMBL3231_lig1898-3

> <s_i_glide_gridfile>
glide-grid_2etr

> <i_i_glide_lignum>
2754

> <i_i_glide_rotatable_bonds>
5

> <r_i_docking_score>
-7.15329441411805

> <r_i_glide_ligand_efficiency>
-0.26493683015252

> <r_i_glide_ligand_efficiency_sa>
-0.794810489584372

> <r_i_glide_ligand_efficiency_ln>
-1.66516900833143

> <r_i_glide_gscore>
-7.15329441411805

> <r_i_glide_lipo>
-3.03371301982039

> <r_i_glide_hbond>
-0.32

> <r_i_glide_metal>
0

> <r_i_glide_rewards>
-1.4257361969697

> <r_i_glide_evdw>
-41.1724319458008

> <r_i_glide_ecoul>
-5.85621643066406

> <r_i_glide_erotb>
0.608401484509282

> <r_i_glide_esite>
-0.0451926199475956

> <r_i_glide_emodel>
-65.4414612219132

> <r_i_glide_energy>
-47.0286483764648

> <r_i_glide_einternal>
3.76451420783997

> <i_i_glide_confnum>
4

> <i_i_glide_posenum>
117

> <r_i_glide_eff_state_penalty>
0

> <s_user_duplicate_titles>
CHEMBL3231_lig1898

> <i_f3d_flags>
0

> <s_m_subgroup_title>
dock_pv

> <s_m_subgroupid>
dock_pv

> <b_m_subgroup_collapsed>
1

$$$$
CHEMBL3231_lig477
                    3D
 Schrodinger Suite 2021-1.
 42 46  0  0  1  0            999 V2000
   54.0426  104.0600   32.7236 N   0  0  0  0  0  0
   54.4779  103.1942   33.6676 C   0  0  0  0  0  0
   54.2643  101.8172   33.6096 C   0  0  0  0  0  0
   53.3981  103.5454   31.6518 C   0  0  0  0  0  0
   53.1166  102.1734   31.4743 C   0  0  0  0  0  0
   53.5307  101.2773   32.5089 C   0  0  0  0  0  0
   53.2041   99.8990   32.2985 C   0  0  0  0  0  0
   52.6143   99.4827   31.1467 N   0  0  0  0  0  0
   52.2762  100.4119   30.2160 C   0  0  0  0  0  0
   52.4825  101.7500   30.3464 N   0  0  0  0  0  0
   51.6350   99.9164   28.9461 C   0  0  0  0  0  0
   51.1813  100.8141   27.9630 C   0  0  0  0  0  0
   50.9362   98.0284   27.5333 C   0  0  0  0  0  0
   51.4730   98.5407   28.7123 C   0  0  0  0  0  0
   50.5233   98.9227   26.5457 C   0  0  0  0  0  0
   50.6181  100.3262   26.7743 C   0  0  0  0  0  0
   50.0430  100.8917   25.6122 C   0  0  0  0  0  0
   49.7158   99.8276   24.8109 N   0  0  0  0  0  0
   50.0063   98.6192   25.3173 N   0  0  0  0  0  0
   53.4150   98.8979   33.2526 N   0  0  0  0  0  0
   52.9999   99.0637   34.6605 C   0  0  0  0  0  0
   53.7932   98.1769   35.6446 C   0  0  0  0  0  0
   53.6427   96.7693   35.2978 N   0  0  0  0  0  0
   54.1634   96.5688   33.9496 C   0  0  0  0  0  0
   53.4455   97.4597   32.9077 C   0  0  0  0  0  0
   55.0322  103.6287   34.4870 H   0  0  0  0  0  0
   54.6817  101.1719   34.3684 H   0  0  0  0  0  0
   53.1177  104.2541   30.8877 H   0  0  0  0  0  0
   51.2642  101.8805   28.1111 H   0  0  0  0  0  0
   50.8502   96.9633   27.3848 H   0  0  0  0  0  0
   51.7851   97.8293   29.4617 H   0  0  0  0  0  0
   49.8343  101.9012   25.3000 H   0  0  0  0  0  0
   49.2866   99.9197   23.8944 H   0  0  0  0  0  0
   53.0019  100.0977   34.9960 H   0  0  0  0  0  0
   51.9531   98.7645   34.7213 H   0  0  0  0  0  0
   53.4445   98.3266   36.6670 H   0  0  0  0  0  0
   54.8494   98.4522   35.6509 H   0  0  0  0  0  0
   54.1631   96.1928   35.9462 H   0  0  0  0  0  0
   54.0541   95.5156   33.6870 H   0  0  0  0  0  0
   55.2377   96.7602   33.9362 H   0  0  0  0  0  0
   52.4211   97.1029   32.8084 H   0  0  0  0  0  0
   53.9304   97.3218   31.9405 H   0  0  0  0  0  0
  1  2  2  0  0  0
  1  4  1  0  0  0
  2  3  1  0  0  0
  2 26  1  0  0  0
  3  6  2  0  0  0
  3 27  1  0  0  0
  4  5  2  0  0  0
  4 28  1  0  0  0
  5  6  1  0  0  0
  5 10  1  0  0  0
  6  7  1  0  0  0
  7  8  2  0  0  0
  7 20  1  0  0  0
  8  9  1  0  0  0
  9 10  2  0  0  0
  9 11  1  0  0  0
 11 14  1  0  0  0
 11 12  2  0  0  0
 12 29  1  0  0  0
 12 16  1  0  0  0
 13 15  1  0  0  0
 13 30  1  0  0  0
 13 14  2  0  0  0
 14 31  1  0  0  0
 15 19  2  0  0  0
 15 16  1  0  0  0
 16 17  2  0  0  0
 17 18  1  0  0  0
 17 32  1  0  0  0
 18 33  1  0  0  0
 18 19  1  0  0  0
 20 21  1  0  0  0
 20 25  1  0  0  0
 21 22  1  0  0  0
 21 34  1  0  0  0
 21 35  1  0  0  0
 22 23  1  0  0  0
 22 36  1  0  0  0
 22 37  1  0  0  0
 23 24  1  0  0  0
 23 38  1  0  0  0
 24 25  1  0  0  0
 24 39  1  0  0  0
 24 40  1  0  0  0
 25 41  1  0  0  0
 25 42  1  0  0  0
M  END
> <s_m_entry_id>
28488

> <s_m_entry_name>
dock_pv.649

> <s_m_Source_Path>
/home/csk/Desktop/cluster/DUD-E-result/rock1

> <s_m_Source_File>
dock_pv.maegz

> <i_m_Source_File_Index>
649

> <chembl_id>
CHEMBL3338839

> <chembl_pref_name>
None

> <i_lp_mmshare_version>
53161

> <r_lp_tautomer_probability>
0.0196078431372549

> <s_lp_Force_Field>
OPLS_2005

> <r_lp_Energy>
53.451935

> <b_lp_Chiralities_Consistent>
1

> <s_lp_Variant>
CHEMBL3231_lig477-2

> <s_i_glide_gridfile>
glide-grid_2etr

> <i_i_glide_lignum>
672

> <i_i_glide_rotatable_bonds>
2

> <r_i_docking_score>
-7.15261955619229

> <r_i_glide_ligand_efficiency>
-0.286104782247692

> <r_i_glide_ligand_efficiency_sa>
-0.836575457382169

> <r_i_glide_ligand_efficiency_ln>
-1.69538518152895

> <r_i_glide_gscore>
-7.15261955619229

> <r_i_glide_lipo>
-2.03547578715192

> <r_i_glide_hbond>
-0.334239353348994

> <r_i_glide_metal>
0

> <r_i_glide_rewards>
-2.51128291911884

> <r_i_glide_evdw>
-39.5958099365234

> <r_i_glide_ecoul>
-4.12228107452393

> <r_i_glide_erotb>
0.342785602014284

> <r_i_glide_esite>
-0.0162744405820561

> <r_i_glide_emodel>
-62.0912333238875

> <r_i_glide_energy>
-43.7180910110474

> <r_i_glide_einternal>
0.749872922897339

> <i_i_glide_confnum>
5

> <i_i_glide_posenum>
133

> <r_i_glide_eff_state_penalty>
0

> <s_user_duplicate_titles>
CHEMBL3231_lig477

> <i_f3d_flags>
0

> <s_m_subgroup_title>
dock_pv

> <s_m_subgroupid>
dock_pv

> <b_m_subgroup_collapsed>
1

$$$$
CHEMBL3231_lig514
                    3D
 Schrodinger Suite 2021-1.
 60 64  0  0  1  0            999 V2000
   52.5370  102.6220   34.2372 C   0  0  1  0  0  0
   52.8344  102.7458   32.7253 C   0  0  0  0  0  0
   53.9814  103.3409   32.3216 C   0  0  0  0  0  0
   54.9023  103.7942   33.2096 N   0  0  0  0  0  0
   54.8274  103.6994   34.5549 C   0  0  0  0  0  0
   53.7624  102.9847   35.0109 N   0  0  0  0  0  0
   55.6002  104.3034   35.2959 O   0  0  0  0  0  0
   54.4425  103.4992   30.8765 C   0  0  0  0  0  0
   51.8419  102.3037   31.7693 C   0  0  0  0  0  0
   52.1762  101.1521   31.1465 N   0  0  0  0  0  0
   50.8434  102.9800   31.5157 O   0  0  0  0  0  0
   51.6456  100.6411   29.9471 C   0  0  0  0  0  0
   51.2456  101.4830   28.8988 C   0  0  0  0  0  0
   51.2434   98.6602   28.5821 C   0  0  0  0  0  0
   51.6471   99.2540   29.7794 C   0  0  0  0  0  0
   50.8528   99.4881   27.5194 C   0  0  0  0  0  0
   50.8600  100.9086   27.6770 C   0  0  0  0  0  0
   50.4428  101.3925   26.4112 C   0  0  0  0  0  0
   50.2141  100.2715   25.6517 N   0  0  0  0  0  0
   50.4450   99.1016   26.2707 N   0  0  0  0  0  0
   51.2640  103.3126   34.7454 C   0  0  0  0  0  0
   51.1487  104.7089   34.7377 C   0  0  0  0  0  0
   49.9772  105.3358   35.1984 C   0  0  0  0  0  0
   48.9355  104.5440   35.7049 C   0  0  0  0  0  0
   49.0483  103.1557   35.7193 C   0  0  0  0  0  0
   50.2022  102.5426   35.2370 C   0  0  0  0  0  0
   47.8068  105.1020   36.1978 F   0  0  0  0  0  0
   49.8417  106.8333   35.1483 C   0  0  0  0  0  0
   50.8404  107.5309   35.7067 N   0  0  0  0  0  0
   48.8667  107.3565   34.6040 O   0  0  0  0  0  0
   50.9301  108.9908   35.7064 C   0  0  0  0  0  0
   52.3161  109.5092   36.0723 C   0  0  0  0  0  0
   52.4448  110.5613   36.9861 C   0  0  0  0  0  0
   53.7087  111.0185   37.3513 C   0  0  0  0  0  0
   54.8424  110.4220   36.8068 C   0  0  0  0  0  0
   54.7243  109.3763   35.8943 C   0  0  0  0  0  0
   53.4622  108.9219   35.5247 C   0  0  0  0  0  0
   52.3851  101.5617   34.4508 H   0  0  0  0  0  0
   55.7341  104.2470   32.8630 H   0  0  0  0  0  0
   53.7158  102.8900   36.0148 H   0  0  0  0  0  0
   54.1071  102.6887   30.2308 H   0  0  0  0  0  0
   54.0472  104.4313   30.4683 H   0  0  0  0  0  0
   55.5294  103.5030   30.8146 H   0  0  0  0  0  0
   52.8908  100.5905   31.5846 H   0  0  0  0  0  0
   51.2784  102.5562   29.0046 H   0  0  0  0  0  0
   51.2451   97.5845   28.4741 H   0  0  0  0  0  0
   51.9751   98.6133   30.5861 H   0  0  0  0  0  0
   50.2790  102.3794   26.0067 H   0  0  0  0  0  0
   49.8912  100.3009   24.6947 H   0  0  0  0  0  0
   51.9658  105.3005   34.3457 H   0  0  0  0  0  0
   48.2378  102.5537   36.1079 H   0  0  0  0  0  0
   50.2657  101.4643   35.2565 H   0  0  0  0  0  0
   51.5346  107.0374   36.2488 H   0  0  0  0  0  0
   50.1920  109.3791   36.4113 H   0  0  0  0  0  0
   50.6668  109.3870   34.7223 H   0  0  0  0  0  0
   51.5707  111.0259   37.4162 H   0  0  0  0  0  0
   53.8092  111.8311   38.0562 H   0  0  0  0  0  0
   55.8248  110.7761   37.0832 H   0  0  0  0  0  0
   55.6109  108.9294   35.4680 H   0  0  0  0  0  0
   53.3769  108.1153   34.8104 H   0  0  0  0  0  0
  1  2  1  0  0  0
  1  6  1  0  0  0
  1 21  1  0  0  0
  1 38  1  0  0  0
  2  3  2  0  0  0
  2  9  1  0  0  0
  3  4  1  0  0  0
  3  8  1  0  0  0
  4  5  1  0  0  0
  4 39  1  0  0  0
  5  6  1  0  0  0
  5  7  2  0  0  0
  6 40  1  0  0  0
  8 41  1  0  0  0
  8 42  1  0  0  0
  8 43  1  0  0  0
  9 10  1  0  0  0
  9 11  2  0  0  0
 10 44  1  0  0  0
 10 12  1  0  0  0
 12 15  1  0  0  0
 12 13  2  0  0  0
 13 45  1  0  0  0
 13 17  1  0  0  0
 14 16  1  0  0  0
 14 46  1  0  0  0
 14 15  2  0  0  0
 15 47  1  0  0  0
 16 20  2  0  0  0
 16 17  1  0  0  0
 17 18  2  0  0  0
 18 19  1  0  0  0
 18 48  1  0  0  0
 19 49  1  0  0  0
 19 20  1  0  0  0
 21 22  2  0  0  0
 21 26  1  0  0  0
 22 23  1  0  0  0
 22 50  1  0  0  0
 23 24  2  0  0  0
 23 28  1  0  0  0
 24 25  1  0  0  0
 24 27  1  0  0  0
 25 26  2  0  0  0
 25 51  1  0  0  0
 26 52  1  0  0  0
 28 29  1  0  0  0
 28 30  2  0  0  0
 29 31  1  0  0  0
 29 53  1  0  0  0
 31 32  1  0  0  0
 31 54  1  0  0  0
 31 55  1  0  0  0
 32 33  2  0  0  0
 32 37  1  0  0  0
 33 34  1  0  0  0
 33 56  1  0  0  0
 34 35  2  0  0  0
 34 57  1  0  0  0
 35 36  1  0  0  0
 35 58  1  0  0  0
 36 37  2  0  0  0
 36 59  1  0  0  0
 37 60  1  0  0  0
M  END
> <s_m_entry_id>
28489

> <s_m_entry_name>
dock_pv.650

> <s_m_Source_Path>
/home/csk/Desktop/cluster/DUD-E-result/rock1

> <s_m_Source_File>
dock_pv.maegz

> <i_m_Source_File_Index>
650

> <chembl_id>
CHEMBL3808840

> <chembl_pref_name>
None

> <i_lp_mmshare_version>
53161

> <r_lp_tautomer_probability>
0.019607843137214

> <s_lp_Force_Field>
OPLS_2005

> <r_lp_Energy>
66.132746

> <b_lp_Chiralities_Consistent>
1

> <s_lp_Variant>
CHEMBL3231_lig514-4

> <s_i_glide_gridfile>
glide-grid_2etr

> <i_i_glide_lignum>
736

> <i_i_glide_rotatable_bonds>
8

> <r_i_docking_score>
-7.14959957874708

> <r_i_glide_ligand_efficiency>
-0.193232421047218

> <r_i_glide_ligand_efficiency_sa>
-0.643893295084978

> <r_i_glide_ligand_efficiency_ln>
-1.55058053823539

> <r_i_glide_gscore>
-7.14959957874708

> <r_i_glide_lipo>
-2.24407298713193

> <r_i_glide_hbond>
-0.206332875107771

> <r_i_glide_metal>
0

> <r_i_glide_rewards>
-0.687966387806435

> <r_i_glide_evdw>
-53.1673774719238

> <r_i_glide_ecoul>
-11.9724798202515

> <r_i_glide_erotb>
0.574806296210055

> <r_i_glide_esite>
-0.131792778277094

> <r_i_glide_emodel>
-88.3478685736137

> <r_i_glide_energy>
-65.1398572921753

> <r_i_glide_einternal>
13.5718240737915

> <i_i_glide_confnum>
12

> <i_i_glide_posenum>
74

> <r_i_glide_eff_state_penalty>
0

> <s_user_duplicate_titles>
CHEMBL3231_lig514

> <i_f3d_flags>
0

> <s_m_subgroup_title>
dock_pv

> <s_m_subgroupid>
dock_pv

> <b_m_subgroup_collapsed>
1

$$$$
CHEMBL3231_lig1210
                    3D
 Schrodinger Suite 2021-1.
 36 39  0  0  1  0            999 V2000
   49.6861  100.5305   24.8110 N   0  0  0  0  0  0
   50.0941   99.4987   25.5987 C   0  0  0  0  0  0
   50.0430   98.2540   25.2110 N   0  0  0  0  0  0
   50.4428   97.5035   26.2523 N   0  0  0  0  0  0
   50.7665   98.2768   27.3472 C   0  0  0  0  0  0
   51.1722   97.9453   28.6382 C   0  0  0  0  0  0
   51.4623   99.0029   29.4979 C   0  0  0  0  0  0
   51.3463  100.3445   29.1161 C   0  0  0  0  0  0
   50.9011  100.6550   27.8207 C   0  0  0  0  0  0
   50.5983   99.6154   26.9294 C   0  0  0  0  0  0
   51.6486  101.4466   30.0923 C   0  0  0  0  0  0
   51.2806  102.6941   29.8342 N   0  0  0  0  0  0
   51.6431  103.5032   30.8857 N   0  0  0  0  0  0
   52.2409  102.7235   31.7817 N   0  0  0  0  0  0
   52.6269  103.2910   33.0701 C   0  0  0  0  0  0
   51.4430  103.5284   34.0085 C   0  0  0  0  0  0
   51.2451  104.7917   34.5743 C   0  0  0  0  0  0
   50.1621  105.0136   35.4226 C   0  0  0  0  0  0
   49.2820  103.9714   35.7095 C   0  0  0  0  0  0
   49.4763  102.7072   35.1570 C   0  0  0  0  0  0
   50.5581  102.4856   34.3078 C   0  0  0  0  0  0
   52.2884  101.4216   31.3439 C   0  0  0  0  0  0
   53.2004   99.8745   32.5241 I   0  0  0  0  0  0
   49.6169  101.4757   25.1582 H   0  0  0  0  0  0
   49.3233  100.3602   23.8766 H   0  0  0  0  0  0
   50.4731   96.4961   26.1820 H   0  0  0  0  0  0
   51.2430   96.9210   28.9711 H   0  0  0  0  0  0
   51.7577   98.7472   30.4999 H   0  0  0  0  0  0
   50.7820  101.6808   27.5059 H   0  0  0  0  0  0
   53.1647  104.2215   32.8743 H   0  0  0  0  0  0
   53.3431  102.6258   33.5512 H   0  0  0  0  0  0
   51.9248  105.6046   34.3543 H   0  0  0  0  0  0
   50.0087  105.9902   35.8583 H   0  0  0  0  0  0
   48.4427  104.1417   36.3682 H   0  0  0  0  0  0
   48.7921  101.9030   35.3872 H   0  0  0  0  0  0
   50.7064  101.5035   33.8815 H   0  0  0  0  0  0
  1  2  1  0  0  0
  1 24  1  0  0  0
  1 25  1  0  0  0
  2  3  2  0  0  0
  2 10  1  0  0  0
  3  4  1  0  0  0
  4  5  1  0  0  0
  4 26  1  0  0  0
  5  6  2  0  0  0
  5 10  1  0  0  0
  6  7  1  0  0  0
  6 27  1  0  0  0
  7  8  2  0  0  0
  7 28  1  0  0  0
  8  9  1  0  0  0
  8 11  1  0  0  0
  9 10  2  0  0  0
  9 29  1  0  0  0
 11 12  1  0  0  0
 11 22  2  0  0  0
 12 13  2  0  0  0
 13 14  1  0  0  0
 14 15  1  0  0  0
 14 22  1  0  0  0
 15 16  1  0  0  0
 15 30  1  0  0  0
 15 31  1  0  0  0
 16 17  2  0  0  0
 16 21  1  0  0  0
 17 18  1  0  0  0
 17 32  1  0  0  0
 18 19  2  0  0  0
 18 33  1  0  0  0
 19 20  1  0  0  0
 19 34  1  0  0  0
 20 21  2  0  0  0
 20 35  1  0  0  0
 21 36  1  0  0  0
 22 23  1  0  0  0
M  END
> <s_m_entry_id>
28490

> <s_m_entry_name>
dock_pv.651

> <s_m_Source_Path>
/home/csk/Desktop/cluster/DUD-E-result/rock1

> <s_m_Source_File>
dock_pv.maegz

> <i_m_Source_File_Index>
651

> <chembl_id>
CHEMBL1975128

> <chembl_pref_name>
None

> <i_lp_mmshare_version>
53161

> <r_lp_tautomer_probability>
1

> <s_lp_Force_Field>
OPLS_2005

> <r_lp_Energy>
16.412442

> <b_lp_Chiralities_Consistent>
1

> <s_lp_Variant>
CHEMBL3231_lig1210-1

> <s_i_glide_gridfile>
glide-grid_2etr

> <i_i_glide_lignum>
1679

> <i_i_glide_rotatable_bonds>
3

> <r_i_docking_score>
-7.14627800892721

> <r_i_glide_ligand_efficiency>
-0.310707739518574

> <r_i_glide_ligand_efficiency_sa>
-0.883611479877675

> <r_i_glide_ligand_efficiency_ln>
-1.72803482142499

> <r_i_glide_gscore>
-7.14627800892721

> <r_i_glide_lipo>
-2.22879403927743

> <r_i_glide_hbond>
-0.554314869806883

> <r_i_glide_metal>
0

> <r_i_glide_rewards>
-1.72456681060606

> <r_i_glide_evdw>
-38.8635635375977

> <r_i_glide_ecoul>
-5.31922340393066

> <r_i_glide_erotb>
0.239457984542102

> <r_i_glide_esite>
-0.136998586309453

> <r_i_glide_emodel>
-62.6179312761806

> <r_i_glide_energy>
-44.1827869415283

> <r_i_glide_einternal>
2.12408018112183

> <i_i_glide_confnum>
13

> <i_i_glide_posenum>
346

> <r_i_glide_eff_state_penalty>
0

> <s_user_duplicate_titles>
CHEMBL3231_lig1210

> <i_f3d_flags>
0

> <s_m_subgroup_title>
dock_pv

> <s_m_subgroupid>
dock_pv

> <b_m_subgroup_collapsed>
1

$$$$
CHEMBL3231_lig1585
                    3D
 Schrodinger Suite 2021-1.
 46 48  0  0  1  0            999 V2000
   50.4431  104.0692   27.8786 Cl  0  0  0  0  0  0
   50.8521   97.5029   28.1467 F   0  0  0  0  0  0
   51.2430   97.6538   26.0111 F   0  0  0  0  0  0
   49.2431   97.9026   26.7826 F   0  0  0  0  0  0
   50.8196  103.1030   30.8087 O   0  0  0  0  0  0
   51.5076  104.0513   34.4721 O   0  0  0  0  0  0
   55.6430   98.7399   32.9062 N   0  0  0  0  0  0
   52.3035  102.0384   29.4512 N   0  0  0  0  0  0
   53.1562  101.9083   35.2784 N   0  0  0  0  0  0
   53.1036  102.4717   34.0520 N   0  0  0  0  0  0
   50.7329   99.6222   27.1573 C   0  0  0  0  0  0
   51.4373  101.5426   28.4642 C   0  0  0  0  0  0
   50.5286   98.1304   27.0230 C   0  0  0  0  0  0
   53.5420   99.4951   33.1492 C   0  0  0  0  0  0
   54.3891   98.6664   32.3519 C   0  0  0  0  0  0
   51.4672  100.1700   28.2163 C   0  0  0  0  0  0
   54.3339  100.0177   34.2417 C   0  0  0  0  0  0
   50.6762  102.3681   27.6149 C   0  0  0  0  0  0
   50.1179  100.4658   26.2365 C   0  0  0  0  0  0
   50.1202  101.8316   26.4572 C   0  0  0  0  0  0
   55.6066   99.5061   34.0434 C   0  0  0  0  0  0
   52.1920   99.6232   32.7717 C   0  0  0  0  0  0
   53.9211   97.9536   31.2449 C   0  0  0  0  0  0
   53.8832  100.8582   35.3601 C   0  0  0  0  0  0
   51.9772  102.8323   30.4855 C   0  0  0  0  0  0
   51.7220   98.9126   31.6695 C   0  0  0  0  0  0
   52.5650   98.0749   30.9487 C   0  0  0  0  0  0
   53.1647  103.4352   31.2486 C   0  0  0  0  0  0
   52.4009  103.5809   33.7637 C   0  0  0  0  0  0
   52.8006  104.3117   32.4763 C   0  0  0  0  0  0
   56.4973   98.3117   32.5512 H   0  0  0  0  0  0
   53.2463  101.6776   29.4324 H   0  0  0  0  0  0
   53.7515  102.0779   33.3851 H   0  0  0  0  0  0
   52.0326   99.5260   28.8695 H   0  0  0  0  0  0
   49.5985  100.0660   25.3766 H   0  0  0  0  0  0
   49.6429  102.4796   25.7427 H   0  0  0  0  0  0
   56.5179   99.6471   34.6124 H   0  0  0  0  0  0
   51.5175  100.2442   33.3429 H   0  0  0  0  0  0
   54.5721   97.3143   30.6650 H   0  0  0  0  0  0
   54.2192  100.4761   36.3200 H   0  0  0  0  0  0
   50.6827   98.9885   31.3856 H   0  0  0  0  0  0
   52.1510   97.5054   30.1334 H   0  0  0  0  0  0
   53.9675  102.7245   31.4513 H   0  0  0  0  0  0
   53.6173  104.1192   30.5271 H   0  0  0  0  0  0
   53.6986  104.8674   32.7537 H   0  0  0  0  0  0
   52.0981  105.1028   32.2120 H   0  0  0  0  0  0
  1 18  1  0  0  0
  2 13  1  0  0  0
  3 13  1  0  0  0
  4 13  1  0  0  0
  5 25  2  0  0  0
  6 29  2  0  0  0
  7 15  1  0  0  0
  7 21  1  0  0  0
  7 31  1  0  0  0
  8 12  1  0  0  0
  8 25  1  0  0  0
  8 32  1  0  0  0
  9 10  1  0  0  0
  9 24  2  3  0  0
 10 29  1  0  0  0
 10 33  1  0  0  0
 11 13  1  0  0  0
 11 16  1  0  0  0
 11 19  2  0  0  0
 12 16  2  0  0  0
 12 18  1  0  0  0
 14 15  1  0  0  0
 14 17  1  0  0  0
 14 22  2  0  0  0
 15 23  2  0  0  0
 16 34  1  0  0  0
 17 21  2  0  0  0
 17 24  1  0  0  0
 18 20  2  0  0  0
 19 20  1  0  0  0
 19 35  1  0  0  0
 20 36  1  0  0  0
 21 37  1  0  0  0
 22 26  1  0  0  0
 22 38  1  0  0  0
 23 27  1  0  0  0
 23 39  1  0  0  0
 24 40  1  0  0  0
 25 28  1  0  0  0
 26 27  2  0  0  0
 26 41  1  0  0  0
 27 42  1  0  0  0
 28 30  1  0  0  0
 28 43  1  0  0  0
 28 44  1  0  0  0
 29 30  1  0  0  0
 30 45  1  0  0  0
 30 46  1  0  0  0
M  END
> <s_m_entry_id>
28491

> <s_m_entry_name>
dock_pv.652

> <s_m_Source_Path>
/home/csk/Desktop/cluster/DUD-E-result/rock1

> <s_m_Source_File>
dock_pv.maegz

> <i_m_Source_File_Index>
652

> <chembl_id>
CHEMBL1994308

> <chembl_pref_name>
None

> <i_lp_mmshare_version>
53161

> <r_lp_tautomer_probability>
1

> <s_lp_Force_Field>
OPLS_2005

> <r_lp_Energy>
19.876872

> <b_lp_Chiralities_Consistent>
1

> <s_lp_Variant>
CHEMBL3231_lig1585-2

> <s_i_glide_gridfile>
glide-grid_2etr

> <i_i_glide_lignum>
2246

> <i_i_glide_rotatable_bonds>
9

> <r_i_docking_score>
-7.1449956424092

> <r_i_glide_ligand_efficiency>
-0.23816652141364

> <r_i_glide_ligand_efficiency_sa>
-0.740038756327412

> <r_i_glide_ligand_efficiency_ln>
-1.62342086091827

> <r_i_glide_gscore>
-7.1449956424092

> <r_i_glide_lipo>
-2.08245242659033

> <r_i_glide_hbond>
-0.32

> <r_i_glide_metal>
0

> <r_i_glide_rewards>
-1.95756521439432

> <r_i_glide_evdw>
-34.1221580505371

> <r_i_glide_ecoul>
-11.0638723373413

> <r_i_glide_erotb>
0.731379446730611

> <r_i_glide_esite>
-0.150668695027107

> <r_i_glide_emodel>
-62.5891847137744

> <r_i_glide_energy>
-45.1860303878784

> <r_i_glide_einternal>
11.9000034332275

> <i_i_glide_confnum>
47

> <i_i_glide_posenum>
309

> <r_i_glide_eff_state_penalty>
0

> <s_user_duplicate_titles>
CHEMBL3231_lig1585

> <i_f3d_flags>
0

> <s_m_subgroup_title>
dock_pv

> <s_m_subgroupid>
dock_pv

> <b_m_subgroup_collapsed>
1

$$$$
CHEMBL3231_lig976 
                    3D
 Schrodinger Suite 2021-1.
 61 63  0  0  1  0            999 V2000
   50.1921   98.1486   26.0541 C   0  0  0  0  0  0
   50.0427   98.8526   24.9070 N   0  0  0  0  0  0
   50.3723  100.1682   24.9290 C   0  0  0  0  0  0
   50.8706  100.8090   26.0669 C   0  0  0  0  0  0
   51.0395  100.0718   27.2510 C   0  0  0  0  0  0
   50.6741   98.7152   27.2307 C   0  0  0  0  0  0
   51.5865  100.6956   28.4956 C   0  0  0  0  0  0
   52.3463   99.9357   29.3891 C   0  0  0  0  0  0
   52.8230  100.4522   30.6020 C   0  0  0  0  0  0
   52.5466  101.8008   30.9340 C   0  0  0  0  0  0
   51.8300  102.5797   30.0104 C   0  0  0  0  0  0
   51.3489  102.0344   28.8202 C   0  0  0  0  0  0
   52.9222  102.3868   32.2864 C   0  0  0  0  0  0
   53.1333  103.7180   32.3479 N   0  0  0  0  0  0
   52.9786  101.6689   33.2871 O   0  0  0  0  0  0
   53.4081  104.5085   33.5646 C   0  0  1  0  0  0
   52.2240  104.7114   34.5379 C   0  0  0  0  0  0
   52.3425  105.6790   35.5442 C   0  0  0  0  0  0
   51.2983  105.9225   36.4358 C   0  0  0  0  0  0
   50.1065  105.2119   36.3256 C   0  0  0  0  0  0
   49.9483  104.2500   35.3163 C   0  0  0  0  0  0
   51.0071  104.0156   34.4356 C   0  0  0  0  0  0
   48.8017  103.5043   35.1210 O   0  0  0  0  0  0
   47.6662  103.7393   35.9477 C   0  0  0  0  0  0
   54.6905  104.0386   34.2921 C   0  0  0  0  0  0
   53.5798   99.6380   31.4695 N   0  0  0  0  0  0
   53.7576   98.2079   31.2654 C   0  0  0  0  0  0
   54.6315   97.5473   32.3376 C   0  0  0  0  0  0
   54.6639   96.0217   32.1650 C   0  0  0  0  0  0
   55.6168   95.3159   33.1337 C   0  0  0  0  0  0
   55.6444   93.9024   32.8114 N   0  0  0  0  0  0
   49.9219   97.1038   26.0285 H   0  0  0  0  0  0
   50.2412  100.7032   23.9993 H   0  0  0  0  0  0
   51.1317  101.8556   26.0185 H   0  0  0  0  0  0
   50.7626   98.0978   28.1129 H   0  0  0  0  0  0
   52.5570   98.9114   29.1309 H   0  0  0  0  0  0
   51.5984  103.6119   30.2191 H   0  0  0  0  0  0
   50.7686  102.6614   28.1585 H   0  0  0  0  0  0
   53.1969  104.2269   31.4800 H   0  0  0  0  0  0
   53.6427  105.5021   33.1787 H   0  0  0  0  0  0
   53.2502  106.2571   35.6348 H   0  0  0  0  0  0
   51.4134  106.6690   37.2079 H   0  0  0  0  0  0
   49.3182  105.4230   37.0308 H   0  0  0  0  0  0
   50.8582  103.2713   33.6705 H   0  0  0  0  0  0
   46.8461  103.1061   35.6117 H   0  0  0  0  0  0
   47.8777  103.4975   36.9913 H   0  0  0  0  0  0
   47.3235  104.7711   35.8825 H   0  0  0  0  0  0
   55.0266  104.7710   35.0245 H   0  0  0  0  0  0
   54.5354  103.0958   34.8186 H   0  0  0  0  0  0
   55.5096  103.8915   33.5873 H   0  0  0  0  0  0
   53.6300   99.9713   32.4250 H   0  0  0  0  0  0
   52.7740   97.7335   31.2514 H   0  0  0  0  0  0
   54.1713   98.0078   30.2750 H   0  0  0  0  0  0
   55.6427   97.9565   32.2785 H   0  0  0  0  0  0
   54.2589   97.7985   33.3310 H   0  0  0  0  0  0
   53.6549   95.6253   32.3113 H   0  0  0  0  0  0
   54.9600   95.7940   31.1396 H   0  0  0  0  0  0
   56.6245   95.7241   33.0541 H   0  0  0  0  0  0
   55.2858   95.4481   34.1635 H   0  0  0  0  0  0
   56.1020   93.7980   31.9184 H   0  0  0  0  0  0
   56.2604   93.4434   33.4812 H   0  0  0  0  0  0
  1  2  2  0  0  0
  1  6  1  0  0  0
  1 32  1  0  0  0
  2  3  1  0  0  0
  3  4  2  0  0  0
  3 33  1  0  0  0
  4  5  1  0  0  0
  4 34  1  0  0  0
  5  6  2  0  0  0
  5  7  1  0  0  0
  6 35  1  0  0  0
  7  8  2  0  0  0
  7 12  1  0  0  0
  8  9  1  0  0  0
  8 36  1  0  0  0
  9 10  2  0  0  0
  9 26  1  0  0  0
 10 11  1  0  0  0
 10 13  1  0  0  0
 11 12  2  0  0  0
 11 37  1  0  0  0
 12 38  1  0  0  0
 13 14  1  0  0  0
 13 15  2  0  0  0
 14 16  1  0  0  0
 14 39  1  0  0  0
 16 17  1  0  0  0
 16 25  1  0  0  0
 16 40  1  0  0  0
 17 18  2  0  0  0
 17 22  1  0  0  0
 18 19  1  0  0  0
 18 41  1  0  0  0
 19 20  2  0  0  0
 19 42  1  0  0  0
 20 21  1  0  0  0
 20 43  1  0  0  0
 21 22  2  0  0  0
 21 23  1  0  0  0
 22 44  1  0  0  0
 23 24  1  0  0  0
 24 45  1  0  0  0
 24 46  1  0  0  0
 24 47  1  0  0  0
 25 48  1  0  0  0
 25 49  1  0  0  0
 25 50  1  0  0  0
 26 27  1  0  0  0
 26 51  1  0  0  0
 27 28  1  0  0  0
 27 52  1  0  0  0
 27 53  1  0  0  0
 28 29  1  0  0  0
 28 54  1  0  0  0
 28 55  1  0  0  0
 29 30  1  0  0  0
 29 56  1  0  0  0
 29 57  1  0  0  0
 30 31  1  0  0  0
 30 58  1  0  0  0
 30 59  1  0  0  0
 31 60  1  0  0  0
 31 61  1  0  0  0
M  END
> <s_m_entry_id>
28492

> <s_m_entry_name>
dock_pv.653

> <s_m_Source_Path>
/home/csk/Desktop/cluster/DUD-E-result/rock1

> <s_m_Source_File>
dock_pv.maegz

> <i_m_Source_File_Index>
653

> <chembl_id>
CHEMBL4555093

> <chembl_pref_name>
None

> <i_lp_mmshare_version>
53161

> <r_lp_tautomer_probability>
1

> <s_lp_Force_Field>
OPLS_2005

> <r_lp_Energy>
25.6894

> <b_lp_Chiralities_Consistent>
1

> <s_lp_Variant>
CHEMBL3231_lig976 -1

> <s_i_glide_gridfile>
glide-grid_2etr

> <i_i_glide_lignum>
1390

> <i_i_glide_rotatable_bonds>
11

> <r_i_docking_score>
-7.14434588877973

> <r_i_glide_ligand_efficiency>
-0.230462770605798

> <r_i_glide_ligand_efficiency_sa>
-0.723971287848866

> <r_i_glide_ligand_efficiency_ln>
-1.61126894582667

> <r_i_glide_gscore>
-7.14434588877973

> <r_i_glide_lipo>
-2.60531874073411

> <r_i_glide_hbond>
-0.468869494513154

> <r_i_glide_metal>
0

> <r_i_glide_rewards>
-1.8887816807284

> <r_i_glide_evdw>
-48.7818336486816

> <r_i_glide_ecoul>
-4.43774175643921

> <r_i_glide_erotb>
1.01602799562634

> <r_i_glide_esite>
-0.092651022530445

> <r_i_glide_emodel>
-76.4008915493166

> <r_i_glide_energy>
-53.2195754051208

> <r_i_glide_einternal>
2.02050089836121

> <i_i_glide_confnum>
20

> <i_i_glide_posenum>
166

> <r_i_glide_eff_state_penalty>
0

> <s_user_duplicate_titles>
CHEMBL3231_lig976 

> <i_f3d_flags>
0

> <s_m_subgroup_title>
dock_pv

> <s_m_subgroupid>
dock_pv

> <b_m_subgroup_collapsed>
1

$$$$
CHEMBL3231_lig445
                    3D
 Schrodinger Suite 2021-1.
 43 45  0  0  1  0            999 V2000
   53.5033   95.9566   34.7517 C   0  0  0  0  0  0
   53.4188   97.3788   34.7207 O   0  0  0  0  0  0
   53.8436   98.0417   33.5865 C   0  0  0  0  0  0
   54.1042   97.4175   32.3554 C   0  0  0  0  0  0
   54.5753   98.1593   31.2732 C   0  0  0  0  0  0
   54.7953   99.5286   31.4075 C   0  0  0  0  0  0
   54.5091  100.1731   32.6147 C   0  0  0  0  0  0
   54.7630  101.6720   32.7569 C   0  0  0  0  0  0
   53.5513  102.4898   32.9786 N   0  0  0  0  0  0
   53.3785  102.9230   34.3704 C   0  0  0  0  0  0
   52.6373  102.8074   32.0164 C   0  0  0  0  0  0
   51.6408  103.5020   32.2446 O   0  0  0  0  0  0
   52.8733  102.2341   30.8149 N   0  0  0  0  0  0
   51.9963  102.1703   29.7497 C   0  0  0  0  0  0
   51.9146  101.0987   29.0093 N   0  0  0  0  0  0
   51.0470  101.2283   28.0184 C   0  0  0  0  0  0
   50.4435  102.4855   27.9406 C   0  0  0  0  0  0
   51.0202  103.5036   29.2116 S   0  0  0  0  0  0
   50.7746  100.0849   27.1059 C   0  0  0  0  0  0
   50.2749  100.3228   25.8207 C   0  0  0  0  0  0
   49.9978   99.2355   24.9985 C   0  0  0  0  0  0
   50.1776   97.9492   25.3839 N   0  0  0  0  0  0
   50.6785   97.7312   26.6229 C   0  0  0  0  0  0
   50.9909   98.7598   27.5087 C   0  0  0  0  0  0
   54.0316   99.4224   33.6947 C   0  0  0  0  0  0
   53.2013   95.5986   35.7357 H   0  0  0  0  0  0
   52.8445   95.4947   34.0171 H   0  0  0  0  0  0
   54.5239   95.6134   34.5755 H   0  0  0  0  0  0
   53.9631   96.3556   32.2264 H   0  0  0  0  0  0
   54.8052   97.6666   30.3397 H   0  0  0  0  0  0
   55.2022  100.0807   30.5714 H   0  0  0  0  0  0
   55.4795  101.8232   33.5657 H   0  0  0  0  0  0
   55.2662  102.0320   31.8587 H   0  0  0  0  0  0
   53.3052  102.0610   35.0327 H   0  0  0  0  0  0
   54.2363  103.5171   34.6857 H   0  0  0  0  0  0
   52.4862  103.5321   34.5228 H   0  0  0  0  0  0
   53.6677  101.6143   30.7667 H   0  0  0  0  0  0
   49.7237  102.8499   27.2226 H   0  0  0  0  0  0
   50.1002  101.3263   25.4613 H   0  0  0  0  0  0
   49.6039   99.3938   24.0102 H   0  0  0  0  0  0
   50.8399   96.7025   26.9028 H   0  0  0  0  0  0
   51.3808   98.5270   28.4894 H   0  0  0  0  0  0
   53.8342   99.9023   34.6410 H   0  0  0  0  0  0
  1  2  1  0  0  0
  1 26  1  0  0  0
  1 27  1  0  0  0
  1 28  1  0  0  0
  2  3  1  0  0  0
  3  4  2  0  0  0
  3 25  1  0  0  0
  4  5  1  0  0  0
  4 29  1  0  0  0
  5  6  2  0  0  0
  5 30  1  0  0  0
  6  7  1  0  0  0
  6 31  1  0  0  0
  7  8  1  0  0  0
  7 25  2  0  0  0
  8  9  1  0  0  0
  8 32  1  0  0  0
  8 33  1  0  0  0
  9 10  1  0  0  0
  9 11  1  0  0  0
 10 34  1  0  0  0
 10 35  1  0  0  0
 10 36  1  0  0  0
 11 12  2  0  0  0
 11 13  1  0  0  0
 13 14  1  0  0  0
 13 37  1  0  0  0
 14 15  2  0  0  0
 14 18  1  0  0  0
 15 16  1  0  0  0
 16 17  2  0  0  0
 16 19  1  0  0  0
 17 18  1  0  0  0
 17 38  1  0  0  0
 19 20  2  0  0  0
 19 24  1  0  0  0
 20 21  1  0  0  0
 20 39  1  0  0  0
 21 22  2  0  0  0
 21 40  1  0  0  0
 22 23  1  0  0  0
 23 24  2  0  0  0
 23 41  1  0  0  0
 24 42  1  0  0  0
 25 43  1  0  0  0
M  END
> <s_m_entry_id>
28495

> <s_m_entry_name>
dock_pv.656

> <s_m_Source_Path>
/home/csk/Desktop/cluster/DUD-E-result/rock1

> <s_m_Source_File>
dock_pv.maegz

> <i_m_Source_File_Index>
656

> <chembl_id>
CHEMBL3218276

> <chembl_pref_name>
None

> <i_lp_mmshare_version>
53161

> <r_lp_tautomer_probability>
0.999000488399163

> <s_lp_Force_Field>
OPLS_2005

> <r_lp_Energy>
27.892911

> <b_lp_Chiralities_Consistent>
1

> <s_lp_Variant>
CHEMBL3231_lig445-1

> <s_i_glide_gridfile>
glide-grid_2etr

> <i_i_glide_lignum>
629

> <i_i_glide_rotatable_bonds>
7

> <r_i_docking_score>
-7.13917702632418

> <r_i_glide_ligand_efficiency>
-0.285567081052967

> <r_i_glide_ligand_efficiency_sa>
-0.835003209552623

> <r_i_glide_ligand_efficiency_ln>
-1.6921988991101

> <r_i_glide_gscore>
-7.13917702632418

> <r_i_glide_lipo>
-2.16399162614768

> <r_i_glide_hbond>
-0.323066958123277

> <r_i_glide_metal>
0

> <r_i_glide_rewards>
-2.35006254381838

> <r_i_glide_evdw>
-40.2078590393066

> <r_i_glide_ecoul>
-7.53573274612427

> <r_i_glide_erotb>
0.912695999635943

> <r_i_glide_esite>
-0.0739990339868134

> <r_i_glide_emodel>
-65.3169302845239

> <r_i_glide_energy>
-47.7435917854309

> <r_i_glide_einternal>
7.42697048187256

> <i_i_glide_confnum>
35

> <i_i_glide_posenum>
1

> <r_i_glide_eff_state_penalty>
0

> <s_user_duplicate_titles>
CHEMBL3231_lig445

> <i_f3d_flags>
0

> <s_m_subgroup_title>
dock_pv

> <s_m_subgroupid>
dock_pv

> <b_m_subgroup_collapsed>
1

$$$$
CHEMBL3231_lig257
                    3D
 Schrodinger Suite 2021-1.
 37 39  0  0  1  0            999 V2000
   49.7719   99.3514   24.9881 N   0  0  0  0  0  0
   49.6865  100.6969   25.1708 C   0  0  0  0  0  0
   50.1208  101.3528   26.2594 C   0  0  0  0  0  0
   50.3169   98.4963   25.8916 C   0  0  0  0  0  0
   50.7525   99.1601   27.1946 C   0  0  0  0  0  0
   50.6821  100.5564   27.3569 C   0  0  0  0  0  0
   51.1137  101.1423   28.5453 C   0  0  0  0  0  0
   51.6439  100.3638   29.5756 C   0  0  0  0  0  0
   51.7220   98.9714   29.4000 C   0  0  0  0  0  0
   51.2661   98.3720   28.2251 C   0  0  0  0  0  0
   52.0377  101.0640   30.7003 O   0  0  0  0  0  0
   52.8103  100.4897   31.7588 C   0  0  2  0  0  0
   50.4430   97.3076   25.6113 O   0  0  0  0  0  0
   54.2066   99.9690   31.3253 C   0  0  0  0  0  0
   55.0426   99.5742   32.5591 C   0  0  2  0  0  0
   54.2965   98.4505   33.3028 C   0  0  0  0  0  0
   52.9286   98.9416   33.8226 C   0  0  0  0  0  0
   52.0415   99.5005   32.6797 C   0  0  0  0  0  0
   55.3167  100.7020   33.4325 N   0  0  0  0  0  0
   49.4696   98.9412   24.1186 H   0  0  0  0  0  0
   49.2392  101.1655   24.3069 H   0  0  0  0  0  0
   50.0447  102.4285   26.3292 H   0  0  0  0  0  0
   51.0525  102.2128   28.6731 H   0  0  0  0  0  0
   52.1345   98.3230   30.1526 H   0  0  0  0  0  0
   51.3226   97.2977   28.1193 H   0  0  0  0  0  0
   52.9870  101.3693   32.3796 H   0  0  0  0  0  0
   54.1314   99.0995   30.6757 H   0  0  0  0  0  0
   54.7410  100.7473   30.7792 H   0  0  0  0  0  0
   55.9996   99.1747   32.2150 H   0  0  0  0  0  0
   54.1425   97.6007   32.6350 H   0  0  0  0  0  0
   54.9039   98.0771   34.1287 H   0  0  0  0  0  0
   53.0774   99.7129   34.5801 H   0  0  0  0  0  0
   52.4370   98.1170   34.3347 H   0  0  0  0  0  0
   51.1989  100.0158   33.1423 H   0  0  0  0  0  0
   51.6497   98.6486   32.1312 H   0  0  0  0  0  0
   55.9396  100.4040   34.1712 H   0  0  0  0  0  0
   55.8185  101.4051   32.9082 H   0  0  0  0  0  0
  1  4  1  0  0  0
  1  2  1  0  0  0
  1 20  1  0  0  0
  2  3  2  0  0  0
  2 21  1  0  0  0
  3  6  1  0  0  0
  3 22  1  0  0  0
  4 13  2  0  0  0
  4  5  1  0  0  0
  5 10  1  0  0  0
  5  6  2  0  0  0
  6  7  1  0  0  0
  7  8  2  0  0  0
  7 23  1  0  0  0
  8 11  1  0  0  0
  8  9  1  0  0  0
  9 10  2  0  0  0
  9 24  1  0  0  0
 10 25  1  0  0  0
 11 12  1  0  0  0
 12 14  1  0  0  0
 12 18  1  0  0  0
 12 26  1  0  0  0
 14 15  1  0  0  0
 14 27  1  0  0  0
 14 28  1  0  0  0
 15 16  1  0  0  0
 15 19  1  0  0  0
 15 29  1  0  0  0
 16 17  1  0  0  0
 16 30  1  0  0  0
 16 31  1  0  0  0
 17 18  1  0  0  0
 17 32  1  0  0  0
 17 33  1  0  0  0
 18 34  1  0  0  0
 18 35  1  0  0  0
 19 36  1  0  0  0
 19 37  1  0  0  0
M  END
> <s_m_entry_id>
28496

> <s_m_entry_name>
dock_pv.657

> <s_m_Source_Path>
/home/csk/Desktop/cluster/DUD-E-result/rock1

> <s_m_Source_File>
dock_pv.maegz

> <i_m_Source_File_Index>
657

> <chembl_id>
CHEMBL1667977

> <chembl_pref_name>
None

> <i_lp_mmshare_version>
53161

> <r_lp_tautomer_probability>
1

> <s_lp_Force_Field>
OPLS_2005

> <r_lp_Energy>
24.600462

> <b_lp_Chiralities_Consistent>
1

> <s_lp_Variant>
CHEMBL3231_lig257-1

> <s_i_glide_gridfile>
glide-grid_2etr

> <i_i_glide_lignum>
401

> <i_i_glide_rotatable_bonds>
2

> <r_i_docking_score>
-7.1374186327828

> <r_i_glide_ligand_efficiency>
-0.375653612251726

> <r_i_glide_ligand_efficiency_sa>
-1.00239471729703

> <r_i_glide_ligand_efficiency_ln>
-1.80948892110662

> <r_i_glide_gscore>
-7.1374186327828

> <r_i_glide_lipo>
-2.35127725482102

> <r_i_glide_hbond>
-0.250926006719488

> <r_i_glide_metal>
0

> <r_i_glide_rewards>
-2.77568972864551

> <r_i_glide_evdw>
-32.7922897338867

> <r_i_glide_ecoul>
-3.26991677284241

> <r_i_glide_erotb>
0.370576360023912

> <r_i_glide_esite>
0

> <r_i_glide_emodel>
-49.5168741767651

> <r_i_glide_energy>
-36.0622065067291

> <r_i_glide_einternal>
5.33843803405762

> <i_i_glide_confnum>
10

> <i_i_glide_posenum>
386

> <r_i_glide_eff_state_penalty>
0

> <s_user_duplicate_titles>
CHEMBL3231_lig257

> <i_f3d_flags>
0

> <s_m_subgroup_title>
dock_pv

> <s_m_subgroupid>
dock_pv

> <b_m_subgroup_collapsed>
1

$$$$
CHEMBL3231_lig262
                    3D
 Schrodinger Suite 2021-1.
 31 33  0  0  1  0            999 V2000
   49.8197   99.3561   25.0234 N   0  0  0  0  0  0
   49.8003  100.7027   25.2107 C   0  0  0  0  0  0
   50.3036  101.3413   26.2815 C   0  0  0  0  0  0
   50.3405   98.4768   25.9159 C   0  0  0  0  0  0
   50.8035   99.1171   27.2216 C   0  0  0  0  0  0
   50.8447  100.5176   27.3705 C   0  0  0  0  0  0
   51.3615  101.0813   28.5373 C   0  0  0  0  0  0
   51.8342  100.2691   29.5710 C   0  0  0  0  0  0
   51.7502   98.8739   29.4325 C   0  0  0  0  0  0
   51.2481   98.3023   28.2631 C   0  0  0  0  0  0
   52.3557  100.9163   30.6759 O   0  0  0  0  0  0
   52.9328  100.1707   31.7520 C   0  0  2  0  0  0
   50.4429   97.2903   25.6167 O   0  0  0  0  0  0
   53.3962  101.1756   32.8169 C   0  0  0  0  0  0
   54.8427  101.2956   32.7025 N   0  0  1  0  0  0
   55.2605   99.9444   32.3761 C   0  0  0  0  0  0
   54.2423   99.4779   31.3399 C   0  0  0  0  0  0
   49.4872   98.9624   24.1564 H   0  0  0  0  0  0
   49.3314  101.1843   24.3659 H   0  0  0  0  0  0
   50.2578  102.4180   26.3597 H   0  0  0  0  0  0
   51.4086  102.1547   28.6472 H   0  0  0  0  0  0
   52.0876   98.2144   30.2167 H   0  0  0  0  0  0
   51.2252   97.2249   28.1725 H   0  0  0  0  0  0
   52.2065   99.4725   32.1725 H   0  0  0  0  0  0
   53.1855  100.7649   33.8061 H   0  0  0  0  0  0
   52.8697  102.1291   32.7667 H   0  0  0  0  0  0
   55.0674  101.8710   31.8987 H   0  0  0  0  0  0
   56.2732   99.9601   31.9689 H   0  0  0  0  0  0
   55.2651   99.3030   33.2589 H   0  0  0  0  0  0
   54.5773   99.7628   30.3413 H   0  0  0  0  0  0
   54.1583   98.3920   31.3507 H   0  0  0  0  0  0
  1  4  1  0  0  0
  1  2  1  0  0  0
  1 18  1  0  0  0
  2  3  2  0  0  0
  2 19  1  0  0  0
  3  6  1  0  0  0
  3 20  1  0  0  0
  4  5  1  0  0  0
  4 13  2  0  0  0
  5 10  1  0  0  0
  5  6  2  0  0  0
  6  7  1  0  0  0
  7  8  2  0  0  0
  7 21  1  0  0  0
  8  9  1  0  0  0
  8 11  1  0  0  0
  9 10  2  0  0  0
  9 22  1  0  0  0
 10 23  1  0  0  0
 11 12  1  0  0  0
 12 14  1  0  0  0
 12 17  1  0  0  0
 12 24  1  0  0  0
 14 15  1  0  0  0
 14 25  1  0  0  0
 14 26  1  0  0  0
 15 16  1  0  0  0
 15 27  1  0  0  0
 16 17  1  0  0  0
 16 28  1  0  0  0
 16 29  1  0  0  0
 17 30  1  0  0  0
 17 31  1  0  0  0
M  END
> <s_m_entry_id>
28497

> <s_m_entry_name>
dock_pv.658

> <s_m_Source_Path>
/home/csk/Desktop/cluster/DUD-E-result/rock1

> <s_m_Source_File>
dock_pv.maegz

> <i_m_Source_File_Index>
658

> <chembl_id>
CHEMBL1667972

> <chembl_pref_name>
None

> <i_lp_mmshare_version>
53161

> <r_lp_tautomer_probability>
1

> <s_lp_Force_Field>
OPLS_2005

> <r_lp_Energy>
35.8924

> <b_lp_Chiralities_Consistent>
1

> <s_lp_Variant>
CHEMBL3231_lig262-1

> <s_i_glide_gridfile>
glide-grid_2etr

> <i_i_glide_lignum>
406

> <i_i_glide_rotatable_bonds>
2

> <r_i_docking_score>
-7.13668225781259

> <r_i_glide_ligand_efficiency>
-0.419804838694858

> <r_i_glide_ligand_efficiency_sa>
-1.07943645238591

> <r_i_glide_ligand_efficiency_ln>
-1.86180147496323

> <r_i_glide_gscore>
-7.13668225781259

> <r_i_glide_lipo>
-2.42333681783472

> <r_i_glide_hbond>
-0.234052834682366

> <r_i_glide_metal>
0

> <r_i_glide_rewards>
-3.04682500146111

> <r_i_glide_evdw>
-32.0011596679688

> <r_i_glide_ecoul>
-3.1783173084259

> <r_i_glide_erotb>
0.644337975827937

> <r_i_glide_esite>
0

> <r_i_glide_emodel>
-50.9013719824854

> <r_i_glide_energy>
-35.1794769763947

> <r_i_glide_einternal>
0.228566348552704

> <i_i_glide_confnum>
25

> <i_i_glide_posenum>
250

> <r_i_glide_eff_state_penalty>
0

> <s_user_duplicate_titles>
CHEMBL3231_lig262

> <i_f3d_flags>
0

> <s_m_subgroup_title>
dock_pv

> <s_m_subgroupid>
dock_pv

> <b_m_subgroup_collapsed>
1

$$$$
CHEMBL3231_lig938 
                    3D
 Schrodinger Suite 2021-1.
 43 47  0  0  1  0            999 V2000
   52.6315   99.9201   31.4227 N   0  0  0  0  0  0
   52.8781  100.6837   32.4420 C   0  0  0  0  0  0
   52.5385  102.0214   32.4147 N   0  0  0  0  0  0
   51.9134  102.7126   31.4133 C   0  0  0  0  0  0
   52.0236  100.4851   30.3371 C   0  0  0  0  0  0
   51.6463  101.8284   30.2917 C   0  0  0  0  0  0
   50.8533  102.2492   28.8096 S   0  0  0  0  0  0
   51.0445  100.6151   28.2118 C   0  0  0  0  0  0
   51.6838   99.8130   29.1631 C   0  0  0  0  0  0
   50.5708  100.2430   26.8760 C   0  0  0  0  0  0
   50.1479  101.0998   25.8741 C   0  0  0  0  0  0
   49.8215  100.3056   24.8109 N   0  0  0  0  0  0
   50.0038   99.0113   25.0606 N   0  0  0  0  0  0
   50.4273   98.9605   26.3057 C   0  0  0  0  0  0
   51.6430  103.9015   31.5362 O   0  0  0  0  0  0
   50.6833   97.6162   26.9282 C   0  0  0  0  0  0
   53.5358  100.1648   33.7348 C   0  0  2  0  0  0
   55.0122  100.3566   33.7351 N   0  0  1  0  0  0
   55.4974  100.0530   35.1008 C   0  0  0  0  0  0
   55.1479   98.6003   35.5559 C   0  0  0  0  0  0
   54.3889   97.8445   34.4402 C   0  0  0  0  0  0
   53.1353   98.6909   34.1153 C   0  0  0  0  0  0
   55.2909   97.9038   33.1843 C   0  0  0  0  0  0
   55.6415   99.3785   32.8172 C   0  0  0  0  0  0
   52.7947  102.5876   33.2088 H   0  0  0  0  0  0
   51.9116   98.7694   29.0246 H   0  0  0  0  0  0
   50.0502  102.1757   25.8395 H   0  0  0  0  0  0
   49.4724  100.6286   23.9143 H   0  0  0  0  0  0
   51.7344   97.5038   27.1846 H   0  0  0  0  0  0
   50.1117   97.5030   27.8504 H   0  0  0  0  0  0
   50.4208   96.7802   26.2794 H   0  0  0  0  0  0
   53.1532  100.7980   34.5381 H   0  0  0  0  0  0
   56.5776  100.2079   35.1437 H   0  0  0  0  0  0
   55.0846  100.7768   35.8054 H   0  0  0  0  0  0
   54.5334   98.6263   36.4581 H   0  0  0  0  0  0
   56.0614   98.0574   35.8057 H   0  0  0  0  0  0
   54.1394   96.8196   34.7192 H   0  0  0  0  0  0
   52.4623   98.7032   34.9746 H   0  0  0  0  0  0
   52.5720   98.1849   33.3261 H   0  0  0  0  0  0
   56.2081   97.3377   33.3584 H   0  0  0  0  0  0
   54.7845   97.4252   32.3435 H   0  0  0  0  0  0
   55.3605   99.5898   31.7844 H   0  0  0  0  0  0
   56.7270   99.5114   32.8289 H   0  0  0  0  0  0
  1  5  1  0  0  0
  1  2  2  0  0  0
  2  3  1  0  0  0
  2 17  1  0  0  0
  3  4  1  0  0  0
  3 25  1  0  0  0
  4  6  1  0  0  0
  4 15  2  0  0  0
  5  6  2  0  0  0
  5  9  1  0  0  0
  6  7  1  0  0  0
  7  8  1  0  0  0
  8  9  2  0  0  0
  8 10  1  0  0  0
  9 26  1  0  0  0
 10 11  2  0  0  0
 10 14  1  0  0  0
 11 12  1  0  0  0
 11 27  1  0  0  0
 12 13  1  0  0  0
 12 28  1  0  0  0
 13 14  2  0  0  0
 14 16  1  0  0  0
 16 29  1  0  0  0
 16 30  1  0  0  0
 16 31  1  0  0  0
 17 18  1  0  0  0
 17 22  1  0  0  0
 17 32  1  0  0  0
 18 19  1  0  0  0
 18 24  1  0  0  0
 19 20  1  0  0  0
 19 33  1  0  0  0
 19 34  1  0  0  0
 20 21  1  0  0  0
 20 35  1  0  0  0
 20 36  1  0  0  0
 21 22  1  0  0  0
 21 23  1  0  0  0
 21 37  1  0  0  0
 22 38  1  0  0  0
 22 39  1  0  0  0
 23 24  1  0  0  0
 23 40  1  0  0  0
 23 41  1  0  0  0
 24 42  1  0  0  0
 24 43  1  0  0  0
M  END
> <s_m_entry_id>
28498

> <s_m_entry_name>
dock_pv.659

> <s_m_Source_Path>
/home/csk/Desktop/cluster/DUD-E-result/rock1

> <s_m_Source_File>
dock_pv.maegz

> <i_m_Source_File_Index>
659

> <chembl_id>
CHEMBL4572218

> <chembl_pref_name>
None

> <i_lp_mmshare_version>
53161

> <r_lp_tautomer_probability>
0.5

> <s_lp_Force_Field>
OPLS_2005

> <r_lp_Energy>
56.565293

> <b_lp_Chiralities_Consistent>
1

> <s_lp_Variant>
CHEMBL3231_lig938 -1

> <s_i_glide_gridfile>
glide-grid_2etr

> <i_i_glide_lignum>
1351

> <i_i_glide_rotatable_bonds>
2

> <r_i_docking_score>
-7.13598423324554

> <r_i_glide_ligand_efficiency>
-0.297332676385231

> <r_i_glide_ligand_efficiency_sa>
-0.857655848601343

> <r_i_glide_ligand_efficiency_ln>
-1.70796847599526

> <r_i_glide_gscore>
-7.13598423324554

> <r_i_glide_lipo>
-1.96470714037918

> <r_i_glide_hbond>
-0.37964399892252

> <r_i_glide_metal>
0

> <r_i_glide_rewards>
-2.32614777272727

> <r_i_glide_evdw>
-37.9068222045898

> <r_i_glide_ecoul>
-5.77877283096313

> <r_i_glide_erotb>
0.325108865381637

> <r_i_glide_esite>
-0.0284371517242396

> <r_i_glide_emodel>
-62.9026326830154

> <r_i_glide_energy>
-43.685595035553

> <r_i_glide_einternal>
0.173623606562614

> <i_i_glide_confnum>
1

> <i_i_glide_posenum>
314

> <r_i_glide_eff_state_penalty>
0

> <s_user_duplicate_titles>
CHEMBL3231_lig938 

> <i_f3d_flags>
0

> <s_m_subgroup_title>
dock_pv

> <s_m_subgroupid>
dock_pv

> <b_m_subgroup_collapsed>
1

$$$$
CHEMBL3231_lig881
                    3D
 Schrodinger Suite 2021-1.
 42 45  0  0  1  0            999 V2000
   53.2486  100.1333   31.1480 N   0  0  0  0  0  0
   53.5272  100.9515   32.1139 C   0  0  0  0  0  0
   52.9969  102.2285   32.1256 N   0  0  0  0  0  0
   52.1146  102.7833   31.2418 C   0  0  0  0  0  0
   52.4299  100.5846   30.1487 C   0  0  0  0  0  0
   51.8558  101.8573   30.1523 C   0  0  0  0  0  0
   50.8439  102.1388   28.7742 S   0  0  0  0  0  0
   51.2352  100.5583   28.1392 C   0  0  0  0  0  0
   52.0740   99.8632   29.0112 C   0  0  0  0  0  0
   50.7144  100.1127   26.8567 C   0  0  0  0  0  0
   50.3646  100.8983   25.7742 C   0  0  0  0  0  0
   49.9301  100.0361   24.8104 N   0  0  0  0  0  0
   49.9965   98.7633   25.1924 N   0  0  0  0  0  0
   50.4496   98.7982   26.4257 C   0  0  0  0  0  0
   51.6434  103.8994   31.4217 O   0  0  0  0  0  0
   50.6124   97.5061   27.1793 C   0  0  0  0  0  0
   54.4020  100.5518   33.3192 C   0  0  1  0  0  0
   53.6078   99.9217   34.3987 N   0  0  0  0  0  0
   54.3710   99.4889   35.5664 C   0  0  0  0  0  0
   53.3333   99.1943   36.6522 C   0  0  0  0  0  0
   52.1463  100.0838   36.2836 C   0  0  0  0  0  0
   52.5993  100.7899   35.0086 C   0  0  0  0  0  0
   55.5658   99.6179   32.8851 C   0  0  0  0  0  0
   53.2458  102.8343   32.8917 H   0  0  0  0  0  0
   52.4420   98.8680   28.8322 H   0  0  0  0  0  0
   50.3791  101.9627   25.6156 H   0  0  0  0  0  0
   49.5894  100.3023   23.8934 H   0  0  0  0  0  0
   50.0119   97.5030   28.0866 H   0  0  0  0  0  0
   50.3337   96.6415   26.5809 H   0  0  0  0  0  0
   51.6429   97.3610   27.4873 H   0  0  0  0  0  0
   54.8517  101.4277   33.7945 H   0  0  0  0  0  0
   55.1072  100.2345   35.8760 H   0  0  0  0  0  0
   54.9521   98.6014   35.3088 H   0  0  0  0  0  0
   53.7244   99.4281   37.6461 H   0  0  0  0  0  0
   53.0611   98.1363   36.6516 H   0  0  0  0  0  0
   51.2436   99.5029   36.0982 H   0  0  0  0  0  0
   51.9175  100.8038   37.0720 H   0  0  0  0  0  0
   51.7730  100.9257   34.3072 H   0  0  0  0  0  0
   52.9838  101.7955   35.1982 H   0  0  0  0  0  0
   56.0212   99.9284   31.9433 H   0  0  0  0  0  0
   56.3691   99.6177   33.6212 H   0  0  0  0  0  0
   55.2357   98.5849   32.7650 H   0  0  0  0  0  0
  1  5  1  0  0  0
  1  2  2  0  0  0
  2  3  1  0  0  0
  2 17  1  0  0  0
  3  4  1  0  0  0
  3 24  1  0  0  0
  4  6  1  0  0  0
  4 15  2  0  0  0
  5  6  2  0  0  0
  5  9  1  0  0  0
  6  7  1  0  0  0
  7  8  1  0  0  0
  8  9  2  0  0  0
  8 10  1  0  0  0
  9 25  1  0  0  0
 10 11  2  0  0  0
 10 14  1  0  0  0
 11 12  1  0  0  0
 11 26  1  0  0  0
 12 13  1  0  0  0
 12 27  1  0  0  0
 13 14  2  0  0  0
 14 16  1  0  0  0
 16 28  1  0  0  0
 16 29  1  0  0  0
 16 30  1  0  0  0
 17 18  1  0  0  0
 17 23  1  0  0  0
 17 31  1  0  0  0
 18 19  1  0  0  0
 18 22  1  0  0  0
 19 20  1  0  0  0
 19 32  1  0  0  0
 19 33  1  0  0  0
 20 21  1  0  0  0
 20 34  1  0  0  0
 20 35  1  0  0  0
 21 22  1  0  0  0
 21 36  1  0  0  0
 21 37  1  0  0  0
 22 38  1  0  0  0
 22 39  1  0  0  0
 23 40  1  0  0  0
 23 41  1  0  0  0
 23 42  1  0  0  0
M  END
> <s_m_entry_id>
28499

> <s_m_entry_name>
dock_pv.660

> <s_m_Source_Path>
/home/csk/Desktop/cluster/DUD-E-result/rock1

> <s_m_Source_File>
dock_pv.maegz

> <i_m_Source_File_Index>
660

> <chembl_id>
CHEMBL4086790

> <chembl_pref_name>
None

> <i_lp_mmshare_version>
53161

> <r_lp_tautomer_probability>
0.5

> <s_lp_Force_Field>
OPLS_2005

> <r_lp_Energy>
40.377647

> <b_lp_Chiralities_Consistent>
1

> <s_lp_Variant>
CHEMBL3231_lig881-2

> <s_i_glide_gridfile>
glide-grid_2etr

> <i_i_glide_lignum>
1251

> <i_i_glide_rotatable_bonds>
3

> <r_i_docking_score>
-7.13330516451898

> <r_i_glide_ligand_efficiency>
-0.310143702805173

> <r_i_glide_ligand_efficiency_sa>
-0.882007434494686

> <r_i_glide_ligand_efficiency_ln>
-1.72489787001583

> <r_i_glide_gscore>
-7.13330516451898

> <r_i_glide_lipo>
-2.00447641544452

> <r_i_glide_hbond>
-0.465089277211913

> <r_i_glide_metal>
0

> <r_i_glide_rewards>
-2.40803890909091

> <r_i_glide_evdw>
-36.7324676513672

> <r_i_glide_ecoul>
-5.98673582077026

> <r_i_glide_erotb>
0.519580534212525

> <r_i_glide_esite>
-0.0406473413002658

> <r_i_glide_emodel>
-60.8544658525754

> <r_i_glide_energy>
-42.7192034721375

> <r_i_glide_einternal>
1.280357837677

> <i_i_glide_confnum>
2

> <i_i_glide_posenum>
388

> <r_i_glide_eff_state_penalty>
0

> <s_user_duplicate_titles>
CHEMBL3231_lig881

> <i_f3d_flags>
0

> <s_m_subgroup_title>
dock_pv

> <s_m_subgroupid>
dock_pv

> <b_m_subgroup_collapsed>
1

$$$$
CHEMBL3231_lig362
                    3D
 Schrodinger Suite 2021-1.
 44 47  0  0  1  0            999 V2000
   51.2577  101.0605   28.8370 C   0  0  0  0  0  0
   51.2396   99.8062   28.2231 C   0  0  0  0  0  0
   51.6452   98.6646   28.9230 C   0  0  0  0  0  0
   51.6440  101.2180   30.1662 C   0  0  0  0  0  0
   52.0349  100.0888   30.9071 C   0  0  0  0  0  0
   52.0475   98.8226   30.2522 C   0  0  0  0  0  0
   52.4915   97.9039   31.1789 N   0  0  0  0  0  0
   52.7357   98.5289   32.3730 C   0  0  0  0  0  0
   52.4345   99.8833   32.2756 C   0  0  0  0  0  0
   52.3845  100.8017   33.3733 C   0  0  0  0  0  0
   53.3611  100.6491   34.2870 N   0  0  0  0  0  0
   51.5005  101.6601   33.4240 O   0  0  0  0  0  0
   53.5277  101.4069   35.5338 C   0  0  0  0  0  0
   53.2976  102.9130   35.4355 C   0  0  0  0  0  0
   54.2880  103.7506   34.9168 C   0  0  0  0  0  0
   54.0527  105.1190   34.8030 C   0  0  0  0  0  0
   52.8324  105.6531   35.2134 C   0  0  0  0  0  0
   51.8302  104.8347   35.7382 C   0  0  0  0  0  0
   52.0856  103.4602   35.8682 C   0  0  0  0  0  0
   50.7334   99.6675   26.8238 C   0  0  0  0  0  0
   50.3269  100.6657   25.9451 C   0  0  0  0  0  0
   49.9135  100.0256   24.8108 N   0  0  0  0  0  0
   50.0430   98.7032   24.8814 N   0  0  0  0  0  0
   50.5291   98.4902   26.0792 C   0  0  0  0  0  0
   50.6421  105.4471   36.0916 O   0  0  0  0  0  0
   49.4644  104.6628   36.2838 C   0  0  0  0  0  0
   48.4436  105.5048   36.4125 F   0  0  0  0  0  0
   49.2042  103.8859   35.2315 F   0  0  0  0  0  0
   49.5319  103.9396   37.4012 F   0  0  0  0  0  0
   50.9464  101.9350   28.2855 H   0  0  0  0  0  0
   51.6390   97.6904   28.4601 H   0  0  0  0  0  0
   51.6320  102.1938   30.6285 H   0  0  0  0  0  0
   52.6091   96.9074   31.0588 H   0  0  0  0  0  0
   53.0531   97.9373   33.2217 H   0  0  0  0  0  0
   54.0209   99.8994   34.1300 H   0  0  0  0  0  0
   54.5436  101.2358   35.8920 H   0  0  0  0  0  0
   52.8833  100.9763   36.3006 H   0  0  0  0  0  0
   55.2265  103.3386   34.5704 H   0  0  0  0  0  0
   54.8019  105.7652   34.3709 H   0  0  0  0  0  0
   52.6519  106.7108   35.0868 H   0  0  0  0  0  0
   51.3313  102.7927   36.2578 H   0  0  0  0  0  0
   50.2754  101.7408   26.0263 H   0  0  0  0  0  0
   49.5407  100.4763   23.9823 H   0  0  0  0  0  0
   50.7263   97.4843   26.4178 H   0  0  0  0  0  0
  1  2  2  0  0  0
  1  4  1  0  0  0
  1 30  1  0  0  0
  2 20  1  0  0  0
  2  3  1  0  0  0
  3  6  2  0  0  0
  3 31  1  0  0  0
  4  5  2  0  0  0
  4 32  1  0  0  0
  5  9  1  0  0  0
  5  6  1  0  0  0
  6  7  1  0  0  0
  7  8  1  0  0  0
  7 33  1  0  0  0
  8  9  2  0  0  0
  8 34  1  0  0  0
  9 10  1  0  0  0
 10 11  1  0  0  0
 10 12  2  0  0  0
 11 13  1  0  0  0
 11 35  1  0  0  0
 13 14  1  0  0  0
 13 36  1  0  0  0
 13 37  1  0  0  0
 14 15  2  0  0  0
 14 19  1  0  0  0
 15 16  1  0  0  0
 15 38  1  0  0  0
 16 17  2  0  0  0
 16 39  1  0  0  0
 17 18  1  0  0  0
 17 40  1  0  0  0
 18 19  2  0  0  0
 18 25  1  0  0  0
 19 41  1  0  0  0
 20 21  2  0  0  0
 20 24  1  0  0  0
 21 22  1  0  0  0
 21 42  1  0  0  0
 22 23  1  0  0  0
 22 43  1  0  0  0
 23 24  2  0  0  0
 24 44  1  0  0  0
 25 26  1  0  0  0
 26 27  1  0  0  0
 26 28  1  0  0  0
 26 29  1  0  0  0
M  END
> <s_m_entry_id>
28503

> <s_m_entry_name>
dock_pv.664

> <s_m_Source_Path>
/home/csk/Desktop/cluster/DUD-E-result/rock1

> <s_m_Source_File>
dock_pv.maegz

> <i_m_Source_File_Index>
664

> <chembl_id>
CHEMBL1923171

> <chembl_pref_name>
None

> <i_lp_mmshare_version>
53161

> <r_lp_tautomer_probability>
0.5

> <s_lp_Force_Field>
OPLS_2005

> <r_lp_Energy>
15.286929

> <b_lp_Chiralities_Consistent>
1

> <s_lp_Variant>
CHEMBL3231_lig362-1

> <s_i_glide_gridfile>
glide-grid_2etr

> <i_i_glide_lignum>
512

> <i_i_glide_rotatable_bonds>
7

> <r_i_docking_score>
-7.12620760591302

> <r_i_glide_ligand_efficiency>
-0.245731296755621

> <r_i_glide_ligand_efficiency_sa>
-0.754964396772501

> <r_i_glide_ligand_efficiency_ln>
-1.63172083672085

> <r_i_glide_gscore>
-7.12620760591302

> <r_i_glide_lipo>
-2.09859932947602

> <r_i_glide_hbond>
-0.3542127459398

> <r_i_glide_metal>
0

> <r_i_glide_rewards>
-2.27546255369993

> <r_i_glide_evdw>
-40.8508110046387

> <r_i_glide_ecoul>
-5.75559568405151

> <r_i_glide_erotb>
0.51368159387641

> <r_i_glide_esite>
-0.00573466783401593

> <r_i_glide_emodel>
-63.300494386603

> <r_i_glide_energy>
-46.6064066886902

> <r_i_glide_einternal>
6.91604614257812

> <i_i_glide_confnum>
7

> <i_i_glide_posenum>
79

> <r_i_glide_eff_state_penalty>
0

> <s_user_duplicate_titles>
CHEMBL3231_lig362

> <i_f3d_flags>
0

> <s_m_subgroup_title>
dock_pv

> <s_m_subgroupid>
dock_pv

> <b_m_subgroup_collapsed>
1

$$$$
CHEMBL3231_lig753
                    3D
 Schrodinger Suite 2021-1.
 47 49  0  0  1  0            999 V2000
   49.4275  104.8101   28.6723 C   0  0  0  0  0  0
   50.4430  104.3291   27.6454 C   0  0  0  0  0  0
   50.4430  102.9055   27.4683 O   0  0  0  0  0  0
   51.0127  102.0401   28.3907 C   0  0  0  0  0  0
   51.5291  102.4849   29.6151 C   0  0  0  0  0  0
   52.0379  101.5945   30.5588 C   0  0  0  0  0  0
   52.1099  100.2355   30.2467 C   0  0  0  0  0  0
   51.6427   99.7796   29.0204 C   0  0  0  0  0  0
   51.0756  100.6607   28.0875 C   0  0  0  0  0  0
   50.5664  100.0657   26.8039 C   0  0  0  0  0  0
   50.5683   98.7136   26.3960 C   0  0  0  0  0  0
   50.0430   98.5119   25.2111 N   0  0  0  0  0  0
   49.6787   99.7291   24.8105 N   0  0  0  0  0  0
   49.9773  100.7011   25.7196 C   0  0  0  0  0  0
   52.4595  102.1106   31.8999 C   0  0  0  0  0  0
   51.7621  102.9298   32.5039 O   0  0  0  0  0  0
   53.6344  101.6359   32.3363 N   0  0  0  0  0  0
   54.3493  102.0771   33.5384 C   0  0  2  0  0  0
   55.2245  103.3269   33.2600 C   0  0  0  0  0  0
   54.4454  104.4222   32.8110 O   0  0  0  0  0  0
   55.1613  100.9451   34.1780 C   0  0  0  0  0  0
   55.6974   99.9026   33.4076 C   0  0  0  0  0  0
   56.4177   98.8798   34.0162 C   0  0  0  0  0  0
   56.5929   98.8861   35.3972 C   0  0  0  0  0  0
   56.0547   99.9081   36.1751 C   0  0  0  0  0  0
   55.3386  100.9352   35.5659 C   0  0  0  0  0  0
   49.4868  105.8899   28.8092 H   0  0  0  0  0  0
   48.4051  104.5586   28.4107 H   0  0  0  0  0  0
   49.6430  104.3243   29.6110 H   0  0  0  0  0  0
   51.4237  104.7028   27.9449 H   0  0  0  0  0  0
   50.2276  104.7888   26.6808 H   0  0  0  0  0  0
   51.5473  103.5331   29.8628 H   0  0  0  0  0  0
   52.5085   99.5224   30.9562 H   0  0  0  0  0  0
   51.7134   98.7213   28.8213 H   0  0  0  0  0  0
   50.9513   97.8772   26.9599 H   0  0  0  0  0  0
   49.2428   99.8939   23.9060 H   0  0  0  0  0  0
   49.7315  101.7329   25.5218 H   0  0  0  0  0  0
   54.1692  101.0735   31.6921 H   0  0  0  0  0  0
   53.5997  102.3588   34.2840 H   0  0  0  0  0  0
   55.7799  103.6269   34.1502 H   0  0  0  0  0  0
   55.9702  103.1028   32.4955 H   0  0  0  0  0  0
   54.9767  104.9637   32.2048 H   0  0  0  0  0  0
   55.5918   99.8851   32.3335 H   0  0  0  0  0  0
   56.8442   98.0896   33.4141 H   0  0  0  0  0  0
   57.1596   98.0954   35.8663 H   0  0  0  0  0  0
   56.1983   99.9078   37.2445 H   0  0  0  0  0  0
   54.9267  101.7254   36.1768 H   0  0  0  0  0  0
  1  2  1  0  0  0
  1 27  1  0  0  0
  1 28  1  0  0  0
  1 29  1  0  0  0
  2  3  1  0  0  0
  2 30  1  0  0  0
  2 31  1  0  0  0
  3  4  1  0  0  0
  4  5  2  0  0  0
  4  9  1  0  0  0
  5  6  1  0  0  0
  5 32  1  0  0  0
  6  7  2  0  0  0
  6 15  1  0  0  0
  7  8  1  0  0  0
  7 33  1  0  0  0
  8  9  2  0  0  0
  8 34  1  0  0  0
  9 10  1  0  0  0
 10 11  1  0  0  0
 10 14  2  0  0  0
 11 12  2  0  0  0
 11 35  1  0  0  0
 12 13  1  0  0  0
 13 14  1  0  0  0
 13 36  1  0  0  0
 14 37  1  0  0  0
 15 16  2  0  0  0
 15 17  1  0  0  0
 17 18  1  0  0  0
 17 38  1  0  0  0
 18 19  1  0  0  0
 18 21  1  0  0  0
 18 39  1  0  0  0
 19 20  1  0  0  0
 19 40  1  0  0  0
 19 41  1  0  0  0
 20 42  1  0  0  0
 21 22  2  0  0  0
 21 26  1  0  0  0
 22 23  1  0  0  0
 22 43  1  0  0  0
 23 24  2  0  0  0
 23 44  1  0  0  0
 24 25  1  0  0  0
 24 45  1  0  0  0
 25 26  2  0  0  0
 25 46  1  0  0  0
 26 47  1  0  0  0
M  END
> <s_m_entry_id>
28504

> <s_m_entry_name>
dock_pv.665

> <s_m_Source_Path>
/home/csk/Desktop/cluster/DUD-E-result/rock1

> <s_m_Source_File>
dock_pv.maegz

> <i_m_Source_File_Index>
665

> <chembl_id>
CHEMBL4108225

> <chembl_pref_name>
None

> <i_lp_mmshare_version>
53161

> <r_lp_tautomer_probability>
0.5

> <s_lp_Force_Field>
OPLS_2005

> <r_lp_Energy>
24.001111

> <b_lp_Chiralities_Consistent>
1

> <s_lp_Variant>
CHEMBL3231_lig753-1

> <s_i_glide_gridfile>
glide-grid_2etr

> <i_i_glide_lignum>
1071

> <i_i_glide_rotatable_bonds>
9

> <r_i_docking_score>
-7.1258941869226

> <r_i_glide_ligand_efficiency>
-0.274072853343177

> <r_i_glide_ligand_efficiency_sa>
-0.811939749604559

> <r_i_glide_ligand_efficiency_ln>
-1.67349286783283

> <r_i_glide_gscore>
-7.1258941869226

> <r_i_glide_lipo>
-1.9119005389333

> <r_i_glide_hbond>
-0.420416592791141

> <r_i_glide_metal>
0

> <r_i_glide_rewards>
-1.9562017597538

> <r_i_glide_evdw>
-38.0379524230957

> <r_i_glide_ecoul>
-10.280517578125

> <r_i_glide_erotb>
0.648715347840463

> <r_i_glide_esite>
-0.0421153854112895

> <r_i_glide_emodel>
-67.5841390318504

> <r_i_glide_energy>
-48.3184700012207

> <r_i_glide_einternal>
5.30743551254272

> <i_i_glide_confnum>
9

> <i_i_glide_posenum>
395

> <r_i_glide_eff_state_penalty>
0

> <s_user_duplicate_titles>
CHEMBL3231_lig753

> <i_f3d_flags>
0

> <s_m_subgroup_title>
dock_pv

> <s_m_subgroupid>
dock_pv

> <b_m_subgroup_collapsed>
1

$$$$
CHEMBL3231_lig159
                    3D
 Schrodinger Suite 2021-1.
 50 55  0  0  1  0            999 V2000
   55.1967   95.1391   35.7613 C   0  0  0  0  0  0
   54.4181   95.3880   36.8450 N   0  0  0  0  0  0
   53.5829   96.4502   36.7846 C   0  0  0  0  0  0
   53.4049   97.2980   35.7447 N   0  0  0  0  0  0
   55.1071   95.9750   34.6444 C   0  0  0  0  0  0
   54.1734   97.0558   34.6695 C   0  0  0  0  0  0
   54.2656   97.7414   33.4090 C   0  0  0  0  0  0
   55.2395   97.0619   32.6970 C   0  0  0  0  0  0
   55.7746   96.0295   33.4332 N   0  0  0  0  0  0
   52.8431   96.7021   37.9261 N   0  0  0  0  0  0
   56.8733   95.1701   32.9995 C   0  0  0  0  0  0
   56.4325   94.0992   31.9790 C   0  0  0  0  0  0
   56.1121   94.7029   30.6931 N   0  0  0  0  0  0
   50.0452   98.8482   25.5365 C   0  0  0  0  0  0
   50.1773  100.1973   25.2279 C   0  0  0  0  0  0
   50.7088  101.0954   26.1514 C   0  0  0  0  0  0
   50.4445   98.3503   26.7752 C   0  0  0  0  0  0
   50.9713   99.2271   27.7385 C   0  0  0  0  0  0
   51.0959  100.6046   27.4074 C   0  0  0  0  0  0
   51.7668  101.5185   28.7460 S   0  0  0  0  0  0
   51.8486  100.0789   29.7513 C   0  0  0  0  0  0
   51.4124   98.9583   29.0603 C   0  0  0  0  0  0
   52.3667  100.1489   31.1622 C   0  0  0  0  0  0
   53.0356   99.0230   31.6559 C   0  0  0  0  0  0
   53.5374   98.9547   32.9549 C   0  0  0  0  0  0
   53.3709  100.0210   33.8350 C   0  0  0  0  0  0
   52.2300  101.2576   32.0392 C   0  0  0  0  0  0
   52.7462  101.1857   33.3779 C   0  0  0  0  0  0
   52.4754  102.4574   33.9367 C   0  0  0  0  0  0
   51.8578  103.1582   32.9402 N   0  0  0  0  0  0
   51.6444  102.4780   31.8022 N   0  0  0  0  0  0
   55.8826   94.3026   35.8122 H   0  0  0  0  0  0
   55.6434   97.2639   31.7129 H   0  0  0  0  0  0
   53.0644   96.1505   38.7405 H   0  0  0  0  0  0
   52.3326   97.5733   38.0103 H   0  0  0  0  0  0
   57.6633   95.8016   32.5881 H   0  0  0  0  0  0
   57.3054   94.7019   33.8839 H   0  0  0  0  0  0
   57.2433   93.3793   31.8376 H   0  0  0  0  0  0
   55.5790   93.5325   32.3549 H   0  0  0  0  0  0
   56.9257   95.2510   30.4114 H   0  0  0  0  0  0
   56.0134   93.9845   29.9840 H   0  0  0  0  0  0
   49.6226   98.1778   24.8056 H   0  0  0  0  0  0
   49.8592  100.5507   24.2569 H   0  0  0  0  0  0
   50.8067  102.1435   25.9075 H   0  0  0  0  0  0
   50.3418   97.2990   26.9966 H   0  0  0  0  0  0
   51.3818   97.9706   29.4914 H   0  0  0  0  0  0
   53.1824   98.1666   31.0121 H   0  0  0  0  0  0
   53.7674   99.9672   34.8389 H   0  0  0  0  0  0
   52.6827  102.9192   34.8913 H   0  0  0  0  0  0
   51.5906  104.1277   33.0329 H   0  0  0  0  0  0
  1  5  1  0  0  0
  1  2  2  0  0  0
  1 32  1  0  0  0
  2  3  1  0  0  0
  3 10  1  0  0  0
  3  4  2  0  0  0
  4  6  1  0  0  0
  5  9  1  0  0  0
  5  6  2  0  0  0
  6  7  1  0  0  0
  7  8  2  0  0  0
  7 25  1  0  0  0
  8  9  1  0  0  0
  8 33  1  0  0  0
  9 11  1  0  0  0
 10 34  1  0  0  0
 10 35  1  0  0  0
 11 12  1  0  0  0
 11 36  1  0  0  0
 11 37  1  0  0  0
 12 13  1  0  0  0
 12 38  1  0  0  0
 12 39  1  0  0  0
 13 40  1  0  0  0
 13 41  1  0  0  0
 14 15  2  0  0  0
 14 17  1  0  0  0
 14 42  1  0  0  0
 15 16  1  0  0  0
 15 43  1  0  0  0
 16 19  2  0  0  0
 16 44  1  0  0  0
 17 18  2  0  0  0
 17 45  1  0  0  0
 18 22  1  0  0  0
 18 19  1  0  0  0
 19 20  1  0  0  0
 20 21  1  0  0  0
 21 22  2  0  0  0
 21 23  1  0  0  0
 22 46  1  0  0  0
 23 27  1  0  0  0
 23 24  2  0  0  0
 24 47  1  0  0  0
 24 25  1  0  0  0
 25 26  2  0  0  0
 26 48  1  0  0  0
 26 28  1  0  0  0
 27 31  2  0  0  0
 27 28  1  0  0  0
 28 29  2  0  0  0
 29 30  1  0  0  0
 29 49  1  0  0  0
 30 50  1  0  0  0
 30 31  1  0  0  0
M  END
> <s_m_entry_id>
28505

> <s_m_entry_name>
dock_pv.666

> <s_m_Source_Path>
/home/csk/Desktop/cluster/DUD-E-result/rock1

> <s_m_Source_File>
dock_pv.maegz

> <i_m_Source_File_Index>
666

> <chembl_id>
CHEMBL590109

> <chembl_pref_name>
None

> <i_lp_mmshare_version>
53161

> <r_lp_tautomer_probability>
0.0196078431372549

> <s_lp_Force_Field>
OPLS_2005

> <r_lp_Energy>
33.514756

> <b_lp_Chiralities_Consistent>
1

> <s_lp_Variant>
CHEMBL3231_lig159-2

> <s_i_glide_gridfile>
glide-grid_2etr

> <i_i_glide_lignum>
283

> <i_i_glide_rotatable_bonds>
4

> <r_i_docking_score>
-7.12546738225706

> <r_i_glide_ligand_efficiency>
-0.229853786524421

> <r_i_glide_ligand_efficiency_sa>
-0.722058237040206

> <r_i_glide_ligand_efficiency_ln>
-1.60701126404907

> <r_i_glide_gscore>
-7.12546738225706

> <r_i_glide_lipo>
-2.59489858075487

> <r_i_glide_hbond>
-0.443138892436617

> <r_i_glide_metal>
0

> <r_i_glide_rewards>
-1.12286466179021

> <r_i_glide_evdw>
-47.6448135375977

> <r_i_glide_ecoul>
-5.67854166030884

> <r_i_glide_erotb>
0.328697833810446

> <r_i_glide_esite>
-0.0592411551596013

> <r_i_glide_emodel>
-75.8408798389311

> <r_i_glide_energy>
-53.3233551979065

> <r_i_glide_einternal>
2.4328408241272

> <i_i_glide_confnum>
3

> <i_i_glide_posenum>
260

> <r_i_glide_eff_state_penalty>
0

> <s_user_duplicate_titles>
CHEMBL3231_lig159,CHEMBL3231_lig159,590207

> <i_f3d_flags>
0

> <s_m_subgroup_title>
dock_pv

> <s_m_subgroupid>
dock_pv

> <b_m_subgroup_collapsed>
1

$$$$
CHEMBL3231_lig1060
                    3D
 Schrodinger Suite 2021-1.
 60 63  0  0  1  0            999 V2000
   51.6296   99.6564   29.1796 C   0  0  0  0  0  0
   51.2190  100.5189   28.1572 C   0  0  0  0  0  0
   51.3291  101.8980   28.3587 C   0  0  0  0  0  0
   51.8888  102.4055   29.5273 C   0  0  0  0  0  0
   52.3295  101.5429   30.5298 C   0  0  0  0  0  0
   52.1741  100.1486   30.3830 C   0  0  0  0  0  0
   50.6616   99.9885   26.8651 C   0  0  0  0  0  0
   50.5763   98.6543   26.4175 C   0  0  0  0  0  0
   50.0430   98.5240   25.2221 N   0  0  0  0  0  0
   49.7662   99.7727   24.8482 N   0  0  0  0  0  0
   50.1094  100.6976   25.7992 C   0  0  0  0  0  0
   52.8783  102.1507   31.6760 N   0  0  0  0  0  0
   54.0312  101.8147   32.2976 C   0  0  0  0  0  0
   54.4705  102.6225   33.5480 C   0  0  2  0  0  0
   54.7658  100.9023   31.9219 O   0  0  0  0  0  0
   54.6279  101.6585   34.7535 C   0  0  0  0  0  0
   53.3829  101.0289   35.0929 O   0  0  0  0  0  0
   53.4990  103.7524   33.9893 C   0  0  0  0  0  0
   52.2343  103.1544   34.6074 C   0  0  0  0  0  0
   52.2750  101.8624   35.1650 C   0  0  0  0  0  0
   51.1395  101.3002   35.7460 C   0  0  0  0  0  0
   49.9497  102.0209   35.7857 C   0  0  0  0  0  0
   49.8808  103.3138   35.2406 C   0  0  0  0  0  0
   51.0288  103.8601   34.6616 C   0  0  0  0  0  0
   48.7464  104.1001   35.2291 O   0  0  0  0  0  0
   47.5416  103.5772   35.7743 C   0  0  0  0  0  0
   52.4892   99.3533   31.4712 O   0  0  0  0  0  0
   52.7213   97.9524   31.3666 C   0  0  0  0  0  0
   54.2050   97.6773   31.6989 C   0  0  0  0  0  0
   54.4422   96.2943   32.1244 N   0  0  0  0  0  0
   55.8597   95.9529   32.0193 C   0  0  0  0  0  0
   54.0064   96.0706   33.5029 C   0  0  0  0  0  0
   51.4745   98.6034   29.0318 H   0  0  0  0  0  0
   50.9945  102.5883   27.6046 H   0  0  0  0  0  0
   51.9920  103.4752   29.6377 H   0  0  0  0  0  0
   50.9135   97.7862   26.9644 H   0  0  0  0  0  0
   49.3380   99.9830   23.9516 H   0  0  0  0  0  0
   49.9372  101.7488   25.6351 H   0  0  0  0  0  0
   52.4344  102.9957   31.9931 H   0  0  0  0  0  0
   55.4341  103.0469   33.2669 H   0  0  0  0  0  0
   54.9734  102.2235   35.6218 H   0  0  0  0  0  0
   55.3932  100.9015   34.5669 H   0  0  0  0  0  0
   53.2579  104.4314   33.1689 H   0  0  0  0  0  0
   53.9793  104.3566   34.7607 H   0  0  0  0  0  0
   51.1828  100.3010   36.1546 H   0  0  0  0  0  0
   49.0880  101.5585   36.2431 H   0  0  0  0  0  0
   50.9861  104.8611   34.2582 H   0  0  0  0  0  0
   46.7395  104.3031   35.6532 H   0  0  0  0  0  0
   47.6439  103.3812   36.8414 H   0  0  0  0  0  0
   47.2383  102.6594   35.2680 H   0  0  0  0  0  0
   52.0526   97.4830   32.0858 H   0  0  0  0  0  0
   52.4814   97.4990   30.4118 H   0  0  0  0  0  0
   54.7915   97.8927   30.8042 H   0  0  0  0  0  0
   54.5698   98.3711   32.4600 H   0  0  0  0  0  0
   56.0507   94.9393   32.3729 H   0  0  0  0  0  0
   56.1875   95.9894   30.9804 H   0  0  0  0  0  0
   56.4824   96.6369   32.6005 H   0  0  0  0  0  0
   54.1730   95.0339   33.7946 H   0  0  0  0  0  0
   54.5486   96.7108   34.2018 H   0  0  0  0  0  0
   52.9425   96.2654   33.6280 H   0  0  0  0  0  0
  1  6  1  0  0  0
  1  2  2  0  0  0
  1 33  1  0  0  0
  2  3  1  0  0  0
  2  7  1  0  0  0
  3  4  2  0  0  0
  3 34  1  0  0  0
  4  5  1  0  0  0
  4 35  1  0  0  0
  5  6  2  0  0  0
  5 12  1  0  0  0
  6 27  1  0  0  0
  7 11  2  0  0  0
  7  8  1  0  0  0
  8 36  1  0  0  0
  8  9  2  0  0  0
  9 10  1  0  0  0
 10 37  1  0  0  0
 10 11  1  0  0  0
 11 38  1  0  0  0
 12 13  1  0  0  0
 12 39  1  0  0  0
 13 14  1  0  0  0
 13 15  2  0  0  0
 14 16  1  0  0  0
 14 18  1  0  0  0
 14 40  1  0  0  0
 16 17  1  0  0  0
 16 41  1  0  0  0
 16 42  1  0  0  0
 17 20  1  0  0  0
 18 19  1  0  0  0
 18 43  1  0  0  0
 18 44  1  0  0  0
 19 20  2  0  0  0
 19 24  1  0  0  0
 20 21  1  0  0  0
 21 22  2  0  0  0
 21 45  1  0  0  0
 22 23  1  0  0  0
 22 46  1  0  0  0
 23 24  2  0  0  0
 23 25  1  0  0  0
 24 47  1  0  0  0
 25 26  1  0  0  0
 26 48  1  0  0  0
 26 49  1  0  0  0
 26 50  1  0  0  0
 27 28  1  0  0  0
 28 29  1  0  0  0
 28 51  1  0  0  0
 28 52  1  0  0  0
 29 30  1  0  0  0
 29 53  1  0  0  0
 29 54  1  0  0  0
 30 31  1  0  0  0
 30 32  1  0  0  0
 31 55  1  0  0  0
 31 56  1  0  0  0
 31 57  1  0  0  0
 32 58  1  0  0  0
 32 59  1  0  0  0
 32 60  1  0  0  0
M  END
> <s_m_entry_id>
28506

> <s_m_entry_name>
dock_pv.667

> <s_m_Source_Path>
/home/csk/Desktop/cluster/DUD-E-result/rock1

> <s_m_Source_File>
dock_pv.maegz

> <i_m_Source_File_Index>
667

> <chembl_id>
CHEMBL482336

> <chembl_pref_name>
None

> <i_lp_mmshare_version>
53161

> <r_lp_tautomer_probability>
0.5

> <s_lp_Force_Field>
OPLS_2005

> <r_lp_Energy>
36.723448

> <b_lp_Chiralities_Consistent>
1

> <s_lp_Variant>
CHEMBL3231_lig1060-1

> <s_i_glide_gridfile>
glide-grid_2etr

> <i_i_glide_lignum>
1483

> <i_i_glide_rotatable_bonds>
9

> <r_i_docking_score>
-7.12384138184255

> <r_i_glide_ligand_efficiency>
-0.22262004318258

> <r_i_glide_ligand_efficiency_sa>
-0.706774580657968

> <r_i_glide_ligand_efficiency_ln>
-1.59522227397647

> <r_i_glide_gscore>
-7.12384138184255

> <r_i_glide_lipo>
-2.82202019009477

> <r_i_glide_hbond>
-0.439900775676765

> <r_i_glide_metal>
0

> <r_i_glide_rewards>
-1.42251265134514

> <r_i_glide_evdw>
-49.4769172668457

> <r_i_glide_ecoul>
-2.86982393264771

> <r_i_glide_erotb>
0.512627426994214

> <r_i_glide_esite>
-0.0477157384806529

> <r_i_glide_emodel>
-69.1736649804376

> <r_i_glide_energy>
-52.3467411994934

> <r_i_glide_einternal>
10.9393100738525

> <i_i_glide_confnum>
32

> <i_i_glide_posenum>
128

> <r_i_glide_eff_state_penalty>
0

> <s_user_duplicate_titles>
CHEMBL3231_lig1060

> <i_f3d_flags>
0

> <s_m_subgroup_title>
dock_pv

> <s_m_subgroupid>
dock_pv

> <b_m_subgroup_collapsed>
1

$$$$
CHEMBL3231_lig969 
                    3D
 Schrodinger Suite 2021-1.
 56 59  0  0  1  0            999 V2000
   49.7572  100.0039   25.3496 C   0  0  0  0  0  0
   50.0424   98.7028   25.1001 N   0  0  0  0  0  0
   50.7789   98.0284   26.0167 C   0  0  0  0  0  0
   51.2426   98.6128   27.1957 C   0  0  0  0  0  0
   50.9328   99.9547   27.4708 C   0  0  0  0  0  0
   50.1782  100.6482   26.5109 C   0  0  0  0  0  0
   51.3388  100.6154   28.7521 C   0  0  0  0  0  0
   51.5156   99.8716   29.9250 C   0  0  0  0  0  0
   51.7472  100.5036   31.1435 C   0  0  0  0  0  0
   51.8202  101.9043   31.2178 C   0  0  0  0  0  0
   51.7368  102.6430   30.0342 C   0  0  0  0  0  0
   51.4956  102.0057   28.8228 C   0  0  0  0  0  0
   51.9039  102.6296   32.5437 C   0  0  0  0  0  0
   52.2136  101.8838   33.6170 N   0  0  0  0  0  0
   51.6430  103.8315   32.6207 O   0  0  0  0  0  0
   52.2296  102.3087   35.0191 C   0  0  1  0  0  0
   50.8707  102.8058   35.5427 C   0  0  0  0  0  0
   49.6799  102.1633   35.1750 C   0  0  0  0  0  0
   48.4460  102.6460   35.6096 C   0  0  0  0  0  0
   48.3892  103.7743   36.4249 C   0  0  0  0  0  0
   49.5648  104.4156   36.8089 C   0  0  0  0  0  0
   50.7997  103.9371   36.3662 C   0  0  0  0  0  0
   52.8047  101.1934   35.9338 C   0  0  0  0  0  0
   54.0876  100.4785   35.4263 C   0  0  0  0  0  0
   53.8553   99.6309   34.2511 N   0  0  0  0  0  0
   49.0234  100.7031   24.4547 F   0  0  0  0  0  0
   49.5025  105.5027   37.6100 F   0  0  0  0  0  0
   55.0827   99.1254   33.6518 C   0  0  0  0  0  0
   54.6279   98.0163   32.7022 C   0  0  0  0  0  0
   53.3153   97.5117   33.3127 C   0  0  0  0  0  0
   53.0964   98.4192   34.5272 C   0  0  0  0  0  0
   50.9995   96.9965   25.7857 H   0  0  0  0  0  0
   51.8251   98.0175   27.8828 H   0  0  0  0  0  0
   49.8871  101.6767   26.6590 H   0  0  0  0  0  0
   51.4059   98.7972   29.9211 H   0  0  0  0  0  0
   51.8155   99.8908   32.0293 H   0  0  0  0  0  0
   51.8210  103.7209   30.0468 H   0  0  0  0  0  0
   51.3897  102.6184   27.9446 H   0  0  0  0  0  0
   52.7005  101.0059   33.4583 H   0  0  0  0  0  0
   52.9303  103.1456   35.0657 H   0  0  0  0  0  0
   49.7119  101.2893   34.5423 H   0  0  0  0  0  0
   47.5355  102.1446   35.3152 H   0  0  0  0  0  0
   47.4344  104.1470   36.7646 H   0  0  0  0  0  0
   51.6998  104.4564   36.6605 H   0  0  0  0  0  0
   52.0322  100.4516   36.1415 H   0  0  0  0  0  0
   53.0407  101.6394   36.9008 H   0  0  0  0  0  0
   54.5589   99.9109   36.2318 H   0  0  0  0  0  0
   54.8058  101.2481   35.1336 H   0  0  0  0  0  0
   55.8040   98.7831   34.3963 H   0  0  0  0  0  0
   55.5796   99.9405   33.1246 H   0  0  0  0  0  0
   55.3798   97.2290   32.6331 H   0  0  0  0  0  0
   54.4837   98.4064   31.6939 H   0  0  0  0  0  0
   52.4891   97.5869   32.6027 H   0  0  0  0  0  0
   53.3888   96.4663   33.6142 H   0  0  0  0  0  0
   52.0484   98.6883   34.6603 H   0  0  0  0  0  0
   53.3989   97.9432   35.4634 H   0  0  0  0  0  0
  1  2  2  0  0  0
  1  6  1  0  0  0
  1 26  1  0  0  0
  2  3  1  0  0  0
  3  4  2  0  0  0
  3 32  1  0  0  0
  4  5  1  0  0  0
  4 33  1  0  0  0
  5  6  2  0  0  0
  5  7  1  0  0  0
  6 34  1  0  0  0
  7  8  2  0  0  0
  7 12  1  0  0  0
  8  9  1  0  0  0
  8 35  1  0  0  0
  9 10  2  0  0  0
  9 36  1  0  0  0
 10 11  1  0  0  0
 10 13  1  0  0  0
 11 12  2  0  0  0
 11 37  1  0  0  0
 12 38  1  0  0  0
 13 14  1  0  0  0
 13 15  2  0  0  0
 14 16  1  0  0  0
 14 39  1  0  0  0
 16 17  1  0  0  0
 16 23  1  0  0  0
 16 40  1  0  0  0
 17 18  2  0  0  0
 17 22  1  0  0  0
 18 19  1  0  0  0
 18 41  1  0  0  0
 19 20  2  0  0  0
 19 42  1  0  0  0
 20 21  1  0  0  0
 20 43  1  0  0  0
 21 22  2  0  0  0
 21 27  1  0  0  0
 22 44  1  0  0  0
 23 24  1  0  0  0
 23 45  1  0  0  0
 23 46  1  0  0  0
 24 25  1  0  0  0
 24 47  1  0  0  0
 24 48  1  0  0  0
 25 28  1  0  0  0
 25 31  1  0  0  0
 28 29  1  0  0  0
 28 49  1  0  0  0
 28 50  1  0  0  0
 29 30  1  0  0  0
 29 51  1  0  0  0
 29 52  1  0  0  0
 30 31  1  0  0  0
 30 53  1  0  0  0
 30 54  1  0  0  0
 31 55  1  0  0  0
 31 56  1  0  0  0
M  END
> <s_m_entry_id>
28507

> <s_m_entry_name>
dock_pv.668

> <s_m_Source_Path>
/home/csk/Desktop/cluster/DUD-E-result/rock1

> <s_m_Source_File>
dock_pv.maegz

> <i_m_Source_File_Index>
668

> <chembl_id>
CHEMBL4521871

> <chembl_pref_name>
None

> <i_lp_mmshare_version>
53161

> <r_lp_tautomer_probability>
1

> <s_lp_Force_Field>
OPLS_2005

> <r_lp_Energy>
33.915874

> <b_lp_Chiralities_Consistent>
1

> <s_lp_Variant>
CHEMBL3231_lig969 -1

> <s_i_glide_gridfile>
glide-grid_2etr

> <i_i_glide_lignum>
1383

> <i_i_glide_rotatable_bonds>
8

> <r_i_docking_score>
-7.12239430526178

> <r_i_glide_ligand_efficiency>
-0.229754655008445

> <r_i_glide_ligand_efficiency_sa>
-0.721746827214231

> <r_i_glide_ligand_efficiency_ln>
-1.60631819100813

> <r_i_glide_gscore>
-7.12239430526178

> <r_i_glide_lipo>
-3.32784015958783

> <r_i_glide_hbond>
-0.129919293059012

> <r_i_glide_metal>
0

> <r_i_glide_rewards>
-1.62694802082587

> <r_i_glide_evdw>
-44.4651565551758

> <r_i_glide_ecoul>
-2.87303376197815

> <r_i_glide_erotb>
0.668803304044027

> <r_i_glide_esite>
-0.0522772437775823

> <r_i_glide_emodel>
-68.0497458166596

> <r_i_glide_energy>
-47.3381903171539

> <r_i_glide_einternal>
0.897687375545502

> <i_i_glide_confnum>
1

> <i_i_glide_posenum>
63

> <r_i_glide_eff_state_penalty>
0

> <s_user_duplicate_titles>
CHEMBL3231_lig969 

> <i_f3d_flags>
0

> <s_m_subgroup_title>
dock_pv

> <s_m_subgroupid>
dock_pv

> <b_m_subgroup_collapsed>
1

$$$$
CHEMBL3231_lig496
                    3D
 Schrodinger Suite 2021-1.
 46 49  0  0  1  0            999 V2000
   48.7447  103.1527   35.9820 C   0  0  0  0  0  0
   54.3513  105.4440   35.4235 C   0  0  0  0  0  0
   53.7582  102.4239   30.6254 C   0  0  0  0  0  0
   52.9179  103.2965   32.9016 C   0  0  2  0  0  0
   52.6721  104.9205   37.1836 C   0  0  0  0  0  0
   52.7168  100.8732   32.1442 C   0  0  0  0  0  0
   50.6186  104.0403   36.8421 C   0  0  0  0  0  0
   49.5952  103.3674   34.9196 C   0  0  0  0  0  0
   55.3514  105.1090   36.0534 O   0  0  0  0  0  0
   52.8449  101.2681   30.7294 N   0  0  0  0  0  0
   49.3609  103.5599   37.1378 N   0  0  0  0  0  0
   53.2517  103.6409   31.4320 C   0  0  0  0  0  0
   52.0257  104.4340   34.8978 C   0  0  0  0  0  0
   50.8014  103.9606   35.4333 C   0  0  0  0  0  0
   52.9844  104.9353   35.8144 C   0  0  0  0  0  0
   52.0542  102.0144   32.9500 C   0  0  2  0  0  0
   54.4427  106.3032   34.4105 N   0  0  0  0  0  0
   52.2172  104.4362   33.5009 N   0  0  0  0  0  0
   51.5041  104.4990   37.7244 N   0  0  0  0  0  0
   52.2495  100.6107   29.6537 C   0  0  0  0  0  0
   52.0854  101.3265   28.5050 N   0  0  0  0  0  0
   51.5014  100.7303   27.4344 C   0  0  0  0  0  0
   51.0812   99.3992   27.4452 C   0  0  0  0  0  0
   51.2430   98.6668   28.6239 C   0  0  0  0  0  0
   51.8189   99.2755   29.7406 C   0  0  0  0  0  0
   50.5000   98.7881   26.2575 C   0  0  0  0  0  0
   50.0430   98.3035   25.3138 N   0  0  0  0  0  0
   50.8524  102.2585   32.4114 F   0  0  0  0  0  0
   47.7519  102.7246   36.0108 H   0  0  0  0  0  0
   54.7423  102.1197   30.9871 H   0  0  0  0  0  0
   53.9036  102.7162   29.5849 H   0  0  0  0  0  0
   53.8350  103.1149   33.4681 H   0  0  0  0  0  0
   53.3940  105.2755   37.9097 H   0  0  0  0  0  0
   52.1054   99.9811   32.2637 H   0  0  0  0  0  0
   53.6991  100.6229   32.5537 H   0  0  0  0  0  0
   49.3598  103.1030   33.9015 H   0  0  0  0  0  0
   48.9283  103.4825   38.0456 H   0  0  0  0  0  0
   54.0373  104.4005   31.4114 H   0  0  0  0  0  0
   52.4043  104.0875   30.9112 H   0  0  0  0  0  0
   51.9002  101.6886   33.9782 H   0  0  0  0  0  0
   55.3481  106.6535   34.1424 H   0  0  0  0  0  0
   53.6332  106.6565   33.9088 H   0  0  0  0  0  0
   52.7182  105.2756   33.2353 H   0  0  0  0  0  0
   51.3966  101.3449   26.5521 H   0  0  0  0  0  0
   50.9329   97.6325   28.6852 H   0  0  0  0  0  0
   51.9577   98.6928   30.6373 H   0  0  0  0  0  0
  1 11  1  0  0  0
  1  8  2  0  0  0
  1 29  1  0  0  0
  2 15  1  0  0  0
  2 17  1  0  0  0
  2  9  2  0  0  0
  3 12  1  0  0  0
  3 10  1  0  0  0
  3 30  1  0  0  0
  3 31  1  0  0  0
  4 16  1  0  0  0
  4 18  1  0  0  0
  4 12  1  0  0  0
  4 32  1  0  0  0
  5 19  2  0  0  0
  5 15  1  0  0  0
  5 33  1  0  0  0
  6 16  1  0  0  0
  6 10  1  0  0  0
  6 34  1  0  0  0
  6 35  1  0  0  0
  7 19  1  0  0  0
  7 14  2  0  0  0
  7 11  1  0  0  0
  8 14  1  0  0  0
  8 36  1  0  0  0
 10 20  1  0  0  0
 11 37  1  0  0  0
 12 38  1  0  0  0
 12 39  1  0  0  0
 13 18  1  0  0  0
 13 15  2  0  0  0
 13 14  1  0  0  0
 16 28  1  0  0  0
 16 40  1  0  0  0
 17 41  1  0  0  0
 17 42  1  0  0  0
 18 43  1  0  0  0
 20 21  2  0  0  0
 20 25  1  0  0  0
 21 22  1  0  0  0
 22 23  2  0  0  0
 22 44  1  0  0  0
 23 24  1  0  0  0
 23 26  1  0  0  0
 24 25  2  0  0  0
 24 45  1  0  0  0
 25 46  1  0  0  0
 26 27  3  0  0  0
M  END
> <s_m_entry_id>
28508

> <s_m_entry_name>
dock_pv.669

> <s_m_Source_Path>
/home/csk/Desktop/cluster/DUD-E-result/rock1

> <s_m_Source_File>
dock_pv.maegz

> <i_m_Source_File_Index>
669

> <chembl_id>
CHEMBL3593777

> <chembl_pref_name>
None

> <i_lp_mmshare_version>
53161

> <r_lp_tautomer_probability>
1

> <s_lp_Force_Field>
OPLS_2005

> <r_lp_Energy>
31.773469

> <b_lp_Chiralities_Consistent>
1

> <s_lp_Variant>
CHEMBL3231_lig496-1

> <s_i_glide_gridfile>
glide-grid_2etr

> <i_i_glide_lignum>
696

> <i_i_glide_rotatable_bonds>
4

> <r_i_docking_score>
-7.12174708632024

> <r_i_glide_ligand_efficiency>
-0.254348110225723

> <r_i_glide_ligand_efficiency_sa>
-0.772350665670969

> <r_i_glide_ligand_efficiency_ln>
-1.64390833110328

> <r_i_glide_gscore>
-7.12174708632024

> <r_i_glide_lipo>
-1.41517969536711

> <r_i_glide_hbond>
-0.485630825095385

> <r_i_glide_metal>
0

> <r_i_glide_rewards>
-1.86958416745747

> <r_i_glide_evdw>
-40.9664192199707

> <r_i_glide_ecoul>
-9.78787708282471

> <r_i_glide_erotb>
0.404120234506812

> <r_i_glide_esite>
-0.238970109484838

> <r_i_glide_emodel>
-73.30358289205

> <r_i_glide_energy>
-50.7542963027954

> <r_i_glide_einternal>
3.60807728767395

> <i_i_glide_confnum>
29

> <i_i_glide_posenum>
67

> <r_i_glide_eff_state_penalty>
0

> <s_user_duplicate_titles>
CHEMBL3231_lig496

> <i_f3d_flags>
0

> <s_m_subgroup_title>
dock_pv

> <s_m_subgroupid>
dock_pv

> <b_m_subgroup_collapsed>
1

$$$$
CHEMBL3231_lig1053 
                    3D
 Schrodinger Suite 2021-1.
 58 61  0  0  1  0            999 V2000
   52.1623  102.1272   36.5254 C   0  0  0  0  0  0
   52.5907  100.8305   36.7976 C   0  0  0  0  0  0
   53.7187  100.3207   36.1585 C   0  0  0  0  0  0
   54.4318  101.1155   35.2579 C   0  0  0  0  0  0
   52.8769  102.9239   35.6348 C   0  0  0  0  0  0
   54.0321  102.4311   34.9912 C   0  0  0  0  0  0
   54.8042  103.3485   34.0463 C   0  0  0  0  0  0
   53.8407  104.3942   33.4198 C   0  0  2  0  0  0
   53.1064  105.0780   34.6055 C   0  0  0  0  0  0
   52.3107  104.1600   35.3681 O   0  0  0  0  0  0
   52.8620  103.7384   32.4095 C   0  0  0  0  0  0
   51.6429  103.9041   32.4944 O   0  0  0  0  0  0
   53.4334  102.9888   31.4504 N   0  0  0  0  0  0
   52.7696  102.2180   30.4884 C   0  0  0  0  0  0
   53.2262  100.9123   30.2748 C   0  0  0  0  0  0
   52.6075  100.1399   29.2811 C   0  0  0  0  0  0
   51.5828  100.6554   28.4755 C   0  0  0  0  0  0
   51.1408  101.9617   28.7202 C   0  0  0  0  0  0
   51.7293  102.7412   29.7125 C   0  0  0  0  0  0
   54.2563  100.4555   31.0795 O   0  0  0  0  0  0
   55.0329   99.3227   30.6929 C   0  0  0  0  0  0
   54.4759   97.9912   31.2491 C   0  0  0  0  0  0
   54.4432   97.9128   32.7153 N   0  0  0  0  0  0
   53.7308   96.7059   33.1269 C   0  0  0  0  0  0
   55.7949   97.8805   33.2774 C   0  0  0  0  0  0
   51.0137   99.8442   27.3610 C   0  0  0  0  0  0
   50.8919   98.4491   27.4644 C   0  0  0  0  0  0
   50.4192   97.7214   26.3733 C   0  0  0  0  0  0
   50.0430   98.3031   25.2106 N   0  0  0  0  0  0
   50.1356   99.6518   25.1172 C   0  0  0  0  0  0
   50.6195  100.4477   26.1554 C   0  0  0  0  0  0
   54.2251   98.7059   36.4917 Cl  0  0  0  0  0  0
   51.2696  102.5142   36.9923 H   0  0  0  0  0  0
   52.0441  100.2167   37.4967 H   0  0  0  0  0  0
   55.3074  100.7094   34.7707 H   0  0  0  0  0  0
   55.5475  103.8660   34.6544 H   0  0  0  0  0  0
   55.3601  102.7775   33.2995 H   0  0  0  0  0  0
   54.3942  105.1261   32.8280 H   0  0  0  0  0  0
   52.4807  105.9029   34.2689 H   0  0  0  0  0  0
   53.8466  105.5222   35.2736 H   0  0  0  0  0  0
   54.4243  102.8100   31.5269 H   0  0  0  0  0  0
   52.9479   99.1334   29.1078 H   0  0  0  0  0  0
   50.3481  102.3908   28.1252 H   0  0  0  0  0  0
   51.3962  103.7574   29.8584 H   0  0  0  0  0  0
   55.1499   99.2643   29.6116 H   0  0  0  0  0  0
   56.0427   99.5030   31.0566 H   0  0  0  0  0  0
   53.4609   97.8612   30.8729 H   0  0  0  0  0  0
   55.0583   97.1613   30.8438 H   0  0  0  0  0  0
   53.6725   96.6398   34.2142 H   0  0  0  0  0  0
   52.7084   96.7190   32.7506 H   0  0  0  0  0  0
   54.2159   95.7996   32.7576 H   0  0  0  0  0  0
   55.7710   97.7176   34.3546 H   0  0  0  0  0  0
   56.3988   97.0864   32.8347 H   0  0  0  0  0  0
   56.3148   98.8248   33.1176 H   0  0  0  0  0  0
   51.1718   97.9282   28.3684 H   0  0  0  0  0  0
   50.3385   96.6451   26.4153 H   0  0  0  0  0  0
   49.8287  100.0919   24.1784 H   0  0  0  0  0  0
   50.7019  101.5149   26.0115 H   0  0  0  0  0  0
  1  5  1  0  0  0
  1  2  2  0  0  0
  1 33  1  0  0  0
  2  3  1  0  0  0
  2 34  1  0  0  0
  3  4  2  0  0  0
  3 32  1  0  0  0
  4  6  1  0  0  0
  4 35  1  0  0  0
  5  6  2  0  0  0
  5 10  1  0  0  0
  6  7  1  0  0  0
  7  8  1  0  0  0
  7 36  1  0  0  0
  7 37  1  0  0  0
  8  9  1  0  0  0
  8 11  1  0  0  0
  8 38  1  0  0  0
  9 10  1  0  0  0
  9 39  1  0  0  0
  9 40  1  0  0  0
 11 12  2  0  0  0
 11 13  1  0  0  0
 13 14  1  0  0  0
 13 41  1  0  0  0
 14 15  2  0  0  0
 14 19  1  0  0  0
 15 16  1  0  0  0
 15 20  1  0  0  0
 16 17  2  0  0  0
 16 42  1  0  0  0
 17 18  1  0  0  0
 17 26  1  0  0  0
 18 19  2  0  0  0
 18 43  1  0  0  0
 19 44  1  0  0  0
 20 21  1  0  0  0
 21 22  1  0  0  0
 21 45  1  0  0  0
 21 46  1  0  0  0
 22 23  1  0  0  0
 22 47  1  0  0  0
 22 48  1  0  0  0
 23 24  1  0  0  0
 23 25  1  0  0  0
 24 49  1  0  0  0
 24 50  1  0  0  0
 24 51  1  0  0  0
 25 52  1  0  0  0
 25 53  1  0  0  0
 25 54  1  0  0  0
 26 27  2  0  0  0
 26 31  1  0  0  0
 27 28  1  0  0  0
 27 55  1  0  0  0
 28 29  2  0  0  0
 28 56  1  0  0  0
 29 30  1  0  0  0
 30 31  2  0  0  0
 30 57  1  0  0  0
 31 58  1  0  0  0
M  END
> <s_m_entry_id>
28509

> <s_m_entry_name>
dock_pv.670

> <s_m_Source_Path>
/home/csk/Desktop/cluster/DUD-E-result/rock1

> <s_m_Source_File>
dock_pv.maegz

> <i_m_Source_File_Index>
670

> <chembl_id>
CHEMBL4559633

> <chembl_pref_name>
None

> <i_lp_mmshare_version>
53161

> <r_lp_tautomer_probability>
1

> <s_lp_Force_Field>
OPLS_2005

> <r_lp_Energy>
35.552643

> <b_lp_Chiralities_Consistent>
1

> <s_lp_Variant>
CHEMBL3231_lig1053 -1

> <s_i_glide_gridfile>
glide-grid_2etr

> <i_i_glide_lignum>
1469

> <i_i_glide_rotatable_bonds>
8

> <r_i_docking_score>
-7.12166223406092

> <r_i_glide_ligand_efficiency>
-0.222551944814404

> <r_i_glide_ligand_efficiency_sa>
-0.706558381815659

> <r_i_glide_ligand_efficiency_ln>
-1.59473430338684

> <r_i_glide_gscore>
-7.12166223406092

> <r_i_glide_lipo>
-2.32281123674118

> <r_i_glide_hbond>
-0.301868020292346

> <r_i_glide_metal>
0

> <r_i_glide_rewards>
-1.69401062950759

> <r_i_glide_evdw>
-45.1076507568359

> <r_i_glide_ecoul>
-7.63739347457886

> <r_i_glide_erotb>
0.687516047710037

> <r_i_glide_esite>
-0.0894968362012176

> <r_i_glide_emodel>
-74.0059025218302

> <r_i_glide_energy>
-52.7450442314148

> <r_i_glide_einternal>
5.65535640716553

> <i_i_glide_confnum>
35

> <i_i_glide_posenum>
80

> <r_i_glide_eff_state_penalty>
0

> <s_user_duplicate_titles>
CHEMBL3231_lig1053 

> <i_f3d_flags>
0

> <s_m_subgroup_title>
dock_pv

> <s_m_subgroupid>
dock_pv

> <b_m_subgroup_collapsed>
1

$$$$
CHEMBL3231_lig543
                    3D
 Schrodinger Suite 2021-1.
 48 52  0  0  1  0            999 V2000
   49.6435   98.1771   24.8111 F   0  0  0  0  0  0
   50.1402   98.6452   25.9666 C   0  0  0  0  0  0
   50.6566   97.7622   26.9101 C   0  0  0  0  0  0
   51.1992   98.2460   28.1005 C   0  0  0  0  0  0
   51.2227   99.6180   28.3324 C   0  0  0  0  0  0
   51.7617  100.3872   29.5050 C   0  0  0  0  0  0
   51.3756  101.7707   29.2192 N   0  0  0  0  0  0
   50.8709  101.8940   27.8497 C   0  0  0  0  0  0
   50.6827  100.4869   27.3980 C   0  0  0  0  0  0
   50.1440  100.0129   26.2065 C   0  0  0  0  0  0
   51.3644  102.8435   30.0590 C   0  0  0  0  0  0
   50.8520  103.9021   29.6908 O   0  0  0  0  0  0
   51.9581  102.8660   31.4968 C   0  0  0  0  0  0
   52.6917  101.6277   31.9910 C   0  0  0  0  0  0
   52.0175  100.6949   32.7822 C   0  0  0  0  0  0
   52.6050   99.4636   33.0465 C   0  0  0  0  0  0
   53.8721   99.1644   32.5366 C   0  0  0  0  0  0
   54.5867  100.1456   31.8365 C   0  0  0  0  0  0
   54.0023  101.3807   31.5754 C   0  0  0  0  0  0
   54.4021   97.7934   32.6254 C   0  0  0  0  0  0
   54.8430   97.2422   31.5502 N   0  0  0  0  0  0
   55.3001   95.9441   31.5690 N   0  0  0  0  0  0
   55.2836   95.0461   32.5859 C   0  0  0  0  0  0
   55.5658   93.8617   32.4112 O   0  0  0  0  0  0
   54.8352   95.6946   33.8841 C   0  0  0  0  0  0
   54.8456   94.9267   35.0537 C   0  0  0  0  0  0
   54.4406   95.4881   36.2627 C   0  0  0  0  0  0
   54.0377   96.8205   36.3126 C   0  0  0  0  0  0
   54.0281   97.5949   35.1522 C   0  0  0  0  0  0
   54.4004   97.0404   33.9156 C   0  0  0  0  0  0
   50.6416   96.7024   26.7133 H   0  0  0  0  0  0
   51.5940   97.5538   28.8288 H   0  0  0  0  0  0
   51.3221  100.0297   30.4335 H   0  0  0  0  0  0
   52.8440  100.2851   29.5695 H   0  0  0  0  0  0
   51.6437  102.3021   27.2170 H   0  0  0  0  0  0
   49.9789  102.5156   27.7674 H   0  0  0  0  0  0
   49.7484  100.6864   25.4600 H   0  0  0  0  0  0
   52.6501  103.7087   31.5534 H   0  0  0  0  0  0
   51.1512  103.1026   32.1906 H   0  0  0  0  0  0
   51.0094  100.8849   33.1199 H   0  0  0  0  0  0
   52.0440   98.7158   33.5849 H   0  0  0  0  0  0
   55.5736   99.9361   31.4416 H   0  0  0  0  0  0
   54.5377  102.1053   30.9776 H   0  0  0  0  0  0
   55.6360   95.6071   30.6790 H   0  0  0  0  0  0
   55.1981   93.9037   35.0348 H   0  0  0  0  0  0
   54.4630   94.8939   37.1644 H   0  0  0  0  0  0
   53.7472   97.2593   37.2563 H   0  0  0  0  0  0
   53.7431   98.6322   35.2392 H   0  0  0  0  0  0
  1  2  1  0  0  0
  2  3  2  0  0  0
  2 10  1  0  0  0
  3  4  1  0  0  0
  3 31  1  0  0  0
  4  5  2  0  0  0
  4 32  1  0  0  0
  5  6  1  0  0  0
  5  9  1  0  0  0
  6  7  1  0  0  0
  6 33  1  0  0  0
  6 34  1  0  0  0
  7  8  1  0  0  0
  7 11  1  0  0  0
  8  9  1  0  0  0
  8 35  1  0  0  0
  8 36  1  0  0  0
  9 10  2  0  0  0
 10 37  1  0  0  0
 11 12  2  0  0  0
 11 13  1  0  0  0
 13 14  1  0  0  0
 13 38  1  0  0  0
 13 39  1  0  0  0
 14 15  2  0  0  0
 14 19  1  0  0  0
 15 16  1  0  0  0
 15 40  1  0  0  0
 16 17  2  0  0  0
 16 41  1  0  0  0
 17 18  1  0  0  0
 17 20  1  0  0  0
 18 19  2  0  0  0
 18 42  1  0  0  0
 19 43  1  0  0  0
 20 21  2  0  0  0
 20 30  1  0  0  0
 21 22  1  0  0  0
 22 23  1  0  0  0
 22 44  1  0  0  0
 23 24  2  0  0  0
 23 25  1  0  0  0
 25 26  2  0  0  0
 25 30  1  0  0  0
 26 27  1  0  0  0
 26 45  1  0  0  0
 27 28  2  0  0  0
 27 46  1  0  0  0
 28 29  1  0  0  0
 28 47  1  0  0  0
 29 30  2  0  0  0
 29 48  1  0  0  0
M  END
> <s_m_entry_id>
28510

> <s_m_entry_name>
dock_pv.671

> <s_m_Source_Path>
/home/csk/Desktop/cluster/DUD-E-result/rock1

> <s_m_Source_File>
dock_pv.maegz

> <i_m_Source_File_Index>
671

> <chembl_id>
CHEMBL3938988

> <chembl_pref_name>
None

> <i_lp_mmshare_version>
53161

> <r_lp_tautomer_probability>
1

> <s_lp_Force_Field>
OPLS_2005

> <r_lp_Energy>
49.036346

> <b_lp_Chiralities_Consistent>
1

> <s_lp_Variant>
CHEMBL3231_lig543-1

> <s_i_glide_gridfile>
glide-grid_2etr

> <i_i_glide_lignum>
821

> <i_i_glide_rotatable_bonds>
4

> <r_i_docking_score>
-7.12100640317585

> <r_i_glide_ligand_efficiency>
-0.237366880105862

> <r_i_glide_ligand_efficiency_sa>
-0.737554084865596

> <r_i_glide_ligand_efficiency_ln>
-1.61797024438075

> <r_i_glide_gscore>
-7.12100640317585

> <r_i_glide_lipo>
-2.22575433305142

> <r_i_glide_hbond>
-0.399730944134287

> <r_i_glide_metal>
0

> <r_i_glide_rewards>
-1.7121349082781

> <r_i_glide_evdw>
-42.6877250671387

> <r_i_glide_ecoul>
-6.93189859390259

> <r_i_glide_erotb>
0.49128800839063

> <r_i_glide_esite>
-0.10050318366035

> <r_i_glide_emodel>
-68.7704961516303

> <r_i_glide_energy>
-49.6196236610413

> <r_i_glide_einternal>
0.805390298366547

> <i_i_glide_confnum>
9

> <i_i_glide_posenum>
222

> <r_i_glide_eff_state_penalty>
0

> <s_user_duplicate_titles>
CHEMBL3231_lig543

> <i_f3d_flags>
0

> <s_m_subgroup_title>
dock_pv

> <s_m_subgroupid>
dock_pv

> <b_m_subgroup_collapsed>
1

$$$$
CHEMBL3231_lig1042 
                    3D
 Schrodinger Suite 2021-1.
 58 61  0  0  1  0            999 V2000
   49.5644  105.5028   37.2816 O   0  0  0  0  0  0
   49.1726  104.5747   36.5769 C   0  0  0  0  0  0
   49.9782  103.3443   36.3133 C   0  0  0  0  0  0
   49.4237  102.2907   35.5661 C   0  0  0  0  0  0
   48.1571  102.3651   35.0154 O   0  0  0  0  0  0
   47.4449  103.5021   35.2116 C   0  0  0  0  0  0
   47.8764  104.5604   35.9252 C   0  0  0  0  0  0
   50.1326  101.1127   35.3552 C   0  0  0  0  0  0
   51.4044  100.9540   35.9003 C   0  0  0  0  0  0
   51.9876  102.0227   36.5965 C   0  0  0  0  0  0
   51.2807  103.2051   36.8078 C   0  0  0  0  0  0
   52.0207   99.7282   35.7432 O   0  0  0  0  0  0
   52.8449   99.2540   36.8138 C   0  0  0  0  0  0
   54.6836   99.5900   36.5184 S   0  0  0  0  0  0
   55.2862   98.0089   35.9983 N   0  0  0  0  0  0
   55.1212   97.4637   34.7191 C   0  0  0  0  0  0
   55.9115   96.3658   34.3715 C   0  0  0  0  0  0
   55.7984   95.7869   33.1078 C   0  0  0  0  0  0
   54.8918   96.3028   32.1850 C   0  0  0  0  0  0
   54.0819   97.3914   32.5174 C   0  0  0  0  0  0
   54.1971   97.9655   33.7937 C   0  0  0  0  0  0
   53.2159   97.8439   31.5107 N   0  0  0  0  0  0
   52.4111   98.9280   31.4628 C   0  0  0  0  0  0
   51.7969   99.1596   30.1077 C   0  0  0  0  0  0
   51.7769  100.4471   29.5624 C   0  0  0  0  0  0
   51.3019  100.6543   28.2705 C   0  0  0  0  0  0
   50.8367   99.5839   27.4897 C   0  0  0  0  0  0
   50.8406   98.3028   28.0608 C   0  0  0  0  0  0
   51.2814   98.0936   29.3610 C   0  0  0  0  0  0
   50.3555   99.7819   26.1688 N   0  0  0  0  0  0
   50.0235   98.6406   25.3194 C   0  0  0  0  0  0
   50.3909  101.1035   25.5456 C   0  0  0  0  0  0
   52.2002   99.7212   32.3834 O   0  0  0  0  0  0
   55.3089   99.8470   37.8197 O   0  0  0  0  0  0
   54.8494  100.5361   35.4104 O   0  0  0  0  0  0
   46.4766  103.4571   34.7293 H   0  0  0  0  0  0
   47.2431  105.4207   36.0312 H   0  0  0  0  0  0
   49.6828  100.3052   34.8003 H   0  0  0  0  0  0
   52.9866  101.9342   36.9962 H   0  0  0  0  0  0
   51.7468  104.0031   37.3701 H   0  0  0  0  0  0
   52.7404   98.1775   36.9188 H   0  0  0  0  0  0
   52.6034   99.7113   37.7721 H   0  0  0  0  0  0
   55.8903   97.5256   36.6420 H   0  0  0  0  0  0
   56.6291   95.9563   35.0696 H   0  0  0  0  0  0
   56.4305   94.9499   32.8431 H   0  0  0  0  0  0
   54.8443   95.8525   31.2042 H   0  0  0  0  0  0
   53.5859   98.8074   34.0664 H   0  0  0  0  0  0
   53.2739   97.3193   30.6548 H   0  0  0  0  0  0
   52.1648  101.2858   30.1244 H   0  0  0  0  0  0
   51.3219  101.6619   27.8840 H   0  0  0  0  0  0
   50.4837   97.4417   27.5141 H   0  0  0  0  0  0
   51.2454   97.0916   29.7666 H   0  0  0  0  0  0
   50.8821   97.9836   25.2114 H   0  0  0  0  0  0
   49.6895   98.9418   24.3262 H   0  0  0  0  0  0
   49.2409   98.0425   25.7780 H   0  0  0  0  0  0
   51.4240  101.4152   25.3837 H   0  0  0  0  0  0
   49.8827  101.1027   24.5812 H   0  0  0  0  0  0
   49.9113  101.8467   26.1798 H   0  0  0  0  0  0
  1  2  2  0  0  0
  2  3  1  0  0  0
  2  7  1  0  0  0
  3  4  1  0  0  0
  3 11  2  0  0  0
  4  5  1  0  0  0
  4  8  2  0  0  0
  5  6  1  0  0  0
  6  7  2  0  0  0
  6 36  1  0  0  0
  7 37  1  0  0  0
  8  9  1  0  0  0
  8 38  1  0  0  0
  9 10  2  0  0  0
  9 12  1  0  0  0
 10 11  1  0  0  0
 10 39  1  0  0  0
 11 40  1  0  0  0
 12 13  1  0  0  0
 13 14  1  0  0  0
 13 41  1  0  0  0
 13 42  1  0  0  0
 14 15  1  0  0  0
 14 34  2  0  0  0
 14 35  2  0  0  0
 15 16  1  0  0  0
 15 43  1  0  0  0
 16 17  2  0  0  0
 16 21  1  0  0  0
 17 18  1  0  0  0
 17 44  1  0  0  0
 18 19  2  0  0  0
 18 45  1  0  0  0
 19 20  1  0  0  0
 19 46  1  0  0  0
 20 21  2  0  0  0
 20 22  1  0  0  0
 21 47  1  0  0  0
 22 23  1  0  0  0
 22 48  1  0  0  0
 23 24  1  0  0  0
 23 33  2  0  0  0
 24 25  2  0  0  0
 24 29  1  0  0  0
 25 26  1  0  0  0
 25 49  1  0  0  0
 26 27  2  0  0  0
 26 50  1  0  0  0
 27 28  1  0  0  0
 27 30  1  0  0  0
 28 29  2  0  0  0
 28 51  1  0  0  0
 29 52  1  0  0  0
 30 31  1  0  0  0
 30 32  1  0  0  0
 31 53  1  0  0  0
 31 54  1  0  0  0
 31 55  1  0  0  0
 32 56  1  0  0  0
 32 57  1  0  0  0
 32 58  1  0  0  0
M  END
> <s_m_entry_id>
28512

> <s_m_entry_name>
dock_pv.673

> <s_m_Source_Path>
/home/csk/Desktop/cluster/DUD-E-result/rock1

> <s_m_Source_File>
dock_pv.maegz

> <i_m_Source_File_Index>
673

> <chembl_id>
CHEMBL4455163

> <chembl_pref_name>
None

> <i_lp_mmshare_version>
53161

> <r_lp_tautomer_probability>
1

> <s_lp_Force_Field>
OPLS_2005

> <r_lp_Energy>
29.709584

> <b_lp_Chiralities_Consistent>
1

> <s_lp_Variant>
CHEMBL3231_lig1042 -1

> <s_i_glide_gridfile>
glide-grid_2etr

> <i_i_glide_lignum>
1457

> <i_i_glide_rotatable_bonds>
9

> <r_i_docking_score>
-7.11604478852268

> <r_i_glide_ligand_efficiency>
-0.203315565386362

> <r_i_glide_ligand_efficiency_sa>
-0.665058695484103

> <r_i_glide_ligand_efficiency_ln>
-1.56212976318565

> <r_i_glide_gscore>
-7.11604478852268

> <r_i_glide_lipo>
-4.00022025186689

> <r_i_glide_hbond>
-0.0323371345168209

> <r_i_glide_metal>
0

> <r_i_glide_rewards>
-0.585163771284608

> <r_i_glide_evdw>
-54.629222869873

> <r_i_glide_ecoul>
-2.2582745552063

> <r_i_glide_erotb>
0.585468682983556

> <r_i_glide_esite>
-0.0135899870633244

> <r_i_glide_emodel>
-74.3677555968606

> <r_i_glide_energy>
-56.8874974250793

> <r_i_glide_einternal>
10.996148109436

> <i_i_glide_confnum>
5

> <i_i_glide_posenum>
42

> <r_i_glide_eff_state_penalty>
0

> <s_user_duplicate_titles>
CHEMBL3231_lig1042 

> <i_f3d_flags>
0

> <s_m_subgroup_title>
dock_pv

> <s_m_subgroupid>
dock_pv

> <b_m_subgroup_collapsed>
1

$$$$
CHEMBL3231_lig820
                    3D
 Schrodinger Suite 2021-1.
 51 53  0  0  1  0            999 V2000
   54.4057  106.1432   35.7079 C   0  0  0  0  0  0
   53.0087  105.6558   36.1305 C   0  0  0  0  0  0
   52.8059  104.2357   35.8659 N   0  0  1  0  0  0
   52.7349  103.9323   34.4347 C   0  0  0  0  0  0
   52.4083  102.4309   34.1586 C   0  0  1  0  0  0
   52.3881  102.0258   32.7450 N   0  0  0  0  0  0
   51.9305  102.7062   31.6790 C   0  0  0  0  0  0
   51.6433  103.9019   31.7176 O   0  0  0  0  0  0
   51.7086  101.9168   30.4069 C   0  0  0  0  0  0
   51.4250  102.5981   29.2201 C   0  0  0  0  0  0
   51.0840  101.9009   28.0693 C   0  0  0  0  0  0
   51.0183  100.5035   28.0592 C   0  0  0  0  0  0
   51.3387   99.7901   29.2321 C   0  0  0  0  0  0
   51.2439   98.4070   29.2120 O   0  0  0  0  0  0
   51.4214   97.6548   30.4108 C   0  0  0  0  0  0
   51.6924  100.5105   30.3881 C   0  0  0  0  0  0
   50.5458   99.8602   26.7893 C   0  0  0  0  0  0
   49.9252  100.4826   25.7124 C   0  0  0  0  0  0
   49.6430   99.5017   24.8105 N   0  0  0  0  0  0
   50.0428   98.2970   25.2113 N   0  0  0  0  0  0
   50.5905   98.5120   26.3841 C   0  0  0  0  0  0
   53.3360  101.4742   34.9166 C   0  0  0  0  0  0
   54.7208  101.5161   34.7025 C   0  0  0  0  0  0
   55.2429  102.4040   33.8280 F   0  0  0  0  0  0
   55.5701  100.6477   35.3863 C   0  0  0  0  0  0
   55.0454   99.7216   36.2874 C   0  0  0  0  0  0
   53.6675   99.6652   36.4997 C   0  0  0  0  0  0
   52.8151  100.5318   35.8137 C   0  0  0  0  0  0
   51.4795  100.4387   36.0117 F   0  0  0  0  0  0
   54.5648  107.1692   36.0384 H   0  0  0  0  0  0
   55.1925  105.5317   36.1506 H   0  0  0  0  0  0
   54.5339  106.1307   34.6233 H   0  0  0  0  0  0
   52.2294  106.2523   35.6524 H   0  0  0  0  0  0
   52.8953  105.8040   37.2057 H   0  0  0  0  0  0
   53.5679  103.7104   36.2754 H   0  0  0  0  0  0
   53.6685  104.1956   33.9384 H   0  0  0  0  0  0
   51.9567  104.5631   34.0091 H   0  0  0  0  0  0
   51.3882  102.2831   34.5183 H   0  0  0  0  0  0
   52.6597  101.0670   32.5829 H   0  0  0  0  0  0
   51.4389  103.6794   29.1825 H   0  0  0  0  0  0
   50.8427  102.4711   27.1864 H   0  0  0  0  0  0
   51.2435   96.5996   30.2051 H   0  0  0  0  0  0
   52.4382   97.7471   30.7915 H   0  0  0  0  0  0
   50.7173   97.9542   31.1886 H   0  0  0  0  0  0
   51.9096   99.9683   31.2942 H   0  0  0  0  0  0
   49.6492  101.5082   25.5175 H   0  0  0  0  0  0
   49.1951   99.6507   23.9108 H   0  0  0  0  0  0
   51.0124   97.6909   26.9457 H   0  0  0  0  0  0
   56.6367  100.6919   35.2113 H   0  0  0  0  0  0
   55.7065   99.0444   36.8122 H   0  0  0  0  0  0
   53.2551   98.9439   37.1904 H   0  0  0  0  0  0
  1  2  1  0  0  0
  1 30  1  0  0  0
  1 31  1  0  0  0
  1 32  1  0  0  0
  2  3  1  0  0  0
  2 33  1  0  0  0
  2 34  1  0  0  0
  3  4  1  0  0  0
  3 35  1  0  0  0
  4  5  1  0  0  0
  4 36  1  0  0  0
  4 37  1  0  0  0
  5  6  1  0  0  0
  5 22  1  0  0  0
  5 38  1  0  0  0
  6  7  1  0  0  0
  6 39  1  0  0  0
  7  8  2  0  0  0
  7  9  1  0  0  0
  9 10  2  0  0  0
  9 16  1  0  0  0
 10 11  1  0  0  0
 10 40  1  0  0  0
 11 12  2  0  0  0
 11 41  1  0  0  0
 12 13  1  0  0  0
 12 17  1  0  0  0
 13 14  1  0  0  0
 13 16  2  0  0  0
 14 15  1  0  0  0
 15 42  1  0  0  0
 15 43  1  0  0  0
 15 44  1  0  0  0
 16 45  1  0  0  0
 17 18  2  0  0  0
 17 21  1  0  0  0
 18 19  1  0  0  0
 18 46  1  0  0  0
 19 20  1  0  0  0
 19 47  1  0  0  0
 20 21  2  0  0  0
 21 48  1  0  0  0
 22 23  2  0  0  0
 22 28  1  0  0  0
 23 24  1  0  0  0
 23 25  1  0  0  0
 25 26  2  0  0  0
 25 49  1  0  0  0
 26 27  1  0  0  0
 26 50  1  0  0  0
 27 28  2  0  0  0
 27 51  1  0  0  0
 28 29  1  0  0  0
M  END
> <s_m_entry_id>
28515

> <s_m_entry_name>
dock_pv.676

> <s_m_Source_Path>
/home/csk/Desktop/cluster/DUD-E-result/rock1

> <s_m_Source_File>
dock_pv.maegz

> <i_m_Source_File_Index>
676

> <chembl_id>
CHEMBL4107997

> <chembl_pref_name>
None

> <i_lp_mmshare_version>
53161

> <r_lp_tautomer_probability>
0.5

> <s_lp_Force_Field>
OPLS_2005

> <r_lp_Energy>
24.31746

> <b_lp_Chiralities_Consistent>
1

> <s_lp_Variant>
CHEMBL3231_lig820-1

> <s_i_glide_gridfile>
glide-grid_2etr

> <i_i_glide_lignum>
1148

> <i_i_glide_rotatable_bonds>
9

> <r_i_docking_score>
-7.10597773599593

> <r_i_glide_ligand_efficiency>
-0.245033715034342

> <r_i_glide_ligand_efficiency_sa>
-0.75282120471533

> <r_i_glide_ligand_efficiency_ln>
-1.62708870949508

> <r_i_glide_gscore>
-7.10597773599593

> <r_i_glide_lipo>
-1.93240560286927

> <r_i_glide_hbond>
-0.678903252483401

> <r_i_glide_metal>
0

> <r_i_glide_rewards>
-1.89493170962763

> <r_i_glide_evdw>
-37.8929443359375

> <r_i_glide_ecoul>
-7.75088453292847

> <r_i_glide_erotb>
0.513524854037453

> <r_i_glide_esite>
-0.0559821283169313

> <r_i_glide_emodel>
-58.990124244286

> <r_i_glide_energy>
-45.643828868866

> <r_i_glide_einternal>
13.0357675552368

> <i_i_glide_confnum>
6

> <i_i_glide_posenum>
93

> <r_i_glide_eff_state_penalty>
0

> <s_user_duplicate_titles>
CHEMBL3231_lig820

> <i_f3d_flags>
0

> <s_m_subgroup_title>
dock_pv

> <s_m_subgroupid>
dock_pv

> <b_m_subgroup_collapsed>
1

$$$$
CHEMBL3231_lig1212
                    3D
 Schrodinger Suite 2021-1.
 43 45  0  0  1  0            999 V2000
   54.1526  103.2757   33.7366 O   0  0  0  0  0  0
   52.8367  100.6302   30.6462 N   0  0  0  0  0  0
   53.8448   96.8124   33.1241 N   0  0  0  0  0  0
   54.4433  103.1031   31.5242 N   0  0  0  0  0  0
   53.2418   94.1388   34.4156 N   0  0  0  0  0  0
   53.4667  100.2905   31.8264 C   0  0  0  0  0  0
   53.3541   98.8720   31.9322 C   0  0  0  0  0  0
   52.3400   99.5339   29.9842 C   0  0  0  0  0  0
   54.1089  101.0769   32.8016 C   0  0  0  0  0  0
   53.9262   98.2153   33.0399 C   0  0  0  0  0  0
   52.6206   98.4351   30.7774 C   0  0  0  0  0  0
   51.6584   99.6298   28.6526 C   0  0  0  0  0  0
   54.6395  100.3821   33.8960 C   0  0  0  0  0  0
   54.5605   98.9982   34.0096 C   0  0  0  0  0  0
   54.2291  102.5769   32.7292 C   0  0  0  0  0  0
   51.1666   98.4741   28.0310 C   0  0  0  0  0  0
   51.5290  100.8618   27.9968 C   0  0  0  0  0  0
   50.5761   98.5437   26.7735 C   0  0  0  0  0  0
   50.9313  100.9371   26.7423 C   0  0  0  0  0  0
   50.4597   99.7774   26.1298 C   0  0  0  0  0  0
   54.7369   96.0587   34.0062 C   0  0  0  0  0  0
   54.5532   94.5318   33.9236 C   0  0  0  0  0  0
   49.8393   99.8651   24.7519 C   0  0  0  0  0  0
   52.7512  101.5602   30.2717 H   0  0  0  0  0  0
   53.5413   96.3289   32.2904 H   0  0  0  0  0  0
   54.8228  102.5166   30.7953 H   0  0  0  0  0  0
   54.5642  104.1061   31.4517 H   0  0  0  0  0  0
   52.5346   94.5441   33.8089 H   0  0  0  0  0  0
   53.1223   93.1363   34.3586 H   0  0  0  0  0  0
   52.3459   97.4173   30.5458 H   0  0  0  0  0  0
   55.1508  100.9257   34.6798 H   0  0  0  0  0  0
   55.0105   98.5375   34.8771 H   0  0  0  0  0  0
   51.2476   97.5138   28.5139 H   0  0  0  0  0  0
   51.9056  101.7690   28.4421 H   0  0  0  0  0  0
   50.2139   97.6409   26.3038 H   0  0  0  0  0  0
   50.8464  101.8910   26.2417 H   0  0  0  0  0  0
   54.6146   96.3930   35.0375 H   0  0  0  0  0  0
   55.7667   96.3069   33.7404 H   0  0  0  0  0  0
   55.3151   94.0313   34.5242 H   0  0  0  0  0  0
   54.6830   94.1857   32.8943 H   0  0  0  0  0  0
   49.7787   98.8905   24.2646 H   0  0  0  0  0  0
   48.8391  100.2963   24.8085 H   0  0  0  0  0  0
   50.4360  100.5119   24.1032 H   0  0  0  0  0  0
  1 15  2  0  0  0
  2  6  1  0  0  0
  2  8  1  0  0  0
  2 24  1  0  0  0
  3 10  1  0  0  0
  3 21  1  0  0  0
  3 25  1  0  0  0
  4 15  1  0  0  0
  4 26  1  0  0  0
  4 27  1  0  0  0
  5 22  1  0  0  0
  5 28  1  0  0  0
  5 29  1  0  0  0
  6  7  1  0  0  0
  6  9  2  0  0  0
  7 10  2  0  0  0
  7 11  1  0  0  0
  8 11  2  0  0  0
  8 12  1  0  0  0
  9 13  1  0  0  0
  9 15  1  0  0  0
 10 14  1  0  0  0
 11 30  1  0  0  0
 12 16  2  0  0  0
 12 17  1  0  0  0
 13 14  2  0  0  0
 13 31  1  0  0  0
 14 32  1  0  0  0
 16 18  1  0  0  0
 16 33  1  0  0  0
 17 19  2  0  0  0
 17 34  1  0  0  0
 18 20  2  0  0  0
 18 35  1  0  0  0
 19 20  1  0  0  0
 19 36  1  0  0  0
 20 23  1  0  0  0
 21 22  1  0  0  0
 21 37  1  0  0  0
 21 38  1  0  0  0
 22 39  1  0  0  0
 22 40  1  0  0  0
 23 41  1  0  0  0
 23 42  1  0  0  0
 23 43  1  0  0  0
M  END
> <s_m_entry_id>
28516

> <s_m_entry_name>
dock_pv.677

> <s_m_Source_Path>
/home/csk/Desktop/cluster/DUD-E-result/rock1

> <s_m_Source_File>
dock_pv.maegz

> <i_m_Source_File_Index>
677

> <chembl_id>
CHEMBL1996048

> <chembl_pref_name>
None

> <i_lp_mmshare_version>
53161

> <r_lp_tautomer_probability>
1

> <s_lp_Force_Field>
OPLS_2005

> <r_lp_Energy>
16.362312

> <b_lp_Chiralities_Consistent>
1

> <s_lp_Variant>
CHEMBL3231_lig1212-1

> <s_i_glide_gridfile>
glide-grid_2etr

> <i_i_glide_lignum>
1681

> <i_i_glide_rotatable_bonds>
5

> <r_i_docking_score>
-7.10542652850824

> <r_i_glide_ligand_efficiency>
-0.30893158819601

> <r_i_glide_ligand_efficiency_sa>
-0.878560341785496

> <r_i_glide_ligand_efficiency_ln>
-1.71815656303894

> <r_i_glide_gscore>
-7.10542652850824

> <r_i_glide_lipo>
-2.37982551321329

> <r_i_glide_hbond>
-0.668682888041483

> <r_i_glide_metal>
0

> <r_i_glide_rewards>
-1.64818303030303

> <r_i_glide_evdw>
-37.4564971923828

> <r_i_glide_ecoul>
-7.01876926422119

> <r_i_glide_erotb>
0.583636712412971

> <r_i_glide_esite>
-0.0667315601110849

> <r_i_glide_emodel>
-62.5692520138776

> <r_i_glide_energy>
-44.475266456604

> <r_i_glide_einternal>
2.04912996292114

> <i_i_glide_confnum>
14

> <i_i_glide_posenum>
169

> <r_i_glide_eff_state_penalty>
0

> <s_user_duplicate_titles>
CHEMBL3231_lig1212

> <i_f3d_flags>
0

> <s_m_subgroup_title>
dock_pv

> <s_m_subgroupid>
dock_pv

> <b_m_subgroup_collapsed>
1

$$$$
CHEMBL3231_lig980 
                    3D
 Schrodinger Suite 2021-1.
 64 67  0  0  1  0            999 V2000
   50.2304  100.0517   25.2037 C   0  0  0  0  0  0
   50.0430   98.7065   25.1740 N   0  0  0  0  0  0
   50.3740   98.0320   26.3001 C   0  0  0  0  0  0
   50.8534   98.5821   27.4415 N   0  0  0  0  0  0
   51.0258   99.9384   27.4598 C   0  0  0  0  0  0
   50.7282  100.7165   26.3287 C   0  0  0  0  0  0
   51.4879  100.5221   28.7588 C   0  0  0  0  0  0
   52.2133   99.7535   29.6780 C   0  0  0  0  0  0
   52.5149  100.1938   30.9728 C   0  0  0  0  0  0
   52.0427  101.4727   31.3657 C   0  0  0  0  0  0
   51.4367  102.3016   30.4087 C   0  0  0  0  0  0
   51.1545  101.8281   29.1293 C   0  0  0  0  0  0
   52.0109  101.9160   32.8058 C   0  0  0  0  0  0
   52.5563  103.1184   33.0759 N   0  0  0  0  0  0
   51.4803  101.1970   33.6513 O   0  0  0  0  0  0
   52.6352  103.7742   34.3918 C   0  0  1  0  0  0
   51.2777  104.2515   34.9393 C   0  0  0  0  0  0
   50.3956  103.3741   35.5868 C   0  0  0  0  0  0
   49.1761  103.8293   36.0860 C   0  0  0  0  0  0
   48.8311  105.1736   35.9533 C   0  0  0  0  0  0
   49.6994  106.0775   35.3383 C   0  0  0  0  0  0
   50.9314  105.6063   34.8525 C   0  0  0  0  0  0
   49.2706  107.3881   35.2470 O   0  0  0  0  0  0
   50.1420  108.3637   34.6751 C   0  0  0  0  0  0
   53.4562  102.9647   35.4225 C   0  0  0  0  0  0
   53.2238   99.2882   31.7692 N   0  0  0  0  0  0
   54.1289   99.6781   32.8677 C   0  0  0  0  0  0
   55.2928   98.6764   33.0391 C   0  0  2  0  0  0
   54.7243   97.2781   33.3518 C   0  0  0  0  0  0
   53.7102   96.8803   32.2746 C   0  0  0  0  0  0
   52.6343   97.9723   32.0823 C   0  0  0  0  0  0
   56.3431   99.1729   34.0517 C   0  0  0  0  0  0
   57.5261   98.3344   34.0111 N   0  0  0  0  0  0
   49.9737  100.5926   24.3040 H   0  0  0  0  0  0
   50.2406   96.9600   26.2949 H   0  0  0  0  0  0
   50.8600  101.7881   26.3171 H   0  0  0  0  0  0
   52.5333   98.7629   29.3839 H   0  0  0  0  0  0
   51.0881  103.2873   30.6772 H   0  0  0  0  0  0
   50.6045  102.4650   28.4536 H   0  0  0  0  0  0
   52.9652  103.6302   32.3061 H   0  0  0  0  0  0
   53.2308  104.6699   34.2013 H   0  0  0  0  0  0
   50.6470  102.3303   35.7049 H   0  0  0  0  0  0
   48.5039  103.1411   36.5749 H   0  0  0  0  0  0
   47.8823  105.5157   36.3372 H   0  0  0  0  0  0
   51.6363  106.2914   34.4063 H   0  0  0  0  0  0
   49.6645  109.3427   34.7240 H   0  0  0  0  0  0
   51.0865  108.4287   35.2204 H   0  0  0  0  0  0
   50.3530  108.1517   33.6236 H   0  0  0  0  0  0
   53.6249  103.5422   36.3323 H   0  0  0  0  0  0
   52.9616  102.0366   35.7091 H   0  0  0  0  0  0
   54.4347  102.6971   35.0221 H   0  0  0  0  0  0
   54.5730  100.6414   32.6076 H   0  0  0  0  0  0
   53.6075   99.8361   33.8128 H   0  0  0  0  0  0
   55.7525   98.5981   32.0511 H   0  0  0  0  0  0
   54.2586   97.2790   34.3386 H   0  0  0  0  0  0
   55.5226   96.5380   33.4127 H   0  0  0  0  0  0
   53.2431   95.9372   32.5557 H   0  0  0  0  0  0
   54.2083   96.6846   31.3236 H   0  0  0  0  0  0
   52.0430   98.0791   32.9890 H   0  0  0  0  0  0
   51.9531   97.6480   31.2935 H   0  0  0  0  0  0
   56.6389  100.1955   33.8244 H   0  0  0  0  0  0
   55.9342   99.1756   35.0632 H   0  0  0  0  0  0
   57.2741   97.3831   34.2338 H   0  0  0  0  0  0
   57.8554   98.3052   33.0419 H   0  0  0  0  0  0
  1  2  2  0  0  0
  1  6  1  0  0  0
  1 34  1  0  0  0
  2  3  1  0  0  0
  3  4  2  0  0  0
  3 35  1  0  0  0
  4  5  1  0  0  0
  5  6  2  0  0  0
  5  7  1  0  0  0
  6 36  1  0  0  0
  7  8  2  0  0  0
  7 12  1  0  0  0
  8  9  1  0  0  0
  8 37  1  0  0  0
  9 10  2  0  0  0
  9 26  1  0  0  0
 10 11  1  0  0  0
 10 13  1  0  0  0
 11 12  2  0  0  0
 11 38  1  0  0  0
 12 39  1  0  0  0
 13 14  1  0  0  0
 13 15  2  0  0  0
 14 16  1  0  0  0
 14 40  1  0  0  0
 16 17  1  0  0  0
 16 25  1  0  0  0
 16 41  1  0  0  0
 17 18  2  0  0  0
 17 22  1  0  0  0
 18 19  1  0  0  0
 18 42  1  0  0  0
 19 20  2  0  0  0
 19 43  1  0  0  0
 20 21  1  0  0  0
 20 44  1  0  0  0
 21 22  2  0  0  0
 21 23  1  0  0  0
 22 45  1  0  0  0
 23 24  1  0  0  0
 24 46  1  0  0  0
 24 47  1  0  0  0
 24 48  1  0  0  0
 25 49  1  0  0  0
 25 50  1  0  0  0
 25 51  1  0  0  0
 26 27  1  0  0  0
 26 31  1  0  0  0
 27 28  1  0  0  0
 27 52  1  0  0  0
 27 53  1  0  0  0
 28 29  1  0  0  0
 28 32  1  0  0  0
 28 54  1  0  0  0
 29 30  1  0  0  0
 29 55  1  0  0  0
 29 56  1  0  0  0
 30 31  1  0  0  0
 30 57  1  0  0  0
 30 58  1  0  0  0
 31 59  1  0  0  0
 31 60  1  0  0  0
 32 33  1  0  0  0
 32 61  1  0  0  0
 32 62  1  0  0  0
 33 63  1  0  0  0
 33 64  1  0  0  0
M  END
> <s_m_entry_id>
28517

> <s_m_entry_name>
dock_pv.678

> <s_m_Source_Path>
/home/csk/Desktop/cluster/DUD-E-result/rock1

> <s_m_Source_File>
dock_pv.maegz

> <i_m_Source_File_Index>
678

> <chembl_id>
CHEMBL4557041

> <chembl_pref_name>
None

> <i_lp_mmshare_version>
53161

> <r_lp_tautomer_probability>
1

> <s_lp_Force_Field>
OPLS_2005

> <r_lp_Energy>
32.950371

> <b_lp_Chiralities_Consistent>
1

> <s_lp_Variant>
CHEMBL3231_lig980 -1

> <s_i_glide_gridfile>
glide-grid_2etr

> <i_i_glide_lignum>
1394

> <i_i_glide_rotatable_bonds>
8

> <r_i_docking_score>
-7.10517570554281

> <r_i_glide_ligand_efficiency>
-0.215308354713418

> <r_i_glide_ligand_efficiency_sa>
-0.690608938473302

> <r_i_glide_ligand_efficiency_ln>
-1.5801542882818

> <r_i_glide_gscore>
-7.10517570554281

> <r_i_glide_lipo>
-2.16205193250862

> <r_i_glide_hbond>
-0.212530444524373

> <r_i_glide_metal>
0

> <r_i_glide_rewards>
-1.97952828090689

> <r_i_glide_evdw>
-49.0790138244629

> <r_i_glide_ecoul>
-5.65104484558105

> <r_i_glide_erotb>
0.604748177979177

> <r_i_glide_esite>
-0.0542058075218038

> <r_i_glide_emodel>
-75.7254341016556

> <r_i_glide_energy>
-54.7300586700439

> <r_i_glide_einternal>
6.39764499664307

> <i_i_glide_confnum>
13

> <i_i_glide_posenum>
381

> <r_i_glide_eff_state_penalty>
0

> <s_user_duplicate_titles>
CHEMBL3231_lig980 

> <i_f3d_flags>
0

> <s_m_subgroup_title>
dock_pv

> <s_m_subgroupid>
dock_pv

> <b_m_subgroup_collapsed>
1

$$$$
CHEMBL3231_lig700
                    3D
 Schrodinger Suite 2021-1.
 55 58  0  0  1  0            999 V2000
   51.8016   97.7762   30.4037 C   0  0  0  0  0  0
   51.5762   98.4596   29.1695 O   0  0  0  0  0  0
   51.5466   99.8436   29.1542 C   0  0  0  0  0  0
   52.0230  100.6082   30.2331 C   0  0  0  0  0  0
   51.8706  101.9967   30.2569 C   0  0  0  0  0  0
   51.2641  102.6385   29.1798 C   0  0  0  0  0  0
   50.8457  101.9027   28.0791 C   0  0  0  0  0  0
   50.9885  100.5082   28.0395 C   0  0  0  0  0  0
   50.5064   99.8150   26.7961 C   0  0  0  0  0  0
   50.5535   98.4523   26.4372 C   0  0  0  0  0  0
   50.0430   98.1959   25.2555 N   0  0  0  0  0  0
   49.6437   99.3840   24.8099 N   0  0  0  0  0  0
   49.9056  100.3954   25.6836 C   0  0  0  0  0  0
   52.2897  102.7912   31.4529 C   0  0  0  0  0  0
   51.4666  103.5034   32.0255 O   0  0  0  0  0  0
   53.5761  102.6555   31.8127 N   0  0  0  0  0  0
   54.2168  103.3138   32.9563 C   0  0  0  0  0  0
   53.9443  102.6742   34.3592 C   0  0  1  0  0  0
   52.6758  103.1040   34.9906 N   0  0  0  0  0  0
   52.4668  104.5484   35.0788 C   0  0  0  0  0  0
   51.3191  104.7433   36.0719 C   0  0  0  0  0  0
   51.3563  103.4832   36.9361 C   0  0  0  0  0  0
   52.5478  102.6966   36.3875 C   0  0  0  0  0  0
   54.1209  101.1459   34.3237 C   0  0  0  0  0  0
   55.3879  100.5986   34.5525 C   0  0  0  0  0  0
   55.5918   99.2269   34.4298 C   0  0  0  0  0  0
   54.5272   98.3980   34.0825 C   0  0  0  0  0  0
   53.2598   98.9289   33.8565 C   0  0  0  0  0  0
   53.0586  100.3025   33.9703 C   0  0  0  0  0  0
   51.6080   96.7113   30.2747 H   0  0  0  0  0  0
   52.8343   97.8850   30.7369 H   0  0  0  0  0  0
   51.1323   98.1277   31.1908 H   0  0  0  0  0  0
   52.4763  100.1252   31.0860 H   0  0  0  0  0  0
   51.1322  103.7114   29.1786 H   0  0  0  0  0  0
   50.4040  102.4438   27.2565 H   0  0  0  0  0  0
   50.9638   97.6495   27.0308 H   0  0  0  0  0  0
   49.2152   99.5041   23.8963 H   0  0  0  0  0  0
   49.6429  101.4134   25.4364 H   0  0  0  0  0  0
   54.1715  102.0731   31.2407 H   0  0  0  0  0  0
   53.9708  104.3763   32.9365 H   0  0  0  0  0  0
   55.2928  103.3047   32.7780 H   0  0  0  0  0  0
   54.7293  103.0660   35.0096 H   0  0  0  0  0  0
   53.3733  105.0818   35.3729 H   0  0  0  0  0  0
   52.2071  104.9425   34.0962 H   0  0  0  0  0  0
   51.4636  105.6482   36.6635 H   0  0  0  0  0  0
   50.3663  104.8393   35.5501 H   0  0  0  0  0  0
   50.4368  102.9031   36.8384 H   0  0  0  0  0  0
   51.4898  103.7149   37.9937 H   0  0  0  0  0  0
   52.3846  101.6183   36.4332 H   0  0  0  0  0  0
   53.4652  102.8678   36.9549 H   0  0  0  0  0  0
   56.2260  101.2312   34.8111 H   0  0  0  0  0  0
   56.5759   98.8097   34.5895 H   0  0  0  0  0  0
   54.6904   97.3346   33.9820 H   0  0  0  0  0  0
   52.4434   98.2787   33.5825 H   0  0  0  0  0  0
   52.0812  100.7193   33.7731 H   0  0  0  0  0  0
  1  2  1  0  0  0
  1 30  1  0  0  0
  1 31  1  0  0  0
  1 32  1  0  0  0
  2  3  1  0  0  0
  3  4  2  0  0  0
  3  8  1  0  0  0
  4  5  1  0  0  0
  4 33  1  0  0  0
  5  6  2  0  0  0
  5 14  1  0  0  0
  6  7  1  0  0  0
  6 34  1  0  0  0
  7  8  2  0  0  0
  7 35  1  0  0  0
  8  9  1  0  0  0
  9 10  1  0  0  0
  9 13  2  0  0  0
 10 11  2  0  0  0
 10 36  1  0  0  0
 11 12  1  0  0  0
 12 13  1  0  0  0
 12 37  1  0  0  0
 13 38  1  0  0  0
 14 15  2  0  0  0
 14 16  1  0  0  0
 16 17  1  0  0  0
 16 39  1  0  0  0
 17 18  1  0  0  0
 17 40  1  0  0  0
 17 41  1  0  0  0
 18 19  1  0  0  0
 18 24  1  0  0  0
 18 42  1  0  0  0
 19 20  1  0  0  0
 19 23  1  0  0  0
 20 21  1  0  0  0
 20 43  1  0  0  0
 20 44  1  0  0  0
 21 22  1  0  0  0
 21 45  1  0  0  0
 21 46  1  0  0  0
 22 23  1  0  0  0
 22 47  1  0  0  0
 22 48  1  0  0  0
 23 49  1  0  0  0
 23 50  1  0  0  0
 24 25  2  0  0  0
 24 29  1  0  0  0
 25 26  1  0  0  0
 25 51  1  0  0  0
 26 27  2  0  0  0
 26 52  1  0  0  0
 27 28  1  0  0  0
 27 53  1  0  0  0
 28 29  2  0  0  0
 28 54  1  0  0  0
 29 55  1  0  0  0
M  END
> <s_m_entry_id>
28518

> <s_m_entry_name>
dock_pv.679

> <s_m_Source_Path>
/home/csk/Desktop/cluster/DUD-E-result/rock1

> <s_m_Source_File>
dock_pv.maegz

> <i_m_Source_File_Index>
679

> <chembl_id>
CHEMBL3947236

> <chembl_pref_name>
None

> <i_lp_mmshare_version>
53161

> <r_lp_tautomer_probability>
0.5

> <s_lp_Force_Field>
OPLS_2005

> <r_lp_Energy>
43.37202

> <b_lp_Chiralities_Consistent>
1

> <s_lp_Variant>
CHEMBL3231_lig700-2

> <s_i_glide_gridfile>
glide-grid_2etr

> <i_i_glide_lignum>
997

> <i_i_glide_rotatable_bonds>
8

> <r_i_docking_score>
-7.10363025304313

> <r_i_glide_ligand_efficiency>
-0.244952767346315

> <r_i_glide_ligand_efficiency_sa>
-0.752572507771683

> <r_i_glide_ligand_efficiency_ln>
-1.62655119542592

> <r_i_glide_gscore>
-7.10363025304313

> <r_i_glide_lipo>
-2.00513283418153

> <r_i_glide_hbond>
-0.683672094745013

> <r_i_glide_metal>
0

> <r_i_glide_rewards>
-1.68678716811475

> <r_i_glide_evdw>
-41.1620826721191

> <r_i_glide_ecoul>
-8.16131782531738

> <r_i_glide_erotb>
0.626824239267567

> <r_i_glide_esite>
-0.0725605878658433

> <r_i_glide_emodel>
-68.6952201337358

> <r_i_glide_energy>
-49.3234004974365

> <r_i_glide_einternal>
7.06393575668335

> <i_i_glide_confnum>
57

> <i_i_glide_posenum>
33

> <r_i_glide_eff_state_penalty>
0

> <s_user_duplicate_titles>
CHEMBL3231_lig700

> <i_f3d_flags>
0

> <s_m_subgroup_title>
dock_pv

> <s_m_subgroupid>
dock_pv

> <b_m_subgroup_collapsed>
1

$$$$
CHEMBL3231_lig1162
                    3D
 Schrodinger Suite 2021-1.
 14 15  0  0  1  0            999 V2000
   51.7431  101.0610   30.4547 Cl  0  0  0  0  0  0
   51.6292   97.8972   30.2003 Cl  0  0  0  0  0  0
   50.0438  101.0904   25.5690 N   0  0  0  0  0  0
   50.0422   98.7807   25.3344 N   0  0  0  0  0  0
   49.8004  100.0006   24.8110 N   0  0  0  0  0  0
   50.4862  100.5226   26.7175 C   0  0  0  0  0  0
   50.4748   99.1139   26.5806 C   0  0  0  0  0  0
   51.2709  100.3046   28.9731 C   0  0  0  0  0  0
   51.2431   98.9071   28.8507 C   0  0  0  0  0  0
   50.9009  101.1261   27.9096 C   0  0  0  0  0  0
   50.8598   98.2981   27.6535 C   0  0  0  0  0  0
   49.4338  100.0953   23.8693 H   0  0  0  0  0  0
   50.9121  102.2004   28.0175 H   0  0  0  0  0  0
   50.8435   97.2234   27.5686 H   0  0  0  0  0  0
  1  8  1  0  0  0
  2  9  1  0  0  0
  3  5  1  0  0  0
  3  6  2  0  0  0
  4  7  2  0  0  0
  4  5  1  0  0  0
  5 12  1  0  0  0
  6  7  1  0  0  0
  6 10  1  0  0  0
  7 11  1  0  0  0
  8 10  2  0  0  0
  8  9  1  0  0  0
  9 11  2  0  0  0
 10 13  1  0  0  0
 11 14  1  0  0  0
M  END
> <s_m_entry_id>
28519

> <s_m_entry_name>
dock_pv.680

> <s_m_Source_Path>
/home/csk/Desktop/cluster/DUD-E-result/rock1

> <s_m_Source_File>
dock_pv.maegz

> <i_m_Source_File_Index>
680

> <chembl_id>
CHEMBL1996923

> <chembl_pref_name>
None

> <i_lp_mmshare_version>
53161

> <r_lp_tautomer_probability>
0.0784092159078409

> <s_lp_Force_Field>
OPLS_2005

> <r_lp_Energy>
12.305813

> <b_lp_Chiralities_Consistent>
1

> <s_lp_Variant>
CHEMBL3231_lig1162-2

> <s_i_glide_gridfile>
glide-grid_2etr

> <i_i_glide_lignum>
1610

> <i_i_glide_rotatable_bonds>
0

> <r_i_docking_score>
-7.10314726570853

> <r_i_glide_ligand_efficiency>
-0.645740660518957

> <r_i_glide_ligand_efficiency_sa>
-1.43611437151736

> <r_i_glide_ligand_efficiency_ln>
-2.09045503037492

> <r_i_glide_gscore>
-7.10314726570853

> <r_i_glide_lipo>
-1.76715391682661

> <r_i_glide_hbond>
-0.32

> <r_i_glide_metal>
0

> <r_i_glide_rewards>
-3.41384721212121

> <r_i_glide_evdw>
-23.697732925415

> <r_i_glide_ecoul>
-2.78172993659973

> <r_i_glide_erotb>
0

> <r_i_glide_esite>
0

> <r_i_glide_emodel>
-37.574004773451

> <r_i_glide_energy>
-26.4794628620148

> <r_i_glide_einternal>
0

> <i_i_glide_confnum>
1

> <i_i_glide_posenum>
239

> <r_i_glide_eff_state_penalty>
0

> <s_user_duplicate_titles>
CHEMBL3231_lig1162

> <i_f3d_flags>
0

> <s_m_subgroup_title>
dock_pv

> <s_m_subgroupid>
dock_pv

> <b_m_subgroup_collapsed>
1

$$$$
CHEMBL3231_lig286
                    3D
 Schrodinger Suite 2021-1.
 56 60  0  0  1  0            999 V2000
   53.3361  100.8781   33.0182 C   0  0  0  0  0  0
   53.7752  102.1637   33.0338 N   0  0  0  0  0  0
   53.3519  102.9574   32.0296 C   0  0  0  0  0  0
   52.6324  102.5684   30.9569 N   0  0  0  0  0  0
   52.2814  101.2528   30.8834 C   0  0  0  0  0  0
   52.5732  100.3816   31.9484 C   0  0  0  0  0  0
   51.6435  100.8114   29.5937 C   0  0  0  0  0  0
   51.6428   99.4522   29.2229 C   0  0  0  0  0  0
   50.5559  101.4191   27.4756 C   0  0  0  0  0  0
   51.0842  101.7598   28.7176 C   0  0  0  0  0  0
   50.5795  100.0753   27.0884 C   0  0  0  0  0  0
   51.1128   99.1118   27.9725 C   0  0  0  0  0  0
   50.9713   97.9036   27.3142 N   0  0  0  0  0  0
   50.4210   98.0492   26.0915 N   0  0  0  0  0  0
   50.1872   99.3264   25.9384 C   0  0  0  0  0  0
   49.6432   99.8689   24.8124 N   0  0  0  0  0  0
   53.6433  104.3030   32.1382 N   0  0  0  0  0  0
   53.8077  100.0319   34.0138 N   0  0  0  0  0  0
   55.0047  100.2878   34.8423 C   0  0  0  0  0  0
   54.6671  100.8879   36.2246 C   0  0  0  0  0  0
   53.6311  100.0113   36.9562 C   0  0  0  0  0  0
   52.3919   99.8033   36.0616 C   0  0  2  0  0  0
   52.8960   99.1308   34.7429 C   0  0  0  0  0  0
   51.6662  101.0731   35.8930 N   0  0  0  0  0  0
   50.4451  101.2242   35.3533 C   0  0  0  0  0  0
   49.8001  102.5833   35.5028 C   0  0  0  0  0  0
   48.4036  102.6884   35.4344 C   0  0  0  0  0  0
   47.7725  103.9147   35.6115 C   0  0  0  0  0  0
   48.5380  105.0534   35.8511 C   0  0  0  0  0  0
   49.9295  104.9745   35.8965 C   0  0  0  0  0  0
   50.5600  103.7454   35.7177 C   0  0  0  0  0  0
   49.8421  100.3031   34.8110 O   0  0  0  0  0  0
   52.2954   99.3402   31.9197 H   0  0  0  0  0  0
   52.0686   98.6910   29.8589 H   0  0  0  0  0  0
   50.1491  102.1770   26.8209 H   0  0  0  0  0  0
   51.0746  102.8058   28.9885 H   0  0  0  0  0  0
   51.2417   96.9870   27.6437 H   0  0  0  0  0  0
   49.7988  100.8390   24.5779 H   0  0  0  0  0  0
   49.3011   99.3036   24.0483 H   0  0  0  0  0  0
   53.5118  104.8997   31.3350 H   0  0  0  0  0  0
   54.3112  104.5808   32.8389 H   0  0  0  0  0  0
   55.7120  100.9179   34.3039 H   0  0  0  0  0  0
   55.5226   99.3384   34.9815 H   0  0  0  0  0  0
   54.3199  101.9148   36.1080 H   0  0  0  0  0  0
   55.5800  100.9584   36.8179 H   0  0  0  0  0  0
   53.3481  100.4669   37.9063 H   0  0  0  0  0  0
   54.0772   99.0470   37.2088 H   0  0  0  0  0  0
   51.7142   99.1121   36.5658 H   0  0  0  0  0  0
   53.4275   98.2022   34.9616 H   0  0  0  0  0  0
   52.0518   98.8741   34.1028 H   0  0  0  0  0  0
   51.9515  101.8040   36.5235 H   0  0  0  0  0  0
   47.7900  101.8139   35.2640 H   0  0  0  0  0  0
   46.6936  103.9769   35.5731 H   0  0  0  0  0  0
   48.0495  106.0052   36.0029 H   0  0  0  0  0  0
   50.5192  105.8635   36.0700 H   0  0  0  0  0  0
   51.6413  103.7105   35.7488 H   0  0  0  0  0  0
  1 18  1  0  0  0
  1  6  1  0  0  0
  1  2  2  0  0  0
  2  3  1  0  0  0
  3 17  1  0  0  0
  3  4  2  0  0  0
  4  5  1  0  0  0
  5  7  1  0  0  0
  5  6  2  0  0  0
  6 33  1  0  0  0
  7  8  2  0  0  0
  7 10  1  0  0  0
  8 12  1  0  0  0
  8 34  1  0  0  0
  9 11  1  0  0  0
  9 10  2  0  0  0
  9 35  1  0  0  0
 10 36  1  0  0  0
 11 15  1  0  0  0
 11 12  2  0  0  0
 12 13  1  0  0  0
 13 14  1  0  0  0
 13 37  1  0  0  0
 14 15  2  0  0  0
 15 16  1  0  0  0
 16 38  1  0  0  0
 16 39  1  0  0  0
 17 40  1  0  0  0
 17 41  1  0  0  0
 18 19  1  0  0  0
 18 23  1  0  0  0
 19 20  1  0  0  0
 19 42  1  0  0  0
 19 43  1  0  0  0
 20 21  1  0  0  0
 20 44  1  0  0  0
 20 45  1  0  0  0
 21 22  1  0  0  0
 21 46  1  0  0  0
 21 47  1  0  0  0
 22 23  1  0  0  0
 22 24  1  0  0  0
 22 48  1  0  0  0
 23 49  1  0  0  0
 23 50  1  0  0  0
 24 25  1  0  0  0
 24 51  1  0  0  0
 25 26  1  0  0  0
 25 32  2  0  0  0
 26 27  2  0  0  0
 26 31  1  0  0  0
 27 28  1  0  0  0
 27 52  1  0  0  0
 28 29  2  0  0  0
 28 53  1  0  0  0
 29 30  1  0  0  0
 29 54  1  0  0  0
 30 31  2  0  0  0
 30 55  1  0  0  0
 31 56  1  0  0  0
M  END
> <s_m_entry_id>
28520

> <s_m_entry_name>
dock_pv.681

> <s_m_Source_Path>
/home/csk/Desktop/cluster/DUD-E-result/rock1

> <s_m_Source_File>
dock_pv.maegz

> <i_m_Source_File_Index>
681

> <chembl_id>
CHEMBL1765745

> <chembl_pref_name>
None

> <i_lp_mmshare_version>
53161

> <r_lp_tautomer_probability>
0.999999648617923

> <s_lp_Force_Field>
OPLS_2005

> <r_lp_Energy>
19.298832

> <b_lp_Chiralities_Consistent>
1

> <s_lp_Variant>
CHEMBL3231_lig286-1

> <s_i_glide_gridfile>
glide-grid_2etr

> <i_i_glide_lignum>
432

> <i_i_glide_rotatable_bonds>
5

> <r_i_docking_score>
-7.0996538400507

> <r_i_glide_ligand_efficiency>
-0.221864182501584

> <r_i_glide_ligand_efficiency_sa>
-0.704374872580434

> <r_i_glide_ligand_efficiency_ln>
-1.58980602404179

> <r_i_glide_gscore>
-7.0996538400507

> <r_i_glide_lipo>
-2.94555431056792

> <r_i_glide_hbond>
-0.14272161428134

> <r_i_glide_metal>
0

> <r_i_glide_rewards>
-1.14808469558529

> <r_i_glide_evdw>
-53.3264503479004

> <r_i_glide_ecoul>
-4.13078260421753

> <r_i_glide_erotb>
0.540952643869505

> <r_i_glide_esite>
-0.118305955458001

> <r_i_glide_emodel>
-76.1316446629435

> <r_i_glide_energy>
-57.4572329521179

> <r_i_glide_einternal>
8.82512664794922

> <i_i_glide_confnum>
78

> <i_i_glide_posenum>
155

> <r_i_glide_eff_state_penalty>
0

> <s_user_duplicate_titles>
CHEMBL3231_lig286

> <i_f3d_flags>
0

> <s_m_subgroup_title>
dock_pv

> <s_m_subgroupid>
dock_pv

> <b_m_subgroup_collapsed>
1

$$$$
CHEMBL3231_lig1613
                    3D
 Schrodinger Suite 2021-1.
 29 31  0  0  1  0            999 V2000
   50.1565   98.6823   25.4361 N   0  0  0  0  0  0
   49.6430   99.7437   24.8111 N   0  0  0  0  0  0
   50.2754  100.5132   26.7687 C   0  0  0  0  0  0
   50.5625   99.1450   26.6017 C   0  0  0  0  0  0
   51.8657  100.6277   28.6992 C   0  0  1  0  0  0
   50.6695  101.3149   27.9952 C   0  0  0  0  0  0
   52.2830  101.4196   29.9516 C   0  0  0  0  0  0
   51.2884   98.2970   27.6323 C   0  0  0  0  0  0
   51.6420   99.1058   28.9126 C   0  0  0  0  0  0
   49.6865  100.8744   25.5734 C   0  0  0  0  0  0
   52.0475  100.9376   31.2475 C   0  0  0  0  0  0
   52.9422  102.6457   29.7939 C   0  0  0  0  0  0
   52.4515  101.6753   32.3579 C   0  0  0  0  0  0
   53.3519  103.3815   30.9016 C   0  0  0  0  0  0
   53.1013  102.8941   32.1803 C   0  0  0  0  0  0
   49.2540   99.6938   23.8735 H   0  0  0  0  0  0
   52.7149  100.7435   28.0215 H   0  0  0  0  0  0
   50.9280  102.3337   27.7060 H   0  0  0  0  0  0
   49.8224  101.4020   28.6764 H   0  0  0  0  0  0
   50.6867   97.4323   27.9121 H   0  0  0  0  0  0
   52.2003   97.9036   27.1875 H   0  0  0  0  0  0
   50.8430   98.9526   29.6331 H   0  0  0  0  0  0
   52.5412   98.6632   29.3440 H   0  0  0  0  0  0
   49.2953  101.8136   25.2110 H   0  0  0  0  0  0
   51.5544   99.9929   31.4157 H   0  0  0  0  0  0
   53.1515  103.0327   28.8109 H   0  0  0  0  0  0
   52.2718  101.2972   33.3536 H   0  0  0  0  0  0
   53.8730  104.3198   30.7703 H   0  0  0  0  0  0
   53.4264  103.4618   33.0398 H   0  0  0  0  0  0
  1  4  2  0  0  0
  1  2  1  0  0  0
  2 16  1  0  0  0
  2 10  1  0  0  0
  3 10  2  0  0  0
  3  4  1  0  0  0
  3  6  1  0  0  0
  4  8  1  0  0  0
  5  6  1  0  0  0
  5  7  1  0  0  0
  5  9  1  0  0  0
  5 17  1  0  0  0
  6 18  1  0  0  0
  6 19  1  0  0  0
  7 11  2  0  0  0
  7 12  1  0  0  0
  8  9  1  0  0  0
  8 20  1  0  0  0
  8 21  1  0  0  0
  9 22  1  0  0  0
  9 23  1  0  0  0
 10 24  1  0  0  0
 11 13  1  0  0  0
 11 25  1  0  0  0
 12 14  2  0  0  0
 12 26  1  0  0  0
 13 15  2  0  0  0
 13 27  1  0  0  0
 14 15  1  0  0  0
 14 28  1  0  0  0
 15 29  1  0  0  0
M  END
> <s_m_entry_id>
28521

> <s_m_entry_name>
dock_pv.682

> <s_m_Source_Path>
/home/csk/Desktop/cluster/DUD-E-result/rock1

> <s_m_Source_File>
dock_pv.maegz

> <i_m_Source_File_Index>
682

> <chembl_id>
CHEMBL2000879

> <chembl_pref_name>
None

> <i_lp_mmshare_version>
53161

> <r_lp_tautomer_probability>
0.5

> <s_lp_Force_Field>
OPLS_2005

> <r_lp_Energy>
11.022359

> <b_lp_Chiralities_Consistent>
1

> <s_lp_Variant>
CHEMBL3231_lig1613-4

> <s_i_glide_gridfile>
glide-grid_2etr

> <i_i_glide_lignum>
2296

> <i_i_glide_rotatable_bonds>
1

> <r_i_docking_score>
-7.09910996690282

> <r_i_glide_ligand_efficiency>
-0.473273997793522

> <r_i_glide_ligand_efficiency_sa>
-1.16719404677143

> <r_i_glide_ligand_efficiency_ln>
-1.91451290621487

> <r_i_glide_gscore>
-7.09910996690282

> <r_i_glide_lipo>
-1.91721433917942

> <r_i_glide_hbond>
-0.32

> <r_i_glide_metal>
0

> <r_i_glide_rewards>
-3.27729322727273

> <r_i_glide_evdw>
-28.7866840362549

> <r_i_glide_ecoul>
-3.73050355911255

> <r_i_glide_erotb>
0.414307335228956

> <r_i_glide_esite>
0

> <r_i_glide_emodel>
-45.9136648518059

> <r_i_glide_energy>
-32.5171875953674

> <r_i_glide_einternal>
0.526291608810425

> <i_i_glide_confnum>
3

> <i_i_glide_posenum>
29

> <r_i_glide_eff_state_penalty>
0

> <s_user_duplicate_titles>
CHEMBL3231_lig1613,CHEMBL3231_lig1613

> <i_f3d_flags>
0

> <s_m_subgroup_title>
dock_pv

> <s_m_subgroupid>
dock_pv

> <b_m_subgroup_collapsed>
1

$$$$
CHEMBL3231_lig351
                    3D
 Schrodinger Suite 2021-1.
 47 50  0  0  1  0            999 V2000
   51.3694   99.4421   29.0899 C   0  0  0  0  0  0
   51.4669   98.4632   30.0956 C   0  0  0  0  0  0
   51.9290   98.7451   31.3771 C   0  0  0  0  0  0
   51.7430  100.7655   29.3791 C   0  0  0  0  0  0
   52.1745  101.0542   30.6790 C   0  0  0  0  0  0
   52.2746  100.0585   31.6891 C   0  0  0  0  0  0
   52.7185  100.7114   32.8793 C   0  0  0  0  0  0
   52.8691  102.0630   32.5908 C   0  0  0  0  0  0
   52.5521  102.2434   31.2639 N   0  0  0  0  0  0
   53.1329  103.1618   33.4738 C   0  0  0  0  0  0
   53.6660  102.8151   34.6596 N   0  0  0  0  0  0
   52.7818  104.3026   33.1771 O   0  0  0  0  0  0
   53.8396  103.7199   35.8002 C   0  0  0  0  0  0
   52.5644  104.3698   36.3495 C   0  0  0  0  0  0
   52.6507  105.5960   37.0172 C   0  0  0  0  0  0
   51.4951  106.2456   37.4512 C   0  0  0  0  0  0
   50.2421  105.6820   37.2093 C   0  0  0  0  0  0
   50.1322  104.4501   36.5429 C   0  0  0  0  0  0
   51.2991  103.8042   36.1361 C   0  0  0  0  0  0
   48.9406  103.8249   36.2332 O   0  0  0  0  0  0
   47.7227  104.4855   36.5388 C   0  0  0  0  0  0
   50.8674   99.0716   27.7282 C   0  0  0  0  0  0
   50.4427  100.0753   26.9002 N   0  0  0  0  0  0
   50.0429   99.7147   25.6557 C   0  0  0  0  0  0
   50.0411   98.4594   25.1559 N   0  0  0  0  0  0
   50.4424   97.4819   25.9976 C   0  0  0  0  0  0
   50.8495   97.7412   27.2955 C   0  0  0  0  0  0
   49.5676  100.7024   24.8118 N   0  0  0  0  0  0
   51.1742   97.4400   29.9121 H   0  0  0  0  0  0
   52.0024   97.9613   32.1173 H   0  0  0  0  0  0
   51.6824  101.5416   28.6297 H   0  0  0  0  0  0
   52.8727  100.2537   33.8443 H   0  0  0  0  0  0
   52.5843  103.1587   30.8361 H   0  0  0  0  0  0
   54.0999  101.9068   34.7302 H   0  0  0  0  0  0
   54.5578  104.4929   35.5170 H   0  0  0  0  0  0
   54.3064  103.1638   36.6142 H   0  0  0  0  0  0
   53.6129  106.0566   37.1885 H   0  0  0  0  0  0
   51.5717  107.1954   37.9613 H   0  0  0  0  0  0
   49.3670  106.2191   37.5411 H   0  0  0  0  0  0
   51.2067  102.8613   35.6154 H   0  0  0  0  0  0
   46.8800  103.8647   36.2352 H   0  0  0  0  0  0
   47.6425  104.6620   37.6110 H   0  0  0  0  0  0
   47.6434  105.4383   36.0130 H   0  0  0  0  0  0
   50.4469   96.4714   25.6119 H   0  0  0  0  0  0
   51.1963   96.9266   27.9082 H   0  0  0  0  0  0
   49.5122  101.6474   25.1528 H   0  0  0  0  0  0
   49.2365  100.4421   23.8868 H   0  0  0  0  0  0
  1  2  2  0  0  0
  1  4  1  0  0  0
  1 22  1  0  0  0
  2  3  1  0  0  0
  2 29  1  0  0  0
  3  6  2  0  0  0
  3 30  1  0  0  0
  4  5  2  0  0  0
  4 31  1  0  0  0
  5  9  1  0  0  0
  5  6  1  0  0  0
  6  7  1  0  0  0
  7  8  2  0  0  0
  7 32  1  0  0  0
  8  9  1  0  0  0
  8 10  1  0  0  0
  9 33  1  0  0  0
 10 11  1  0  0  0
 10 12  2  0  0  0
 11 13  1  0  0  0
 11 34  1  0  0  0
 13 14  1  0  0  0
 13 35  1  0  0  0
 13 36  1  0  0  0
 14 15  2  0  0  0
 14 19  1  0  0  0
 15 16  1  0  0  0
 15 37  1  0  0  0
 16 17  2  0  0  0
 16 38  1  0  0  0
 17 18  1  0  0  0
 17 39  1  0  0  0
 18 19  2  0  0  0
 18 20  1  0  0  0
 19 40  1  0  0  0
 20 21  1  0  0  0
 21 41  1  0  0  0
 21 42  1  0  0  0
 21 43  1  0  0  0
 22 23  2  0  0  0
 22 27  1  0  0  0
 23 24  1  0  0  0
 24 25  2  0  0  0
 24 28  1  0  0  0
 25 26  1  0  0  0
 26 27  2  0  0  0
 26 44  1  0  0  0
 27 45  1  0  0  0
 28 46  1  0  0  0
 28 47  1  0  0  0
M  END
> <s_m_entry_id>
28522

> <s_m_entry_name>
dock_pv.683

> <s_m_Source_Path>
/home/csk/Desktop/cluster/DUD-E-result/rock1

> <s_m_Source_File>
dock_pv.maegz

> <i_m_Source_File_Index>
683

> <chembl_id>
CHEMBL1923053

> <chembl_pref_name>
None

> <i_lp_mmshare_version>
53161

> <r_lp_tautomer_probability>
0.999999987636

> <s_lp_Force_Field>
OPLS_2005

> <r_lp_Energy>
9.198133

> <b_lp_Chiralities_Consistent>
1

> <s_lp_Variant>
CHEMBL3231_lig351-1

> <s_i_glide_gridfile>
glide-grid_2etr

> <i_i_glide_lignum>
499

> <i_i_glide_rotatable_bonds>
6

> <r_i_docking_score>
-7.09896487096495

> <r_i_glide_ligand_efficiency>
-0.25353445967732

> <r_i_glide_ligand_efficiency_sa>
-0.769879943391472

> <r_i_glide_ligand_efficiency_ln>
-1.63864952688438

> <r_i_glide_gscore>
-7.09896487096495

> <r_i_glide_lipo>
-2.03303744788796

> <r_i_glide_hbond>
-0.49563229510137

> <r_i_glide_metal>
0

> <r_i_glide_rewards>
-2.52466278285168

> <r_i_glide_evdw>
-42.0747299194336

> <r_i_glide_ecoul>
-2.57116222381592

> <r_i_glide_erotb>
0.485082055426931

> <r_i_glide_esite>
-0.0413035710068137

> <r_i_glide_emodel>
-63.3425474710308

> <r_i_glide_energy>
-44.6458921432495

> <r_i_glide_einternal>
3.41003513336182

> <i_i_glide_confnum>
21

> <i_i_glide_posenum>
321

> <r_i_glide_eff_state_penalty>
0

> <s_user_duplicate_titles>
CHEMBL3231_lig351

> <i_f3d_flags>
0

> <s_m_subgroup_title>
dock_pv

> <s_m_subgroupid>
dock_pv

> <b_m_subgroup_collapsed>
1

$$$$
CHEMBL3231_lig530
                    3D
 Schrodinger Suite 2021-1.
 69 73  0  0  1  0            999 V2000
   54.7280  100.7241   32.5452 C   0  0  2  0  0  0
   53.5823   99.8140   32.0433 C   0  0  0  0  0  0
   53.5685   98.5129   32.4284 C   0  0  0  0  0  0
   54.5304   97.9928   33.2365 N   0  0  0  0  0  0
   55.5554   98.6717   33.7919 C   0  0  0  0  0  0
   55.7361   99.9141   33.2864 N   0  0  0  0  0  0
   56.1480   98.2639   34.7845 O   0  0  0  0  0  0
   52.5091   97.4827   32.0769 C   0  0  0  0  0  0
   52.6057  100.4140   31.1476 C   0  0  0  0  0  0
   52.4313   99.7247   29.9979 N   0  0  0  0  0  0
   52.0445  101.4758   31.4170 O   0  0  0  0  0  0
   51.6730  100.0530   28.8563 C   0  0  0  0  0  0
   51.4330   99.0115   27.9536 C   0  0  0  0  0  0
   50.5127  101.6377   27.4059 C   0  0  0  0  0  0
   51.2162  101.3497   28.5735 C   0  0  0  0  0  0
   50.2835  100.6065   26.4888 C   0  0  0  0  0  0
   50.7447   99.2831   26.7600 C   0  0  0  0  0  0
   50.3386   98.5439   25.6195 C   0  0  0  0  0  0
   49.7020   99.4555   24.8103 N   0  0  0  0  0  0
   49.6433  100.7028   25.2860 N   0  0  0  0  0  0
   54.3536  102.0159   33.2840 C   0  0  0  0  0  0
   53.5191  102.0007   34.4097 C   0  0  0  0  0  0
   53.2303  103.1806   35.1140 C   0  0  0  0  0  0
   53.8237  104.3813   34.6873 C   0  0  0  0  0  0
   54.6122  104.4098   33.5449 C   0  0  0  0  0  0
   54.8664  103.2388   32.8385 C   0  0  0  0  0  0
   53.6709  105.5287   35.3844 F   0  0  0  0  0  0
   52.3524  103.1120   36.3727 C   0  0  0  0  0  0
   51.2315  104.1661   36.4261 C   0  0  0  0  0  0
   51.5161  105.3060   37.0803 N   0  0  0  0  0  0
   50.1499  103.9456   35.8834 O   0  0  0  0  0  0
   50.6688  106.4908   37.2238 C   0  0  0  0  0  0
   51.2874  107.7543   36.5854 C   0  0  0  0  0  0
   50.7513  108.3008   35.3885 C   0  0  0  0  0  0
   51.3481  109.4305   34.8149 C   0  0  0  0  0  0
   52.4407  110.0408   35.4138 C   0  0  0  0  0  0
   52.9460  109.5387   36.6032 C   0  0  0  0  0  0
   52.3851  108.4066   37.2101 C   0  0  0  0  0  0
   49.5338  107.6924   34.6855 C   0  0  0  0  0  0
   52.9890  107.9294   38.5433 C   0  0  0  0  0  0
   48.4628  107.7903   35.4720 F   0  0  0  0  0  0
   49.2429  108.2991   33.5317 F   0  0  0  0  0  0
   49.7567  106.4113   34.4111 F   0  0  0  0  0  0
   52.0605  107.9313   39.4982 F   0  0  0  0  0  0
   53.9840  108.7100   38.9692 F   0  0  0  0  0  0
   53.4877  106.6991   38.4273 F   0  0  0  0  0  0
   55.2446  101.0683   31.6470 H   0  0  0  0  0  0
   54.4982   97.0213   33.5006 H   0  0  0  0  0  0
   56.5601  100.3882   33.6244 H   0  0  0  0  0  0
   52.7682   96.9810   31.1456 H   0  0  0  0  0  0
   52.4431   96.7034   32.8442 H   0  0  0  0  0  0
   51.5238   97.9314   31.9679 H   0  0  0  0  0  0
   52.8967   98.8311   29.9605 H   0  0  0  0  0  0
   51.7890   98.0122   28.1568 H   0  0  0  0  0  0
   50.1695  102.6432   27.2042 H   0  0  0  0  0  0
   51.4197  102.1708   29.2420 H   0  0  0  0  0  0
   50.4404   97.5102   25.3255 H   0  0  0  0  0  0
   49.3040   99.2453   23.9032 H   0  0  0  0  0  0
   53.1085  101.0589   34.7437 H   0  0  0  0  0  0
   55.0364  105.3473   33.2111 H   0  0  0  0  0  0
   55.5013  103.2890   31.9639 H   0  0  0  0  0  0
   53.0049  103.2248   37.2394 H   0  0  0  0  0  0
   51.8976  102.1257   36.4703 H   0  0  0  0  0  0
   52.4457  105.3948   37.4658 H   0  0  0  0  0  0
   50.4986  106.6695   38.2808 H   0  0  0  0  0  0
   49.6671  106.2848   36.8507 H   0  0  0  0  0  0
   50.9827  109.8445   33.8864 H   0  0  0  0  0  0
   52.8954  110.9084   34.9564 H   0  0  0  0  0  0
   53.7910  110.0461   37.0473 H   0  0  0  0  0  0
  1  2  1  0  0  0
  1  6  1  0  0  0
  1 21  1  0  0  0
  1 47  1  0  0  0
  2  3  2  0  0  0
  2  9  1  0  0  0
  3  4  1  0  0  0
  3  8  1  0  0  0
  4  5  1  0  0  0
  4 48  1  0  0  0
  5  6  1  0  0  0
  5  7  2  0  0  0
  6 49  1  0  0  0
  8 50  1  0  0  0
  8 51  1  0  0  0
  8 52  1  0  0  0
  9 10  1  0  0  0
  9 11  2  0  0  0
 10 53  1  0  0  0
 10 12  1  0  0  0
 12 15  1  0  0  0
 12 13  2  0  0  0
 13 54  1  0  0  0
 13 17  1  0  0  0
 14 16  1  0  0  0
 14 55  1  0  0  0
 14 15  2  0  0  0
 15 56  1  0  0  0
 16 20  2  0  0  0
 16 17  1  0  0  0
 17 18  2  0  0  0
 18 19  1  0  0  0
 18 57  1  0  0  0
 19 58  1  0  0  0
 19 20  1  0  0  0
 21 22  2  0  0  0
 21 26  1  0  0  0
 22 23  1  0  0  0
 22 59  1  0  0  0
 23 24  2  0  0  0
 23 28  1  0  0  0
 24 25  1  0  0  0
 24 27  1  0  0  0
 25 26  2  0  0  0
 25 60  1  0  0  0
 26 61  1  0  0  0
 28 29  1  0  0  0
 28 62  1  0  0  0
 28 63  1  0  0  0
 29 30  1  0  0  0
 29 31  2  0  0  0
 30 32  1  0  0  0
 30 64  1  0  0  0
 32 33  1  0  0  0
 32 65  1  0  0  0
 32 66  1  0  0  0
 33 34  2  0  0  0
 33 38  1  0  0  0
 34 35  1  0  0  0
 34 39  1  0  0  0
 35 36  2  0  0  0
 35 67  1  0  0  0
 36 37  1  0  0  0
 36 68  1  0  0  0
 37 38  2  0  0  0
 37 69  1  0  0  0
 38 40  1  0  0  0
 39 41  1  0  0  0
 39 42  1  0  0  0
 39 43  1  0  0  0
 40 44  1  0  0  0
 40 45  1  0  0  0
 40 46  1  0  0  0
M  END
> <s_m_entry_id>
28523

> <s_m_entry_name>
dock_pv.684

> <s_m_Source_Path>
/home/csk/Desktop/cluster/DUD-E-result/rock1

> <s_m_Source_File>
dock_pv.maegz

> <i_m_Source_File_Index>
684

> <chembl_id>
CHEMBL3809604

> <chembl_pref_name>
None

> <i_lp_mmshare_version>
53161

> <r_lp_tautomer_probability>
0.019607843137214

> <s_lp_Force_Field>
OPLS_2005

> <r_lp_Energy>
68.264501

> <b_lp_Chiralities_Consistent>
1

> <s_lp_Variant>
CHEMBL3231_lig530-3

> <s_i_glide_gridfile>
glide-grid_2etr

> <i_i_glide_lignum>
799

> <i_i_glide_rotatable_bonds>
11

> <r_i_docking_score>
-7.09711054748329

> <r_i_glide_ligand_efficiency>
-0.154285011901811

> <r_i_glide_ligand_efficiency_sa>
-0.552810582718948

> <r_i_glide_ligand_efficiency_ln>
-1.46979449595151

> <r_i_glide_gscore>
-7.09711054748329

> <r_i_glide_lipo>
-1.97364534077333

> <r_i_glide_hbond>
-0.309013719647063

> <r_i_glide_metal>
0

> <r_i_glide_rewards>
-1.2870491429682

> <r_i_glide_evdw>
-56.8215942382812

> <r_i_glide_ecoul>
-4.34445190429688

> <r_i_glide_erotb>
0.304297676808432

> <r_i_glide_esite>
-0.33895252334453

> <r_i_glide_emodel>
-82.8565221832703

> <r_i_glide_energy>
-61.1660461425781

> <r_i_glide_einternal>
10.1395835876465

> <i_i_glide_confnum>
37

> <i_i_glide_posenum>
253

> <r_i_glide_eff_state_penalty>
0

> <s_user_duplicate_titles>
CHEMBL3231_lig530

> <i_f3d_flags>
0

> <s_m_subgroup_title>
dock_pv

> <s_m_subgroupid>
dock_pv

> <b_m_subgroup_collapsed>
1

$$$$
CHEMBL3231_lig853
                    3D
 Schrodinger Suite 2021-1.
 57 59  0  0  1  0            999 V2000
   53.4558  103.5117   34.7541 C   0  0  0  0  0  0
   52.4268  104.1529   33.7984 C   0  0  1  0  0  0
   52.2682  103.4256   32.5215 N   0  0  0  0  0  0
   51.9728  102.1197   32.3311 C   0  0  0  0  0  0
   51.8293  101.3321   33.2644 O   0  0  0  0  0  0
   51.7592  101.6666   30.8958 C   0  0  0  0  0  0
   51.2774  102.5723   29.9384 C   0  0  0  0  0  0
   50.9406  102.1624   28.6511 C   0  0  0  0  0  0
   50.4429  103.0968   27.8119 F   0  0  0  0  0  0
   51.0947  100.8235   28.2557 C   0  0  0  0  0  0
   51.6443   99.9404   29.1890 C   0  0  0  0  0  0
   51.9561  100.3221   30.5069 C   0  0  0  0  0  0
   52.4185   99.4111   31.4427 O   0  0  0  0  0  0
   52.6496   98.0466   31.0873 C   0  0  0  0  0  0
   52.9703   97.2008   32.3338 C   0  0  0  0  0  0
   54.0114   97.7553   33.2073 N   0  0  0  0  0  0
   54.2054   96.8879   34.3664 C   0  0  0  0  0  0
   55.2844   97.9302   32.5135 C   0  0  0  0  0  0
   50.6566  100.3182   26.8967 C   0  0  0  0  0  0
   50.2885  101.1011   25.8073 C   0  0  0  0  0  0
   49.9183  100.2495   24.8107 N   0  0  0  0  0  0
   50.0429   98.9753   25.1578 N   0  0  0  0  0  0
   50.4891   98.9899   26.3964 C   0  0  0  0  0  0
   50.7325   97.6413   27.0434 C   0  0  0  0  0  0
   51.1205  104.5165   34.5300 C   0  0  0  0  0  0
   50.8416  105.8601   34.8103 C   0  0  0  0  0  0
   49.6712  106.2154   35.4774 C   0  0  0  0  0  0
   48.7812  105.2276   35.8847 C   0  0  0  0  0  0
   49.0536  103.8852   35.6357 C   0  0  0  0  0  0
   50.2231  103.5323   34.9676 C   0  0  0  0  0  0
   53.6998  104.1835   35.5766 H   0  0  0  0  0  0
   53.0846  102.5843   35.1909 H   0  0  0  0  0  0
   54.3863  103.2823   34.2348 H   0  0  0  0  0  0
   52.8771  105.1011   33.4865 H   0  0  0  0  0  0
   52.4656  103.9714   31.6983 H   0  0  0  0  0  0
   51.1193  103.6108   30.1833 H   0  0  0  0  0  0
   51.8165   98.9257   28.8934 H   0  0  0  0  0  0
   51.7584   97.6163   30.6277 H   0  0  0  0  0  0
   53.4602   97.9721   30.3609 H   0  0  0  0  0  0
   52.0486   97.1050   32.9049 H   0  0  0  0  0  0
   53.2469   96.1940   32.0194 H   0  0  0  0  0  0
   54.9382   97.3165   35.0513 H   0  0  0  0  0  0
   53.2764   96.7715   34.9240 H   0  0  0  0  0  0
   54.5541   95.8948   34.0756 H   0  0  0  0  0  0
   56.0523   98.3017   33.1952 H   0  0  0  0  0  0
   55.6450   96.9943   32.0828 H   0  0  0  0  0  0
   55.2028   98.6619   31.7079 H   0  0  0  0  0  0
   50.2323  102.1690   25.6564 H   0  0  0  0  0  0
   49.5741  100.5228   23.8968 H   0  0  0  0  0  0
   51.7919   97.5049   27.2469 H   0  0  0  0  0  0
   50.1961   97.5121   27.9829 H   0  0  0  0  0  0
   50.4344   96.8056   26.4077 H   0  0  0  0  0  0
   51.5256  106.6372   34.5012 H   0  0  0  0  0  0
   49.4569  107.2553   35.6773 H   0  0  0  0  0  0
   47.8758  105.4988   36.4048 H   0  0  0  0  0  0
   48.3653  103.1194   35.9648 H   0  0  0  0  0  0
   50.4207  102.4864   34.8089 H   0  0  0  0  0  0
  1  2  1  0  0  0
  1 31  1  0  0  0
  1 32  1  0  0  0
  1 33  1  0  0  0
  2  3  1  0  0  0
  2 25  1  0  0  0
  2 34  1  0  0  0
  3  4  1  0  0  0
  3 35  1  0  0  0
  4  5  2  0  0  0
  4  6  1  0  0  0
  6  7  2  0  0  0
  6 12  1  0  0  0
  7  8  1  0  0  0
  7 36  1  0  0  0
  8  9  1  0  0  0
  8 10  2  0  0  0
 10 11  1  0  0  0
 10 19  1  0  0  0
 11 12  2  0  0  0
 11 37  1  0  0  0
 12 13  1  0  0  0
 13 14  1  0  0  0
 14 15  1  0  0  0
 14 38  1  0  0  0
 14 39  1  0  0  0
 15 16  1  0  0  0
 15 40  1  0  0  0
 15 41  1  0  0  0
 16 17  1  0  0  0
 16 18  1  0  0  0
 17 42  1  0  0  0
 17 43  1  0  0  0
 17 44  1  0  0  0
 18 45  1  0  0  0
 18 46  1  0  0  0
 18 47  1  0  0  0
 19 20  2  0  0  0
 19 23  1  0  0  0
 20 21  1  0  0  0
 20 48  1  0  0  0
 21 22  1  0  0  0
 21 49  1  0  0  0
 22 23  2  0  0  0
 23 24  1  0  0  0
 24 50  1  0  0  0
 24 51  1  0  0  0
 24 52  1  0  0  0
 25 26  2  0  0  0
 25 30  1  0  0  0
 26 27  1  0  0  0
 26 53  1  0  0  0
 27 28  2  0  0  0
 27 54  1  0  0  0
 28 29  1  0  0  0
 28 55  1  0  0  0
 29 30  2  0  0  0
 29 56  1  0  0  0
 30 57  1  0  0  0
M  END
> <s_m_entry_id>
28524

> <s_m_entry_name>
dock_pv.685

> <s_m_Source_Path>
/home/csk/Desktop/cluster/DUD-E-result/rock1

> <s_m_Source_File>
dock_pv.maegz

> <i_m_Source_File_Index>
685

> <chembl_id>
CHEMBL4107027

> <chembl_pref_name>
None

> <i_lp_mmshare_version>
53161

> <r_lp_tautomer_probability>
0.5

> <s_lp_Force_Field>
OPLS_2005

> <r_lp_Energy>
29.480296

> <b_lp_Chiralities_Consistent>
1

> <s_lp_Variant>
CHEMBL3231_lig853-1

> <s_i_glide_gridfile>
glide-grid_2etr

> <i_i_glide_lignum>
1204

> <i_i_glide_rotatable_bonds>
9

> <r_i_docking_score>
-7.09705205722425

> <r_i_glide_ligand_efficiency>
-0.236568401907475

> <r_i_glide_ligand_efficiency_sa>
-0.735073027455087

> <r_i_glide_ligand_efficiency_ln>
-1.61252755597705

> <r_i_glide_gscore>
-7.09705205722425

> <r_i_glide_lipo>
-2.60199454476657

> <r_i_glide_hbond>
-0.241322039766295

> <r_i_glide_metal>
0

> <r_i_glide_rewards>
-1.9483575059359

> <r_i_glide_evdw>
-45.4121131896973

> <r_i_glide_ecoul>
-5.23858785629272

> <r_i_glide_erotb>
0.818436207263885

> <r_i_glide_esite>
-0.0674203360905962

> <r_i_glide_emodel>
-71.3255593723235

> <r_i_glide_energy>
-50.65070104599

> <r_i_glide_einternal>
3.47382235527039

> <i_i_glide_confnum>
77

> <i_i_glide_posenum>
86

> <r_i_glide_eff_state_penalty>
0

> <s_user_duplicate_titles>
CHEMBL3231_lig853

> <i_f3d_flags>
0

> <s_m_subgroup_title>
dock_pv

> <s_m_subgroupid>
dock_pv

> <b_m_subgroup_collapsed>
1

$$$$
CHEMBL3231_lig1760
                    3D
 Schrodinger Suite 2021-1.
 30 32  0  0  1  0            999 V2000
   51.3565  100.9283   28.7700 C   0  0  0  0  0  0
   50.8550  101.9099   27.9155 C   0  0  0  0  0  0
   50.4005  101.6198   26.6340 C   0  0  0  0  0  0
   51.3647   99.5848   28.3742 C   0  0  0  0  0  0
   50.8357   99.2513   27.1142 C   0  0  0  0  0  0
   50.3673  100.2779   26.2590 C   0  0  0  0  0  0
   49.9219   99.6395   25.1161 N   0  0  0  0  0  0
   50.0471   98.3045   25.2109 N   0  0  0  0  0  0
   50.6048   98.0577   26.3687 C   0  0  0  0  0  0
   51.8782  101.3539   30.0966 C   0  0  0  0  0  0
   52.9104  100.9448   30.9109 C   0  0  0  0  0  0
   52.8667  101.7838   32.0242 C   0  0  0  0  0  0
   51.8672  102.6357   31.9355 N   0  0  0  0  0  0
   51.2452  102.3866   30.7122 O   0  0  0  0  0  0
   53.7783  101.7935   33.2363 C   0  0  0  0  0  0
   54.9511  102.7902   33.1349 C   0  0  0  0  0  0
   54.5345  104.2694   33.1853 C   0  0  0  0  0  0
   50.8426  102.9405   28.2398 H   0  0  0  0  0  0
   50.0431  102.4116   26.0000 H   0  0  0  0  0  0
   51.7423   98.8173   29.0335 H   0  0  0  0  0  0
   49.5174  100.0536   24.2866 H   0  0  0  0  0  0
   50.8334   97.0487   26.6707 H   0  0  0  0  0  0
   53.6190  100.1537   30.7207 H   0  0  0  0  0  0
   54.1781  100.7912   33.3934 H   0  0  0  0  0  0
   53.2075  102.0076   34.1407 H   0  0  0  0  0  0
   55.5258  102.6005   32.2269 H   0  0  0  0  0  0
   55.6355  102.6010   33.9621 H   0  0  0  0  0  0
   55.4092  104.9176   33.2119 H   0  0  0  0  0  0
   53.9345  104.4883   34.0696 H   0  0  0  0  0  0
   53.9562  104.5575   32.3072 H   0  0  0  0  0  0
  1  2  2  0  0  0
  1  4  1  0  0  0
  1 10  1  0  0  0
  2  3  1  0  0  0
  2 18  1  0  0  0
  3  6  2  0  0  0
  3 19  1  0  0  0
  4  5  2  0  0  0
  4 20  1  0  0  0
  5  9  1  0  0  0
  5  6  1  0  0  0
  6  7  1  0  0  0
  7  8  1  0  0  0
  7 21  1  0  0  0
  8  9  2  0  0  0
  9 22  1  0  0  0
 10 14  1  0  0  0
 10 11  2  0  0  0
 11 12  1  0  0  0
 11 23  1  0  0  0
 12 13  2  0  0  0
 12 15  1  0  0  0
 13 14  1  0  0  0
 15 16  1  0  0  0
 15 24  1  0  0  0
 15 25  1  0  0  0
 16 17  1  0  0  0
 16 26  1  0  0  0
 16 27  1  0  0  0
 17 28  1  0  0  0
 17 29  1  0  0  0
 17 30  1  0  0  0
M  END
> <s_m_entry_id>
28525

> <s_m_entry_name>
dock_pv.686

> <s_m_Source_Path>
/home/csk/Desktop/cluster/DUD-E-result/rock1

> <s_m_Source_File>
dock_pv.maegz

> <i_m_Source_File_Index>
686

> <chembl_id>
CHEMBL1682359

> <chembl_pref_name>
None

> <i_lp_mmshare_version>
53161

> <r_lp_tautomer_probability>
0.980392156862745

> <s_lp_Force_Field>
OPLS_2005

> <r_lp_Energy>
3.18069

> <b_lp_Chiralities_Consistent>
1

> <s_lp_Variant>
CHEMBL3231_lig1760-1

> <s_i_glide_gridfile>
glide-grid_2etr

> <i_i_glide_lignum>
2512

> <i_i_glide_rotatable_bonds>
3

> <r_i_docking_score>
-7.09644852175756

> <r_i_glide_ligand_efficiency>
-0.41743814833868

> <r_i_glide_ligand_efficiency_sa>
-1.07335102504803

> <r_i_glide_ligand_efficiency_ln>
-1.85130538918772

> <r_i_glide_gscore>
-7.09644852175756

> <r_i_glide_lipo>
-1.98214339381938

> <r_i_glide_hbond>
-0.30995277290525

> <r_i_glide_metal>
0

> <r_i_glide_rewards>
-3.1045785

> <r_i_glide_evdw>
-30.1661491394043

> <r_i_glide_ecoul>
-3.85499024391174

> <r_i_glide_erotb>
0.461181946920238

> <r_i_glide_esite>
-0.0743998083961942

> <r_i_glide_emodel>
-48.6993732995176

> <r_i_glide_energy>
-34.021139383316

> <r_i_glide_einternal>
1.23157179355621

> <i_i_glide_confnum>
6

> <i_i_glide_posenum>
316

> <r_i_glide_eff_state_penalty>
0

> <s_user_duplicate_titles>
CHEMBL3231_lig1760,CHEMBL3231_lig1760

> <i_f3d_flags>
0

> <s_m_subgroup_title>
dock_pv

> <s_m_subgroupid>
dock_pv

> <b_m_subgroup_collapsed>
1

$$$$
CHEMBL3231_lig686
                    3D
 Schrodinger Suite 2021-1.
 46 48  0  0  1  0            999 V2000
   51.5766   97.6738   30.3779 C   0  0  0  0  0  0
   51.4069   98.4077   29.1683 O   0  0  0  0  0  0
   51.5188   99.7872   29.1769 C   0  0  0  0  0  0
   52.0417  100.4972   30.2731 C   0  0  0  0  0  0
   52.0354  101.8982   30.3022 C   0  0  0  0  0  0
   51.5190  102.5962   29.2123 C   0  0  0  0  0  0
   51.0511  101.9049   28.1008 C   0  0  0  0  0  0
   51.0546  100.5061   28.0558 C   0  0  0  0  0  0
   50.5396   99.8641   26.7981 C   0  0  0  0  0  0
   49.9168  100.4848   25.7200 C   0  0  0  0  0  0
   49.6435   99.5067   24.8107 N   0  0  0  0  0  0
   50.0430   98.3021   25.2112 N   0  0  0  0  0  0
   50.5786   98.5160   26.3898 C   0  0  0  0  0  0
   52.5284  102.6475   31.5067 C   0  0  0  0  0  0
   51.8080  103.4864   32.0520 O   0  0  0  0  0  0
   53.7647  102.3036   31.9088 N   0  0  0  0  0  0
   54.4531  102.6299   33.1645 C   0  0  1  0  0  0
   54.4022  104.1182   33.5706 C   0  0  0  0  0  0
   54.0277  101.6937   34.3232 C   0  0  0  0  0  0
   54.2184  100.2095   34.0175 C   0  0  0  0  0  0
   55.5085   99.6759   33.9315 C   0  0  0  0  0  0
   55.6851   98.3323   33.6110 C   0  0  0  0  0  0
   54.5755   97.5228   33.3854 C   0  0  0  0  0  0
   54.7445   96.2206   33.0636 F   0  0  0  0  0  0
   53.2885   98.0443   33.4848 C   0  0  0  0  0  0
   53.1070   99.3889   33.8011 C   0  0  0  0  0  0
   51.2572   96.6432   30.2202 H   0  0  0  0  0  0
   52.6225   97.6570   30.6870 H   0  0  0  0  0  0
   50.9661   98.0760   31.1885 H   0  0  0  0  0  0
   52.4242   99.9629   31.1291 H   0  0  0  0  0  0
   51.5001  103.6772   29.2104 H   0  0  0  0  0  0
   50.6856  102.4843   27.2675 H   0  0  0  0  0  0
   49.6457  101.5102   25.5189 H   0  0  0  0  0  0
   49.2020   99.6597   23.9080 H   0  0  0  0  0  0
   51.0045   97.6934   26.9443 H   0  0  0  0  0  0
   54.2816  101.6943   31.2908 H   0  0  0  0  0  0
   55.5034  102.4213   32.9516 H   0  0  0  0  0  0
   54.9661  104.2823   34.4888 H   0  0  0  0  0  0
   54.8429  104.7619   32.8108 H   0  0  0  0  0  0
   53.3890  104.4606   33.7785 H   0  0  0  0  0  0
   52.9847  101.8835   34.5822 H   0  0  0  0  0  0
   54.5953  101.9287   35.2244 H   0  0  0  0  0  0
   56.3765  100.2988   34.0960 H   0  0  0  0  0  0
   56.6807   97.9212   33.5184 H   0  0  0  0  0  0
   52.4431   97.3993   33.3015 H   0  0  0  0  0  0
   52.1074   99.7936   33.8614 H   0  0  0  0  0  0
  1  2  1  0  0  0
  1 27  1  0  0  0
  1 28  1  0  0  0
  1 29  1  0  0  0
  2  3  1  0  0  0
  3  4  2  0  0  0
  3  8  1  0  0  0
  4  5  1  0  0  0
  4 30  1  0  0  0
  5  6  2  0  0  0
  5 14  1  0  0  0
  6  7  1  0  0  0
  6 31  1  0  0  0
  7  8  2  0  0  0
  7 32  1  0  0  0
  8  9  1  0  0  0
  9 10  2  0  0  0
  9 13  1  0  0  0
 10 11  1  0  0  0
 10 33  1  0  0  0
 11 12  1  0  0  0
 11 34  1  0  0  0
 12 13  2  0  0  0
 13 35  1  0  0  0
 14 15  2  0  0  0
 14 16  1  0  0  0
 16 17  1  0  0  0
 16 36  1  0  0  0
 17 18  1  0  0  0
 17 19  1  0  0  0
 17 37  1  0  0  0
 18 38  1  0  0  0
 18 39  1  0  0  0
 18 40  1  0  0  0
 19 20  1  0  0  0
 19 41  1  0  0  0
 19 42  1  0  0  0
 20 21  2  0  0  0
 20 26  1  0  0  0
 21 22  1  0  0  0
 21 43  1  0  0  0
 22 23  2  0  0  0
 22 44  1  0  0  0
 23 24  1  0  0  0
 23 25  1  0  0  0
 25 26  2  0  0  0
 25 45  1  0  0  0
 26 46  1  0  0  0
M  END
> <s_m_entry_id>
28526

> <s_m_entry_name>
dock_pv.687

> <s_m_Source_Path>
/home/csk/Desktop/cluster/DUD-E-result/rock1

> <s_m_Source_File>
dock_pv.maegz

> <i_m_Source_File_Index>
687

> <chembl_id>
CHEMBL3969281

> <chembl_pref_name>
None

> <i_lp_mmshare_version>
53161

> <r_lp_tautomer_probability>
0.5

> <s_lp_Force_Field>
OPLS_2005

> <r_lp_Energy>
22.464552

> <b_lp_Chiralities_Consistent>
1

> <s_lp_Variant>
CHEMBL3231_lig686-2

> <s_i_glide_gridfile>
glide-grid_2etr

> <i_i_glide_lignum>
980

> <i_i_glide_rotatable_bonds>
7

> <r_i_docking_score>
-7.09610226565416

> <r_i_glide_ligand_efficiency>
-0.272927010217468

> <r_i_glide_ligand_efficiency_sa>
-0.808545193853321

> <r_i_glide_ligand_efficiency_ln>
-1.6664963328782

> <r_i_glide_gscore>
-7.09610226565416

> <r_i_glide_lipo>
-1.93799271889011

> <r_i_glide_hbond>
-0.572531646659034

> <r_i_glide_metal>
0

> <r_i_glide_rewards>
-1.95389799736097

> <r_i_glide_evdw>
-40.8438110351562

> <r_i_glide_ecoul>
-7.04061698913574

> <r_i_glide_erotb>
0.535189655416469

> <r_i_glide_esite>
-0.0685864580323407

> <r_i_glide_emodel>
-65.7231300134473

> <r_i_glide_energy>
-47.884428024292

> <r_i_glide_einternal>
4.82484769821167

> <i_i_glide_confnum>
31

> <i_i_glide_posenum>
66

> <r_i_glide_eff_state_penalty>
0

> <s_user_duplicate_titles>
CHEMBL3231_lig686

> <i_f3d_flags>
0

> <s_m_subgroup_title>
dock_pv

> <s_m_subgroupid>
dock_pv

> <b_m_subgroup_collapsed>
1

$$$$
CHEMBL3231_lig778
                    3D
 Schrodinger Suite 2021-1.
 44 46  0  0  1  0            999 V2000
   50.8428  104.0629   28.9356 N   0  0  0  0  0  0
   51.2186  102.7184   28.9632 C   0  0  0  0  0  0
   50.7091  101.9106   27.9517 C   0  0  0  0  0  0
   51.0708  100.5679   27.8477 C   0  0  0  0  0  0
   51.9329  100.0233   28.7997 C   0  0  0  0  0  0
   52.4462  100.8194   29.8208 C   0  0  0  0  0  0
   52.1109  102.1814   29.9156 C   0  0  0  0  0  0
   52.7060  103.0210   31.0232 C   0  0  0  0  0  0
   52.0428  103.9013   31.5781 O   0  0  0  0  0  0
   53.9863  102.7533   31.3337 N   0  0  0  0  0  0
   54.7583  103.4630   32.3462 C   0  0  0  0  0  0
   54.6906  102.8012   33.7345 C   0  0  0  0  0  0
   55.5971  103.4631   34.7924 C   0  0  0  0  0  0
   55.1009  104.8134   35.3033 C   0  0  0  0  0  0
   54.5329  104.9037   36.5784 C   0  0  0  0  0  0
   54.1233  106.1393   37.0738 C   0  0  0  0  0  0
   54.2817  107.2832   36.2937 C   0  0  0  0  0  0
   54.8426  107.2026   35.0218 C   0  0  0  0  0  0
   55.2429  105.9669   34.5240 C   0  0  0  0  0  0
   50.5528   99.7635   26.7095 C   0  0  0  0  0  0
   50.5761   98.3699   26.5227 C   0  0  0  0  0  0
   50.0429   97.9902   25.3851 N   0  0  0  0  0  0
   49.6499   99.1294   24.8109 N   0  0  0  0  0  0
   49.9355  100.2312   25.5590 C   0  0  0  0  0  0
   50.3323  104.3932   28.1296 H   0  0  0  0  0  0
   51.4357  104.6907   29.4619 H   0  0  0  0  0  0
   50.0430  102.3433   27.2204 H   0  0  0  0  0  0
   52.2277   98.9849   28.7446 H   0  0  0  0  0  0
   53.1170  100.3614   30.5348 H   0  0  0  0  0  0
   54.5009  102.0946   30.7655 H   0  0  0  0  0  0
   54.4427  104.5058   32.4071 H   0  0  0  0  0  0
   55.7961  103.5032   32.0127 H   0  0  0  0  0  0
   54.9905  101.7564   33.6324 H   0  0  0  0  0  0
   53.6603  102.7866   34.0916 H   0  0  0  0  0  0
   56.6118  103.5704   34.4090 H   0  0  0  0  0  0
   55.7006  102.7822   35.6389 H   0  0  0  0  0  0
   54.4161  104.0195   37.1891 H   0  0  0  0  0  0
   53.6878  106.2116   38.0596 H   0  0  0  0  0  0
   53.9663  108.2434   36.6755 H   0  0  0  0  0  0
   54.9613  108.0915   34.4182 H   0  0  0  0  0  0
   55.6847  105.9215   33.5388 H   0  0  0  0  0  0
   50.9844   97.6460   27.2124 H   0  0  0  0  0  0
   49.2063   99.1605   23.8990 H   0  0  0  0  0  0
   49.6811  101.2211   25.2085 H   0  0  0  0  0  0
  1  2  1  0  0  0
  1 25  1  0  0  0
  1 26  1  0  0  0
  2  3  2  0  0  0
  2  7  1  0  0  0
  3  4  1  0  0  0
  3 27  1  0  0  0
  4  5  2  0  0  0
  4 20  1  0  0  0
  5  6  1  0  0  0
  5 28  1  0  0  0
  6  7  2  0  0  0
  6 29  1  0  0  0
  7  8  1  0  0  0
  8  9  2  0  0  0
  8 10  1  0  0  0
 10 11  1  0  0  0
 10 30  1  0  0  0
 11 12  1  0  0  0
 11 31  1  0  0  0
 11 32  1  0  0  0
 12 13  1  0  0  0
 12 33  1  0  0  0
 12 34  1  0  0  0
 13 14  1  0  0  0
 13 35  1  0  0  0
 13 36  1  0  0  0
 14 15  2  0  0  0
 14 19  1  0  0  0
 15 16  1  0  0  0
 15 37  1  0  0  0
 16 17  2  0  0  0
 16 38  1  0  0  0
 17 18  1  0  0  0
 17 39  1  0  0  0
 18 19  2  0  0  0
 18 40  1  0  0  0
 19 41  1  0  0  0
 20 21  1  0  0  0
 20 24  2  0  0  0
 21 22  2  0  0  0
 21 42  1  0  0  0
 22 23  1  0  0  0
 23 24  1  0  0  0
 23 43  1  0  0  0
 24 44  1  0  0  0
M  END
> <s_m_entry_id>
28527

> <s_m_entry_name>
dock_pv.688

> <s_m_Source_Path>
/home/csk/Desktop/cluster/DUD-E-result/rock1

> <s_m_Source_File>
dock_pv.maegz

> <i_m_Source_File_Index>
688

> <chembl_id>
CHEMBL3950431

> <chembl_pref_name>
None

> <i_lp_mmshare_version>
53161

> <r_lp_tautomer_probability>
0.5

> <s_lp_Force_Field>
OPLS_2005

> <r_lp_Energy>
24.005327

> <b_lp_Chiralities_Consistent>
1

> <s_lp_Variant>
CHEMBL3231_lig778-1

> <s_i_glide_gridfile>
glide-grid_2etr

> <i_i_glide_lignum>
1100

> <i_i_glide_rotatable_bonds>
7

> <r_i_docking_score>
-7.0960867731942

> <r_i_glide_ligand_efficiency>
-0.295670282216425

> <r_i_glide_ligand_efficiency_sa>
-0.852860674055139

> <r_i_glide_ligand_efficiency_ln>
-1.69841918302983

> <r_i_glide_gscore>
-7.0960867731942

> <r_i_glide_lipo>
-1.94627396654931

> <r_i_glide_hbond>
-0.60869913736654

> <r_i_glide_metal>
0

> <r_i_glide_rewards>
-2.01103211284778

> <r_i_glide_evdw>
-39.2978439331055

> <r_i_glide_ecoul>
-8.27540969848633

> <r_i_glide_erotb>
0.76399076022934

> <r_i_glide_esite>
-0.08786866523168

> <r_i_glide_emodel>
-68.3012927829305

> <r_i_glide_energy>
-47.5732536315918

> <r_i_glide_einternal>
2.08013224601746

> <i_i_glide_confnum>
16

> <i_i_glide_posenum>
386

> <r_i_glide_eff_state_penalty>
0

> <s_user_duplicate_titles>
CHEMBL3231_lig778

> <i_f3d_flags>
0

> <s_m_subgroup_title>
dock_pv

> <s_m_subgroupid>
dock_pv

> <b_m_subgroup_collapsed>
1

$$$$
CHEMBL3231_lig223
                    3D
 Schrodinger Suite 2021-1.
 42 44  0  0  1  0            999 V2000
   53.0523  102.8125   31.3623 C   0  0  0  0  0  0
   53.2514  102.5962   32.7220 C   0  0  0  0  0  0
   52.9315  101.3802   33.3264 C   0  0  0  0  0  0
   52.4203  100.3330   32.5503 C   0  0  0  0  0  0
   52.4972  101.7723   30.6044 C   0  0  0  0  0  0
   52.1895  100.5053   31.1742 C   0  0  0  0  0  0
   51.6427   99.5820   30.2225 C   0  0  0  0  0  0
   51.5294  100.1514   28.9517 C   0  0  0  0  0  0
   52.0711  101.8263   28.9137 S   0  0  0  0  0  0
   51.2234   98.1809   30.6455 C   0  0  0  0  0  0
   51.0047   99.5458   27.6796 C   0  0  0  0  0  0
   50.3881  100.3924   26.8089 N   0  0  0  0  0  0
   49.9300   99.8555   25.6548 C   0  0  0  0  0  0
   50.0430   98.5633   25.2691 N   0  0  0  0  0  0
   50.6550   97.7382   26.1516 C   0  0  0  0  0  0
   51.1528   98.1876   27.3757 C   0  0  0  0  0  0
   49.2430  100.7030   24.8110 N   0  0  0  0  0  0
   53.0935  101.2468   34.8479 C   0  0  2  0  0  0
   53.3866   99.8850   35.2768 N   0  0  0  0  0  0
   51.8597  101.7840   35.6152 C   0  0  0  0  0  0
   50.5369  101.0173   35.3859 C   0  0  0  0  0  0
   49.3227  101.7191   36.0054 C   0  0  0  0  0  0
   53.3061  103.7643   30.9145 H   0  0  0  0  0  0
   53.6559  103.4008   33.3197 H   0  0  0  0  0  0
   52.1797   99.3939   33.0233 H   0  0  0  0  0  0
   52.0791   97.5137   30.7440 H   0  0  0  0  0  0
   50.7155   98.1842   31.6095 H   0  0  0  0  0  0
   50.5194   97.7131   29.9584 H   0  0  0  0  0  0
   50.7482   96.7029   25.8590 H   0  0  0  0  0  0
   51.6427   97.5051   28.0461 H   0  0  0  0  0  0
   49.1811  101.6803   25.0532 H   0  0  0  0  0  0
   48.9606  100.3642   23.8926 H   0  0  0  0  0  0
   53.9588  101.8448   35.1391 H   0  0  0  0  0  0
   54.2905   99.6077   34.9170 H   0  0  0  0  0  0
   53.4487   99.8448   36.2842 H   0  0  0  0  0  0
   51.7185  102.8302   35.3401 H   0  0  0  0  0  0
   52.0805  101.8008   36.6837 H   0  0  0  0  0  0
   50.6232  100.0107   35.7957 H   0  0  0  0  0  0
   50.3512  100.8938   34.3195 H   0  0  0  0  0  0
   48.4308  101.1033   35.9040 H   0  0  0  0  0  0
   49.1253  102.6734   35.5163 H   0  0  0  0  0  0
   49.4698  101.9159   37.0657 H   0  0  0  0  0  0
  1  5  2  0  0  0
  1  2  1  0  0  0
  1 23  1  0  0  0
  2  3  2  0  0  0
  2 24  1  0  0  0
  3 18  1  0  0  0
  3  4  1  0  0  0
  4  6  2  0  0  0
  4 25  1  0  0  0
  5  6  1  0  0  0
  5  9  1  0  0  0
  6  7  1  0  0  0
  7  8  2  0  0  0
  7 10  1  0  0  0
  8 11  1  0  0  0
  8  9  1  0  0  0
 10 26  1  0  0  0
 10 27  1  0  0  0
 10 28  1  0  0  0
 11 12  2  0  0  0
 11 16  1  0  0  0
 12 13  1  0  0  0
 13 14  2  0  0  0
 13 17  1  0  0  0
 14 15  1  0  0  0
 15 16  2  0  0  0
 15 29  1  0  0  0
 16 30  1  0  0  0
 17 31  1  0  0  0
 17 32  1  0  0  0
 18 19  1  0  0  0
 18 20  1  0  0  0
 18 33  1  0  0  0
 19 34  1  0  0  0
 19 35  1  0  0  0
 20 21  1  0  0  0
 20 36  1  0  0  0
 20 37  1  0  0  0
 21 22  1  0  0  0
 21 38  1  0  0  0
 21 39  1  0  0  0
 22 40  1  0  0  0
 22 41  1  0  0  0
 22 42  1  0  0  0
M  END
> <s_m_entry_id>
28528

> <s_m_entry_name>
dock_pv.689

> <s_m_Source_Path>
/home/csk/Desktop/cluster/DUD-E-result/rock1

> <s_m_Source_File>
dock_pv.maegz

> <i_m_Source_File_Index>
689

> <chembl_id>
CHEMBL1083967

> <chembl_pref_name>
None

> <i_lp_mmshare_version>
53161

> <r_lp_tautomer_probability>
0.999999987636

> <s_lp_Force_Field>
OPLS_2005

> <r_lp_Energy>
3.764057

> <b_lp_Chiralities_Consistent>
1

> <s_lp_Variant>
CHEMBL3231_lig223-1

> <s_i_glide_gridfile>
glide-grid_2etr

> <i_i_glide_lignum>
363

> <i_i_glide_rotatable_bonds>
4

> <r_i_docking_score>
-7.08661569450246

> <r_i_glide_ligand_efficiency>
-0.322118895204657

> <r_i_glide_ligand_efficiency_sa>
-0.902589812580729

> <r_i_glide_ligand_efficiency_ln>
-1.73222736632447

> <r_i_glide_gscore>
-7.08661569450246

> <r_i_glide_lipo>
-2.22746737179268

> <r_i_glide_hbond>
-0.393275313810618

> <r_i_glide_metal>
0

> <r_i_glide_rewards>
-2.2187096922795

> <r_i_glide_evdw>
-37.9869041442871

> <r_i_glide_ecoul>
-4.98063135147095

> <r_i_glide_erotb>
0.39927659331533

> <r_i_glide_esite>
0

> <r_i_glide_emodel>
-60.685334900092

> <r_i_glide_energy>
-42.9675354957581

> <r_i_glide_einternal>
1.48515748977661

> <i_i_glide_confnum>
17

> <i_i_glide_posenum>
371

> <r_i_glide_eff_state_penalty>
0

> <s_user_duplicate_titles>
CHEMBL3231_lig223

> <i_f3d_flags>
0

> <s_m_subgroup_title>
dock_pv

> <s_m_subgroupid>
dock_pv

> <b_m_subgroup_collapsed>
1

$$$$
CHEMBL3231_lig274
                    3D
 Schrodinger Suite 2021-1.
 62 66  0  0  1  0            999 V2000
   54.3505  100.3992   32.2944 C   0  0  0  0  0  0
   54.3581  101.6649   32.7978 N   0  0  0  0  0  0
   53.6555  102.6033   32.1237 C   0  0  0  0  0  0
   52.8911  102.3819   31.0283 N   0  0  0  0  0  0
   52.8257  101.1040   30.5508 C   0  0  0  0  0  0
   53.5446  100.0801   31.1899 C   0  0  0  0  0  0
   51.9828  100.8673   29.3211 C   0  0  0  0  0  0
   51.8122   99.5683   28.7979 C   0  0  0  0  0  0
   50.6342  101.7947   27.4853 C   0  0  0  0  0  0
   51.3707  101.9459   28.6583 C   0  0  0  0  0  0
   50.5096  100.5157   26.9340 C   0  0  0  0  0  0
   51.0958   99.4208   27.6046 C   0  0  0  0  0  0
   50.7954   98.3162   26.8281 N   0  0  0  0  0  0
   50.0938   98.6468   25.7252 N   0  0  0  0  0  0
   49.9136   99.9415   25.7694 C   0  0  0  0  0  0
   49.2432  100.6460   24.8110 N   0  0  0  0  0  0
   53.7218  103.9030   32.6062 N   0  0  0  0  0  0
   54.9751   99.4028   33.0446 N   0  0  0  0  0  0
   55.1768   98.0145   32.5926 C   0  0  0  0  0  0
   54.2313   97.0680   33.3579 C   0  0  0  0  0  0
   54.5368   97.1379   34.8641 C   0  0  0  0  0  0
   54.6172   98.6014   35.3811 C   0  0  1  0  0  0
   55.4473   99.5323   34.4383 C   0  0  0  0  0  0
   53.2314   99.1685   35.7916 C   0  0  0  0  0  0
   52.4430   98.4437   36.3998 O   0  0  0  0  0  0
   52.9459  100.4541   35.5093 N   0  0  0  0  0  0
   51.7119  101.1602   35.8559 C   0  0  0  0  0  0
   51.8813  102.6972   35.9010 C   0  0  0  0  0  0
   50.5865  103.4558   36.2640 C   0  0  0  0  0  0
   49.3931  103.0242   35.3966 C   0  0  0  0  0  0
   49.1905  101.5026   35.4485 C   0  0  0  0  0  0
   50.4648  100.7353   35.0430 C   0  0  0  0  0  0
   53.4917   99.0636   30.8463 H   0  0  0  0  0  0
   52.2437   98.6985   29.2645 H   0  0  0  0  0  0
   50.1989  102.6533   26.9953 H   0  0  0  0  0  0
   51.4859  102.9509   29.0387 H   0  0  0  0  0  0
   51.0511   97.3548   27.0027 H   0  0  0  0  0  0
   48.9770  101.6107   24.9567 H   0  0  0  0  0  0
   48.9342  100.2293   23.9347 H   0  0  0  0  0  0
   53.4125  104.6535   32.0038 H   0  0  0  0  0  0
   54.4417  104.0912   33.2867 H   0  0  0  0  0  0
   56.2093   97.7335   32.8102 H   0  0  0  0  0  0
   55.0939   97.8977   31.5129 H   0  0  0  0  0  0
   54.3542   96.0469   32.9960 H   0  0  0  0  0  0
   53.1905   97.3338   33.1631 H   0  0  0  0  0  0
   55.4836   96.6488   35.0987 H   0  0  0  0  0  0
   53.8657   96.5234   35.4680 H   0  0  0  0  0  0
   55.0868   98.5899   36.3654 H   0  0  0  0  0  0
   55.4333  100.5721   34.7664 H   0  0  0  0  0  0
   56.4948   99.2224   34.4498 H   0  0  0  0  0  0
   53.5991  100.9576   34.9263 H   0  0  0  0  0  0
   51.4904  100.8791   36.8888 H   0  0  0  0  0  0
   52.2065  103.0402   34.9177 H   0  0  0  0  0  0
   52.6710  102.9673   36.6041 H   0  0  0  0  0  0
   50.7487  104.5306   36.1624 H   0  0  0  0  0  0
   50.3469  103.2844   37.3140 H   0  0  0  0  0  0
   49.5610  103.3329   34.3641 H   0  0  0  0  0  0
   48.4857  103.5325   35.7253 H   0  0  0  0  0  0
   48.3564  101.2131   34.8110 H   0  0  0  0  0  0
   48.8975  101.2093   36.4559 H   0  0  0  0  0  0
   50.2955   99.6663   35.1487 H   0  0  0  0  0  0
   50.6555  100.9133   33.9833 H   0  0  0  0  0  0
  1 18  1  0  0  0
  1  6  1  0  0  0
  1  2  2  0  0  0
  2  3  1  0  0  0
  3 17  1  0  0  0
  3  4  2  0  0  0
  4  5  1  0  0  0
  5  7  1  0  0  0
  5  6  2  0  0  0
  6 33  1  0  0  0
  7  8  2  0  0  0
  7 10  1  0  0  0
  8 12  1  0  0  0
  8 34  1  0  0  0
  9 11  1  0  0  0
  9 10  2  0  0  0
  9 35  1  0  0  0
 10 36  1  0  0  0
 11 15  1  0  0  0
 11 12  2  0  0  0
 12 13  1  0  0  0
 13 14  1  0  0  0
 13 37  1  0  0  0
 14 15  2  0  0  0
 15 16  1  0  0  0
 16 38  1  0  0  0
 16 39  1  0  0  0
 17 40  1  0  0  0
 17 41  1  0  0  0
 18 19  1  0  0  0
 18 23  1  0  0  0
 19 20  1  0  0  0
 19 42  1  0  0  0
 19 43  1  0  0  0
 20 21  1  0  0  0
 20 44  1  0  0  0
 20 45  1  0  0  0
 21 22  1  0  0  0
 21 46  1  0  0  0
 21 47  1  0  0  0
 22 23  1  0  0  0
 22 24  1  0  0  0
 22 48  1  0  0  0
 23 49  1  0  0  0
 23 50  1  0  0  0
 24 25  2  0  0  0
 24 26  1  0  0  0
 26 27  1  0  0  0
 26 51  1  0  0  0
 27 28  1  0  0  0
 27 32  1  0  0  0
 27 52  1  0  0  0
 28 29  1  0  0  0
 28 53  1  0  0  0
 28 54  1  0  0  0
 29 30  1  0  0  0
 29 55  1  0  0  0
 29 56  1  0  0  0
 30 31  1  0  0  0
 30 57  1  0  0  0
 30 58  1  0  0  0
 31 32  1  0  0  0
 31 59  1  0  0  0
 31 60  1  0  0  0
 32 61  1  0  0  0
 32 62  1  0  0  0
M  END
> <s_m_entry_id>
28529

> <s_m_entry_name>
dock_pv.690

> <s_m_Source_Path>
/home/csk/Desktop/cluster/DUD-E-result/rock1

> <s_m_Source_File>
dock_pv.maegz

> <i_m_Source_File_Index>
690

> <chembl_id>
CHEMBL1765734

> <chembl_pref_name>
None

> <i_lp_mmshare_version>
53161

> <r_lp_tautomer_probability>
0.999999648617923

> <s_lp_Force_Field>
OPLS_2005

> <r_lp_Energy>
21.473987

> <b_lp_Chiralities_Consistent>
1

> <s_lp_Variant>
CHEMBL3231_lig274-1

> <s_i_glide_gridfile>
glide-grid_2etr

> <i_i_glide_lignum>
420

> <i_i_glide_rotatable_bonds>
5

> <r_i_docking_score>
-7.08634327154185

> <r_i_glide_ligand_efficiency>
-0.221448227235683

> <r_i_glide_ligand_efficiency_sa>
-0.703054296928631

> <r_i_glide_ligand_efficiency_ln>
-1.58682542492026

> <r_i_glide_gscore>
-7.08634327154185

> <r_i_glide_lipo>
-2.73427612918882

> <r_i_glide_hbond>
-0.587837432079

> <r_i_glide_metal>
0

> <r_i_glide_rewards>
-0.750340493292726

> <r_i_glide_evdw>
-51.4354705810547

> <r_i_glide_ecoul>
-5.68899583816528

> <r_i_glide_erotb>
0.52738893227551

> <r_i_glide_esite>
-0.116155244479291

> <r_i_glide_emodel>
-79.8575839418851

> <r_i_glide_energy>
-57.12446641922

> <r_i_glide_einternal>
3.39099955558777

> <i_i_glide_confnum>
64

> <i_i_glide_posenum>
133

> <r_i_glide_eff_state_penalty>
0

> <s_user_duplicate_titles>
CHEMBL3231_lig274

> <i_f3d_flags>
0

> <s_m_subgroup_title>
dock_pv

> <s_m_subgroupid>
dock_pv

> <b_m_subgroup_collapsed>
1

$$$$
CHEMBL3231_lig1092
                    3D
 Schrodinger Suite 2021-1.
 32 35  0  0  1  0            999 V2000
   50.0428   99.7943   25.5557 C   0  0  0  0  0  0
   50.6042   98.6590   26.1403 C   0  0  0  0  0  0
   51.2426   98.7058   27.3821 C   0  0  0  0  0  0
   50.0837  101.0312   26.1999 C   0  0  0  0  0  0
   50.7048  101.1086   27.4552 C   0  0  0  0  0  0
   51.2898   99.9511   28.0259 C   0  0  0  0  0  0
   51.8556  100.3977   29.2113 N   0  0  0  0  0  0
   51.5145  101.7425   29.3122 C   0  0  0  0  0  0
   50.8432  102.1910   28.2799 N   0  0  0  0  0  0
   51.8010  102.5748   30.4754 C   0  0  0  0  0  0
   50.9263  102.7029   31.4403 N   0  0  0  0  0  0
   51.5588  103.5032   32.3838 O   0  0  0  0  0  0
   52.8129  103.9030   31.9334 N   0  0  0  0  0  0
   52.9298  103.3403   30.7597 C   0  0  0  0  0  0
   54.0430  103.5451   30.0108 N   0  0  0  0  0  0
   52.5939   99.6214   30.1317 C   0  0  0  0  0  0
   53.8849  100.0217   30.4941 C   0  0  0  0  0  0
   54.6503   99.2245   31.3393 C   0  0  0  0  0  0
   54.1208   98.0339   31.8281 C   0  0  0  0  0  0
   52.8350   97.6321   31.4757 C   0  0  0  0  0  0
   52.0685   98.4200   30.6194 C   0  0  0  0  0  0
   49.5669   99.7148   24.5879 H   0  0  0  0  0  0
   50.5545   97.7181   25.6124 H   0  0  0  0  0  0
   51.6902   97.8225   27.8128 H   0  0  0  0  0  0
   49.6428  101.9058   25.7443 H   0  0  0  0  0  0
   54.1728  103.1353   29.0998 H   0  0  0  0  0  0
   54.7671  104.1771   30.3381 H   0  0  0  0  0  0
   54.3215  100.9267   30.1008 H   0  0  0  0  0  0
   55.6581   99.5196   31.6008 H   0  0  0  0  0  0
   54.7216   97.4124   32.4768 H   0  0  0  0  0  0
   52.4431   96.7031   31.8564 H   0  0  0  0  0  0
   51.0780   98.0902   30.3391 H   0  0  0  0  0  0
  1  4  1  0  0  0
  1  2  2  0  0  0
  1 22  1  0  0  0
  2  3  1  0  0  0
  2 23  1  0  0  0
  3  6  2  0  0  0
  3 24  1  0  0  0
  4  5  2  0  0  0
  4 25  1  0  0  0
  5  6  1  0  0  0
  5  9  1  0  0  0
  6  7  1  0  0  0
  7 16  1  0  0  0
  7  8  1  0  0  0
  8 10  1  0  0  0
  8  9  2  0  0  0
 10 14  1  0  0  0
 10 11  2  0  0  0
 11 12  1  0  0  0
 12 13  1  0  0  0
 13 14  2  0  0  0
 14 15  1  0  0  0
 15 26  1  0  0  0
 15 27  1  0  0  0
 16 17  2  0  0  0
 16 21  1  0  0  0
 17 18  1  0  0  0
 17 28  1  0  0  0
 18 19  2  0  0  0
 18 29  1  0  0  0
 19 20  1  0  0  0
 19 30  1  0  0  0
 20 21  2  0  0  0
 20 31  1  0  0  0
 21 32  1  0  0  0
M  END
> <s_m_entry_id>
28530

> <s_m_entry_name>
dock_pv.691

> <s_m_Source_Path>
/home/csk/Desktop/cluster/DUD-E-result/rock1

> <s_m_Source_File>
dock_pv.maegz

> <i_m_Source_File_Index>
691

> <chembl_id>
CHEMBL1078426

> <chembl_pref_name>
None

> <i_lp_mmshare_version>
53161

> <r_lp_tautomer_probability>
1

> <s_lp_Force_Field>
OPLS_2005

> <r_lp_Energy>
27.040261

> <b_lp_Chiralities_Consistent>
1

> <s_lp_Variant>
CHEMBL3231_lig1092-1

> <s_i_glide_gridfile>
glide-grid_2etr

> <i_i_glide_lignum>
1517

> <i_i_glide_rotatable_bonds>
2

> <r_i_docking_score>
-7.08605992935732

> <r_i_glide_ligand_efficiency>
-0.337431425207491

> <r_i_glide_ligand_efficiency_sa>
-0.930947715930922

> <r_i_glide_ligand_efficiency_ln>
-1.75201399880128

> <r_i_glide_gscore>
-7.08605992935732

> <r_i_glide_lipo>
-2.25173813899463

> <r_i_glide_hbond>
-0.32

> <r_i_glide_metal>
0

> <r_i_glide_rewards>
-2.15964699478527

> <r_i_glide_evdw>
-37.3885803222656

> <r_i_glide_ecoul>
-5.04455137252808

> <r_i_glide_erotb>
0.468394449891064

> <r_i_glide_esite>
-0.196957523475986

> <r_i_glide_emodel>
-57.9195157670009

> <r_i_glide_energy>
-42.4331316947937

> <r_i_glide_einternal>
5.19689464569092

> <i_i_glide_confnum>
3

> <i_i_glide_posenum>
367

> <r_i_glide_eff_state_penalty>
0

> <s_user_duplicate_titles>
CHEMBL3231_lig1092,618279

> <i_f3d_flags>
0

> <s_m_subgroup_title>
dock_pv

> <s_m_subgroupid>
dock_pv

> <b_m_subgroup_collapsed>
1

$$$$
CHEMBL3231_lig1460
                    3D
 Schrodinger Suite 2021-1.
 20 22  0  0  1  0            999 V2000
   50.3364   98.4411   25.9239 C   0  0  0  0  0  0
   49.8440   99.3512   25.0317 N   0  0  0  0  0  0
   50.4430   97.2588   25.6142 O   0  0  0  0  0  0
   51.2431   98.3030   28.6005 S   0  0  0  0  0  0
   52.5734   98.7376   31.6627 Cl  0  0  0  0  0  0
   49.6922  100.7030   25.2110 C   0  0  0  0  0  0
   50.0659  101.2789   26.3018 N   0  0  0  0  0  0
   50.5177  103.6580   28.3347 Cl  0  0  0  0  0  0
   50.5653  100.4950   27.3097 C   0  0  0  0  0  0
   50.6790   99.1099   27.1772 C   0  0  0  0  0  0
   51.4953   99.8539   29.3965 C   0  0  0  0  0  0
   52.0449  100.0538   30.6742 C   0  0  0  0  0  0
   52.1592  101.3546   31.1470 C   0  0  0  0  0  0
   51.7069  102.4328   30.4011 C   0  0  0  0  0  0
   51.1234  102.2563   29.1482 C   0  0  0  0  0  0
   51.0407  100.9534   28.5908 C   0  0  0  0  0  0
   49.5610   98.9733   24.1418 H   0  0  0  0  0  0
   49.2430  101.2582   24.3941 H   0  0  0  0  0  0
   52.6011  101.5286   32.1178 H   0  0  0  0  0  0
   51.8088  103.4278   30.8096 H   0  0  0  0  0  0
  1  3  2  0  0  0
  1 10  1  0  0  0
  1  2  1  0  0  0
  2  6  1  0  0  0
  2 17  1  0  0  0
  4 10  1  0  0  0
  4 11  1  0  0  0
  5 12  1  0  0  0
  6  7  2  0  0  0
  6 18  1  0  0  0
  7  9  1  0  0  0
  8 15  1  0  0  0
  9 10  2  0  0  0
  9 16  1  0  0  0
 11 12  1  0  0  0
 11 16  2  0  0  0
 12 13  2  0  0  0
 13 14  1  0  0  0
 13 19  1  0  0  0
 14 15  2  0  0  0
 14 20  1  0  0  0
 15 16  1  0  0  0
M  END
> <s_m_entry_id>
28531

> <s_m_entry_name>
dock_pv.692

> <s_m_Source_Path>
/home/csk/Desktop/cluster/DUD-E-result/rock1

> <s_m_Source_File>
dock_pv.maegz

> <i_m_Source_File_Index>
692

> <chembl_id>
CHEMBL583144

> <chembl_pref_name>
None

> <i_lp_mmshare_version>
53161

> <r_lp_tautomer_probability>
1

> <s_lp_Force_Field>
OPLS_2005

> <r_lp_Energy>
19.716585

> <b_lp_Chiralities_Consistent>
1

> <s_lp_Variant>
CHEMBL3231_lig1460-1

> <s_i_glide_gridfile>
glide-grid_2etr

> <i_i_glide_lignum>
2056

> <i_i_glide_rotatable_bonds>
0

> <r_i_docking_score>
-7.08559751069037

> <r_i_glide_ligand_efficiency>
-0.442849844418148

> <r_i_glide_ligand_efficiency_sa>
-1.11591168081887

> <r_i_glide_ligand_efficiency_ln>
-1.87817915823161

> <r_i_glide_gscore>
-7.08559751069037

> <r_i_glide_lipo>
-1.9204816662383

> <r_i_glide_hbond>
-0.229365649531952

> <r_i_glide_metal>
0

> <r_i_glide_rewards>
-3.06178938402038

> <r_i_glide_evdw>
-32.0975952148438

> <r_i_glide_ecoul>
-1.79387366771698

> <r_i_glide_erotb>
0

> <r_i_glide_esite>
0

> <r_i_glide_emodel>
-47.7098874041605

> <r_i_glide_energy>
-33.8914688825607

> <r_i_glide_einternal>
0

> <i_i_glide_confnum>
1

> <i_i_glide_posenum>
77

> <r_i_glide_eff_state_penalty>
0

> <s_user_duplicate_titles>
CHEMBL3231_lig1460

> <i_f3d_flags>
0

> <s_m_subgroup_title>
dock_pv

> <s_m_subgroupid>
dock_pv

> <b_m_subgroup_collapsed>
1

$$$$
CHEMBL3231_lig460
                    3D
 Schrodinger Suite 2021-1.
 39 41  0  0  1  0            999 V2000
   53.0263   99.4501   35.3128 C   0  0  0  0  0  0
   54.1364   99.1290   34.2814 C   0  0  2  0  0  0
   54.0842  100.0307   33.1192 N   0  0  0  0  0  0
   53.0816  100.1233   32.2290 C   0  0  0  0  0  0
   52.0722   99.4140   32.2523 O   0  0  0  0  0  0
   53.3111  101.0987   31.3284 N   0  0  0  0  0  0
   52.5087  101.3234   30.2251 C   0  0  0  0  0  0
   52.1018  100.4056   29.3804 N   0  0  0  0  0  0
   51.3704  100.9009   28.3932 C   0  0  0  0  0  0
   51.1545  102.2818   28.4906 C   0  0  0  0  0  0
   51.9989  102.9350   29.8647 S   0  0  0  0  0  0
   50.8796   99.9970   27.3030 C   0  0  0  0  0  0
   50.8662   98.6014   27.4605 C   0  0  0  0  0  0
   50.4438   97.8010   26.4002 C   0  0  0  0  0  0
   50.0428   98.3097   25.2111 N   0  0  0  0  0  0
   50.0449   99.6582   25.0654 C   0  0  0  0  0  0
   50.4515  100.5285   26.0776 C   0  0  0  0  0  0
   54.3077   97.6359   33.9303 C   0  0  0  0  0  0
   55.1262   97.2627   32.8534 C   0  0  0  0  0  0
   55.3136   95.9211   32.5229 C   0  0  0  0  0  0
   54.6783   94.9280   33.2661 C   0  0  0  0  0  0
   53.8588   95.2779   34.3368 C   0  0  0  0  0  0
   53.2428   94.3156   35.0597 F   0  0  0  0  0  0
   53.6726   96.6212   34.6642 C   0  0  0  0  0  0
   53.2244   98.9798   36.2759 H   0  0  0  0  0  0
   52.9603  100.5228   35.4959 H   0  0  0  0  0  0
   52.0466   99.1180   34.9686 H   0  0  0  0  0  0
   55.0722   99.3923   34.7780 H   0  0  0  0  0  0
   54.9703  100.4376   32.8565 H   0  0  0  0  0  0
   54.1318  101.6780   31.4274 H   0  0  0  0  0  0
   50.5940  102.9264   27.8297 H   0  0  0  0  0  0
   51.1871   98.1386   28.3829 H   0  0  0  0  0  0
   50.4415   96.7243   26.4894 H   0  0  0  0  0  0
   49.7169  100.0387   24.1079 H   0  0  0  0  0  0
   50.4500  101.5932   25.8994 H   0  0  0  0  0  0
   55.6411   98.0116   32.2698 H   0  0  0  0  0  0
   55.9603   95.6571   31.6973 H   0  0  0  0  0  0
   54.8255   93.8888   33.0196 H   0  0  0  0  0  0
   53.0384   96.8510   35.5042 H   0  0  0  0  0  0
  1  2  1  0  0  0
  1 25  1  0  0  0
  1 26  1  0  0  0
  1 27  1  0  0  0
  2  3  1  0  0  0
  2 18  1  0  0  0
  2 28  1  0  0  0
  3  4  1  0  0  0
  3 29  1  0  0  0
  4  5  2  0  0  0
  4  6  1  0  0  0
  6  7  1  0  0  0
  6 30  1  0  0  0
  7  8  2  0  0  0
  7 11  1  0  0  0
  8  9  1  0  0  0
  9 10  2  0  0  0
  9 12  1  0  0  0
 10 11  1  0  0  0
 10 31  1  0  0  0
 12 13  2  0  0  0
 12 17  1  0  0  0
 13 14  1  0  0  0
 13 32  1  0  0  0
 14 15  2  0  0  0
 14 33  1  0  0  0
 15 16  1  0  0  0
 16 17  2  0  0  0
 16 34  1  0  0  0
 17 35  1  0  0  0
 18 19  2  0  0  0
 18 24  1  0  0  0
 19 20  1  0  0  0
 19 36  1  0  0  0
 20 21  2  0  0  0
 20 37  1  0  0  0
 21 22  1  0  0  0
 21 38  1  0  0  0
 22 23  1  0  0  0
 22 24  2  0  0  0
 24 39  1  0  0  0
M  END
> <s_m_entry_id>
28532

> <s_m_entry_name>
dock_pv.693

> <s_m_Source_Path>
/home/csk/Desktop/cluster/DUD-E-result/rock1

> <s_m_Source_File>
dock_pv.maegz

> <i_m_Source_File_Index>
693

> <chembl_id>
CHEMBL3218296

> <chembl_pref_name>
None

> <i_lp_mmshare_version>
53161

> <r_lp_tautomer_probability>
0.999000488399163

> <s_lp_Force_Field>
OPLS_2005

> <r_lp_Energy>
7.414332

> <b_lp_Chiralities_Consistent>
1

> <s_lp_Variant>
CHEMBL3231_lig460-1

> <s_i_glide_gridfile>
glide-grid_2etr

> <i_i_glide_lignum>
645

> <i_i_glide_rotatable_bonds>
6

> <r_i_docking_score>
-7.08315192608997

> <r_i_glide_ligand_efficiency>
-0.295131330253749

> <r_i_glide_ligand_efficiency_sa>
-0.851306067583613

> <r_i_glide_ligand_efficiency_ln>
-1.69532328057633

> <r_i_glide_gscore>
-7.08315192608997

> <r_i_glide_lipo>
-2.33885592059638

> <r_i_glide_hbond>
-0.233016591194097

> <r_i_glide_metal>
0

> <r_i_glide_rewards>
-2.71949058186103

> <r_i_glide_evdw>
-41.9209098815918

> <r_i_glide_ecoul>
-2.96690964698792

> <r_i_glide_erotb>
0.808734757347922

> <r_i_glide_esite>
-0.0594416486585986

> <r_i_glide_emodel>
-62.0450186211098

> <r_i_glide_energy>
-44.8878195285797

> <r_i_glide_einternal>
2.95981121063232

> <i_i_glide_confnum>
12

> <i_i_glide_posenum>
168

> <r_i_glide_eff_state_penalty>
0

> <s_user_duplicate_titles>
CHEMBL3231_lig460

> <i_f3d_flags>
0

> <s_m_subgroup_title>
dock_pv

> <s_m_subgroupid>
dock_pv

> <b_m_subgroup_collapsed>
1

$$$$
CHEMBL3231_lig538
                    3D
 Schrodinger Suite 2021-1.
 48 51  0  0  1  0            999 V2000
   54.8219  102.3925   32.2763 C   0  0  0  0  0  0
   53.5286  102.9904   32.8991 C   0  0  1  0  0  0
   52.6412  103.5639   31.7309 C   0  0  0  0  0  0
   52.0643  102.6416   30.6364 C   0  0  0  0  0  0
   52.1678  101.2452   30.6486 C   0  0  0  0  0  0
   51.6318  100.4830   29.6141 C   0  0  0  0  0  0
   50.9635  101.0941   28.5448 C   0  0  0  0  0  0
   50.8449  102.4874   28.5426 C   0  0  0  0  0  0
   51.3931  103.2467   29.5710 C   0  0  0  0  0  0
   50.3055  100.2596   27.4297 C   0  0  2  0  0  0
   50.7483   98.7471   27.3694 C   0  0  0  0  0  0
   50.3360   98.0751   26.0520 C   0  0  0  0  0  0
   50.0403   98.7013   24.9773 N   0  0  0  0  0  0
   50.1613  100.0568   24.9458 C   0  0  0  0  0  0
   50.2736  100.8647   26.0220 C   0  0  0  0  0  0
   52.8759  101.9015   33.6404 N   0  0  0  0  0  0
   51.7196  101.8377   34.3199 C   0  0  0  0  0  0
   51.2426  100.7467   34.6311 O   0  0  0  0  0  0
   51.0290  103.1331   34.7180 C   0  0  0  0  0  0
   49.6601  103.0020   35.0266 C   0  0  0  0  0  0
   48.9133  104.0894   35.4715 C   0  0  0  0  0  0
   47.2364  103.9048   35.8287 Cl  0  0  0  0  0  0
   49.5170  105.3321   35.6066 C   0  0  0  0  0  0
   50.8691  105.4765   35.3139 C   0  0  0  0  0  0
   51.6557  104.3942   34.9004 C   0  0  0  0  0  0
   53.0100  104.6570   34.6689 N   0  0  0  0  0  0
   53.9510  104.1617   33.8492 C   0  0  0  0  0  0
   55.0838  104.6455   33.8663 O   0  0  0  0  0  0
   55.3199  103.1215   31.6354 H   0  0  0  0  0  0
   55.5358  102.0858   33.0418 H   0  0  0  0  0  0
   54.6522  101.5173   31.6532 H   0  0  0  0  0  0
   51.7894  104.0959   32.1520 H   0  0  0  0  0  0
   53.2237  104.3295   31.2120 H   0  0  0  0  0  0
   52.6538  100.7143   31.4483 H   0  0  0  0  0  0
   51.7289   99.4101   29.6755 H   0  0  0  0  0  0
   50.3142  102.9978   27.7536 H   0  0  0  0  0  0
   51.2883  104.3169   29.5288 H   0  0  0  0  0  0
   49.2638  100.2640   27.7535 H   0  0  0  0  0  0
   51.8321   98.6659   27.4556 H   0  0  0  0  0  0
   50.3202   98.1818   28.1965 H   0  0  0  0  0  0
   50.2898   96.9901   26.0289 H   0  0  0  0  0  0
   50.0901  100.5068   23.9650 H   0  0  0  0  0  0
   50.2725  101.9318   25.8629 H   0  0  0  0  0  0
   53.2462  100.9806   33.4608 H   0  0  0  0  0  0
   49.1528  102.0507   34.9311 H   0  0  0  0  0  0
   48.9424  106.1836   35.9409 H   0  0  0  0  0  0
   51.3190  106.4533   35.4302 H   0  0  0  0  0  0
   53.3661  105.4701   35.1477 H   0  0  0  0  0  0
  1  2  1  0  0  0
  1 29  1  0  0  0
  1 30  1  0  0  0
  1 31  1  0  0  0
  2  3  1  0  0  0
  2 16  1  0  0  0
  2 27  1  0  0  0
  3  4  1  0  0  0
  3 32  1  0  0  0
  3 33  1  0  0  0
  4  5  2  0  0  0
  4  9  1  0  0  0
  5  6  1  0  0  0
  5 34  1  0  0  0
  6  7  2  0  0  0
  6 35  1  0  0  0
  7  8  1  0  0  0
  7 10  1  0  0  0
  8  9  2  0  0  0
  8 36  1  0  0  0
  9 37  1  0  0  0
 10 11  1  0  0  0
 10 15  1  0  0  0
 10 38  1  0  0  0
 11 12  1  0  0  0
 11 39  1  0  0  0
 11 40  1  0  0  0
 12 13  2  0  0  0
 12 41  1  0  0  0
 13 14  1  0  0  0
 14 15  2  0  0  0
 14 42  1  0  0  0
 15 43  1  0  0  0
 16 17  1  0  0  0
 16 44  1  0  0  0
 17 18  2  0  0  0
 17 19  1  0  0  0
 19 20  2  0  0  0
 19 25  1  0  0  0
 20 21  1  0  0  0
 20 45  1  0  0  0
 21 22  1  0  0  0
 21 23  2  0  0  0
 23 24  1  0  0  0
 23 46  1  0  0  0
 24 25  2  0  0  0
 24 47  1  0  0  0
 25 26  1  0  0  0
 26 27  1  0  0  0
 26 48  1  0  0  0
 27 28  2  0  0  0
M  END
> <s_m_entry_id>
28533

> <s_m_entry_name>
dock_pv.694

> <s_m_Source_Path>
/home/csk/Desktop/cluster/DUD-E-result/rock1

> <s_m_Source_File>
dock_pv.maegz

> <i_m_Source_File_Index>
694

> <chembl_id>
CHEMBL3934988

> <chembl_pref_name>
None

> <i_lp_mmshare_version>
53161

> <r_lp_tautomer_probability>
1

> <s_lp_Force_Field>
OPLS_2005

> <r_lp_Energy>
41.555103

> <b_lp_Chiralities_Consistent>
1

> <s_lp_Variant>
CHEMBL3231_lig538-1

> <s_i_glide_gridfile>
glide-grid_2etr

> <i_i_glide_lignum>
814

> <i_i_glide_rotatable_bonds>
3

> <r_i_docking_score>
-7.08109660799692

> <r_i_glide_ligand_efficiency>
-0.252896307428461

> <r_i_glide_ligand_efficiency_sa>
-0.767942137312363

> <r_i_glide_ligand_efficiency_ln>
-1.63452500715636

> <r_i_glide_gscore>
-7.08109660799692

> <r_i_glide_lipo>
-2.35529201556062

> <r_i_glide_hbond>
-0.14232104314341

> <r_i_glide_metal>
0

> <r_i_glide_rewards>
-2.12355032730671

> <r_i_glide_evdw>
-47.4720497131348

> <r_i_glide_ecoul>
-2.67258310317993

> <r_i_glide_erotb>
0.37785929908351

> <r_i_glide_esite>
-0.0633025699359609

> <r_i_glide_emodel>
-62.9064981126901

> <r_i_glide_energy>
-50.1446328163147

> <r_i_glide_einternal>
12.2016468048096

> <i_i_glide_confnum>
26

> <i_i_glide_posenum>
312

> <r_i_glide_eff_state_penalty>
0

> <s_user_duplicate_titles>
CHEMBL3231_lig538

> <i_f3d_flags>
0

> <s_m_subgroup_title>
dock_pv

> <s_m_subgroupid>
dock_pv

> <b_m_subgroup_collapsed>
1

$$$$
CHEMBL3231_lig227
                    3D
 Schrodinger Suite 2021-1.
 61 64  0  0  1  0            999 V2000
   53.7035  101.7466   32.2783 C   0  0  0  0  0  0
   52.4765  102.0386   31.7963 N   0  0  0  0  0  0
   50.5415  100.0006   26.8511 C   0  0  0  0  0  0
   54.2408  101.2412   34.6483 N   0  0  1  0  0  0
   54.1318  102.3259   33.6603 C   0  0  2  0  0  0
   51.8764  102.8725   34.7476 C   0  0  0  0  0  0
   49.7514   99.7617   24.8110 N   0  0  0  0  0  0
   51.0005  100.5350   28.1640 C   0  0  0  0  0  0
   51.9497  101.4984   30.6155 C   0  0  0  0  0  0
   50.0430   98.5188   25.2003 N   0  0  0  0  0  0
   53.2070  103.4279   34.2443 C   0  0  0  0  0  0
   51.7139  100.1158   30.4622 C   0  0  0  0  0  0
   51.2432   99.6583   29.2229 C   0  0  0  0  0  0
   51.7751  101.5138   35.1133 C   0  0  0  0  0  0
   50.5200   98.6639   26.4118 C   0  0  0  0  0  0
   52.9696  100.5672   34.9450 C   0  0  0  0  0  0
   50.0425  100.6997   25.7635 C   0  0  0  0  0  0
   50.7473  103.6903   34.8244 C   0  0  0  0  0  0
   54.4939  101.0292   31.6716 O   0  0  0  0  0  0
   51.1873  101.9043   28.3613 C   0  0  0  0  0  0
   51.6648  102.3858   29.5764 C   0  0  0  0  0  0
   50.5421  101.0253   35.5543 C   0  0  0  0  0  0
   49.5135  103.1904   35.2292 C   0  0  0  0  0  0
   51.8984   99.2834   31.5552 O   0  0  0  0  0  0
   54.2716   97.9490   32.2867 N   0  0  0  0  0  0
   49.4187  101.8463   35.6107 C   0  0  0  0  0  0
   51.9286   97.8575   31.3936 C   0  0  0  0  0  0
   48.4530  104.0683   35.2112 O   0  0  0  0  0  0
   52.9942   97.2344   32.3217 C   0  0  0  0  0  0
   54.8468   98.0326   30.9442 C   0  0  0  0  0  0
   55.2400   97.3575   33.2045 C   0  0  0  0  0  0
   47.1479  103.5206   35.0914 C   0  0  0  0  0  0
   51.8992  102.6735   32.3233 H   0  0  0  0  0  0
   54.9300  100.5634   34.3419 H   0  0  0  0  0  0
   55.1233  102.7437   33.4743 H   0  0  0  0  0  0
   49.3503   99.9564   23.8977 H   0  0  0  0  0  0
   53.0601  104.2380   33.5277 H   0  0  0  0  0  0
   53.7133  103.8759   35.1005 H   0  0  0  0  0  0
   51.0218   98.6162   29.0734 H   0  0  0  0  0  0
   50.8499   97.8043   26.9758 H   0  0  0  0  0  0
   53.1091   99.9759   35.8509 H   0  0  0  0  0  0
   52.7436   99.8594   34.1453 H   0  0  0  0  0  0
   49.8509  101.7504   25.6031 H   0  0  0  0  0  0
   50.8244  104.7316   34.5452 H   0  0  0  0  0  0
   50.9760  102.6021   27.5671 H   0  0  0  0  0  0
   51.8420  103.4459   29.6944 H   0  0  0  0  0  0
   50.4493   99.9853   35.8321 H   0  0  0  0  0  0
   48.4825  101.4274   35.9495 H   0  0  0  0  0  0
   50.9388   97.4587   31.6109 H   0  0  0  0  0  0
   52.1670   97.5177   30.3876 H   0  0  0  0  0  0
   52.6146   97.2202   33.3432 H   0  0  0  0  0  0
   53.1711   96.1977   32.0305 H   0  0  0  0  0  0
   54.1540   98.4511   30.2157 H   0  0  0  0  0  0
   55.6868   98.7205   30.9588 H   0  0  0  0  0  0
   55.1921   97.0641   30.5795 H   0  0  0  0  0  0
   54.8526   97.3516   34.2235 H   0  0  0  0  0  0
   55.4864   96.3323   32.9245 H   0  0  0  0  0  0
   56.1651   97.9370   33.2127 H   0  0  0  0  0  0
   46.4431  104.3032   34.8213 H   0  0  0  0  0  0
   46.8430  103.1032   36.0417 H   0  0  0  0  0  0
   47.0866  102.7444   34.3255 H   0  0  0  0  0  0
  1  2  1  0  0  0
  1  5  1  0  0  0
  1 19  2  0  0  0
  2  9  1  0  0  0
  2 33  1  0  0  0
  3 17  2  0  0  0
  3 15  1  0  0  0
  3  8  1  0  0  0
  4  5  1  0  0  0
  4 16  1  0  0  0
  4 34  1  0  0  0
  5 11  1  0  0  0
  5 35  1  0  0  0
  6 11  1  0  0  0
  6 18  1  0  0  0
  6 14  2  0  0  0
  7 10  1  0  0  0
  7 36  1  0  0  0
  7 17  1  0  0  0
  8 20  1  0  0  0
  8 13  2  0  0  0
  9 12  2  0  0  0
  9 21  1  0  0  0
 10 15  2  0  0  0
 11 37  1  0  0  0
 11 38  1  0  0  0
 12 13  1  0  0  0
 12 24  1  0  0  0
 13 39  1  0  0  0
 14 16  1  0  0  0
 14 22  1  0  0  0
 15 40  1  0  0  0
 16 41  1  0  0  0
 16 42  1  0  0  0
 17 43  1  0  0  0
 18 23  2  0  0  0
 18 44  1  0  0  0
 20 21  2  0  0  0
 20 45  1  0  0  0
 21 46  1  0  0  0
 22 26  2  0  0  0
 22 47  1  0  0  0
 23 28  1  0  0  0
 23 26  1  0  0  0
 24 27  1  0  0  0
 25 29  1  0  0  0
 25 30  1  0  0  0
 25 31  1  0  0  0
 26 48  1  0  0  0
 27 29  1  0  0  0
 27 49  1  0  0  0
 27 50  1  0  0  0
 28 32  1  0  0  0
 29 51  1  0  0  0
 29 52  1  0  0  0
 30 53  1  0  0  0
 30 54  1  0  0  0
 30 55  1  0  0  0
 31 56  1  0  0  0
 31 57  1  0  0  0
 31 58  1  0  0  0
 32 59  1  0  0  0
 32 60  1  0  0  0
 32 61  1  0  0  0
M  END
> <s_m_entry_id>
28534

> <s_m_entry_name>
dock_pv.695

> <s_m_Source_Path>
/home/csk/Desktop/cluster/DUD-E-result/rock1

> <s_m_Source_File>
dock_pv.maegz

> <i_m_Source_File_Index>
695

> <chembl_id>
CHEMBL1215171

> <chembl_pref_name>
None

> <i_lp_mmshare_version>
53161

> <r_lp_tautomer_probability>
0.5

> <s_lp_Force_Field>
OPLS_2005

> <r_lp_Energy>
37.790525

> <b_lp_Chiralities_Consistent>
1

> <s_lp_Variant>
CHEMBL3231_lig227-1

> <s_i_glide_gridfile>
glide-grid_2etr

> <i_i_glide_lignum>
371

> <i_i_glide_rotatable_bonds>
9

> <r_i_docking_score>
-7.07968829838428

> <r_i_glide_ligand_efficiency>
-0.221240259324509

> <r_i_glide_ligand_efficiency_sa>
-0.702394039967447

> <r_i_glide_ligand_efficiency_ln>
-1.58533519502257

> <r_i_glide_gscore>
-7.07968829838428

> <r_i_glide_lipo>
-2.77435807118989

> <r_i_glide_hbond>
-0.454769741192642

> <r_i_glide_metal>
0

> <r_i_glide_rewards>
-1.40669837439169

> <r_i_glide_evdw>
-48.7350807189941

> <r_i_glide_ecoul>
-3.19077253341675

> <r_i_glide_erotb>
0.514731335751425

> <r_i_glide_esite>
-0.0432235313992602

> <r_i_glide_emodel>
-70.3685350098224

> <r_i_glide_energy>
-51.9258532524109

> <r_i_glide_einternal>
6.93420314788818

> <i_i_glide_confnum>
21

> <i_i_glide_posenum>
80

> <r_i_glide_eff_state_penalty>
0

> <s_user_duplicate_titles>
CHEMBL3231_lig227,687032

> <i_f3d_flags>
0

> <s_m_subgroup_title>
dock_pv

> <s_m_subgroupid>
dock_pv

> <b_m_subgroup_collapsed>
1

$$$$
CHEMBL3231_lig1164
                    3D
 Schrodinger Suite 2021-1.
 20 22  0  0  1  0            999 V2000
   52.9314  100.3249   33.0048 Cl  0  0  0  0  0  0
   50.8441   97.8331   28.1513 O   0  0  0  0  0  0
   50.0431   97.9850   25.2111 O   0  0  0  0  0  0
   51.2424  101.3024   27.3570 N   0  0  0  0  0  0
   50.4355  100.2127   25.4524 N   0  0  0  0  0  0
   51.2313  100.0801   27.9647 C   0  0  0  0  0  0
   51.5963   99.6908   29.2909 C   0  0  0  0  0  0
   50.8120   98.9112   27.3229 C   0  0  0  0  0  0
   51.3175   98.3028   29.3452 C   0  0  0  0  0  0
   50.3928   98.9226   25.9244 C   0  0  0  0  0  0
   52.1025  100.3273   30.4358 C   0  0  0  0  0  0
   51.5252   97.5344   30.4919 C   0  0  0  0  0  0
   52.3168   99.5620   31.5852 C   0  0  0  0  0  0
   50.8390  101.3519   26.1311 C   0  0  0  0  0  0
   52.0432   98.1927   31.6081 C   0  0  0  0  0  0
   50.1285  100.3070   24.4958 H   0  0  0  0  0  0
   52.3308  101.3821   30.4266 H   0  0  0  0  0  0
   51.3172   96.4738   30.5039 H   0  0  0  0  0  0
   50.8078  102.3029   25.6109 H   0  0  0  0  0  0
   52.2391   97.6243   32.5071 H   0  0  0  0  0  0
  1 13  1  0  0  0
  2  8  1  0  0  0
  2  9  1  0  0  0
  3 10  2  0  0  0
  4  6  1  0  0  0
  4 14  2  0  0  0
  5 10  1  0  0  0
  5 14  1  0  0  0
  5 16  1  0  0  0
  6  7  1  0  0  0
  6  8  2  0  0  0
  7  9  1  0  0  0
  7 11  2  0  0  0
  8 10  1  0  0  0
  9 12  2  0  0  0
 11 13  1  0  0  0
 11 17  1  0  0  0
 12 15  1  0  0  0
 12 18  1  0  0  0
 13 15  2  0  0  0
 14 19  1  0  0  0
 15 20  1  0  0  0
M  END
> <s_m_entry_id>
28535

> <s_m_entry_name>
dock_pv.696

> <s_m_Source_Path>
/home/csk/Desktop/cluster/DUD-E-result/rock1

> <s_m_Source_File>
dock_pv.maegz

> <i_m_Source_File_Index>
696

> <chembl_id>
CHEMBL1992323

> <chembl_pref_name>
None

> <i_lp_mmshare_version>
53161

> <r_lp_tautomer_probability>
1

> <s_lp_Force_Field>
OPLS_2005

> <r_lp_Energy>
20.344558

> <b_lp_Chiralities_Consistent>
1

> <s_lp_Variant>
CHEMBL3231_lig1164-1

> <s_i_glide_gridfile>
glide-grid_2etr

> <i_i_glide_lignum>
1612

> <i_i_glide_rotatable_bonds>
0

> <r_i_docking_score>
-7.07725331722

> <r_i_glide_ligand_efficiency>
-0.471816887814667

> <r_i_glide_ligand_efficiency_sa>
-1.16360050455119

> <r_i_glide_ligand_efficiency_ln>
-1.90861852817319

> <r_i_glide_gscore>
-7.07725331722

> <r_i_glide_lipo>
-1.47970456172915

> <r_i_glide_hbond>
-0.32

> <r_i_glide_metal>
0

> <r_i_glide_rewards>
-3.19658757575758

> <r_i_glide_evdw>
-28.6120548248291

> <r_i_glide_ecoul>
-4.33572292327881

> <r_i_glide_erotb>
0

> <r_i_glide_esite>
0

> <r_i_glide_emodel>
-46.6364476384384

> <r_i_glide_energy>
-32.9477777481079

> <r_i_glide_einternal>
0

> <i_i_glide_confnum>
1

> <i_i_glide_posenum>
129

> <r_i_glide_eff_state_penalty>
0

> <s_user_duplicate_titles>
CHEMBL3231_lig1164

> <i_f3d_flags>
0

> <s_m_subgroup_title>
dock_pv

> <s_m_subgroupid>
dock_pv

> <b_m_subgroup_collapsed>
1

$$$$
CHEMBL3231_lig1709
                    3D
 Schrodinger Suite 2021-1.
 30 32  0  0  1  0            999 V2000
   50.1118   99.7121   25.4403 C   0  0  0  0  0  0
   50.7070   98.7128   26.2081 C   0  0  0  0  0  0
   51.2460   99.0092   27.4598 C   0  0  0  0  0  0
   50.0430  101.0118   25.9339 C   0  0  0  0  0  0
   50.5614  101.3057   27.1925 C   0  0  0  0  0  0
   51.1821  100.3135   27.9707 C   0  0  0  0  0  0
   51.7503  100.7368   29.2901 C   0  0  0  0  0  0
   51.6082  102.0423   29.6791 C   0  0  0  0  0  0
   50.8767  103.0453   28.8896 C   0  0  0  0  0  0
   50.4430  102.6004   27.6972 N   0  0  0  0  0  0
   52.5345   99.7706   30.1073 C   0  0  0  0  0  0
   53.8768  100.0301   30.4110 C   0  0  0  0  0  0
   54.6311   99.1092   31.1302 C   0  0  0  0  0  0
   54.0430   97.9238   31.5588 C   0  0  0  0  0  0
   52.7045   97.6603   31.2826 C   0  0  0  0  0  0
   51.9489   98.5849   30.5663 C   0  0  0  0  0  0
   50.6182  104.2049   29.2110 O   0  0  0  0  0  0
   50.7814   97.1030   25.6110 Cl  0  0  0  0  0  0
   52.1226  102.5521   30.8546 N   0  0  0  0  0  0
   49.6966   99.4841   24.4682 H   0  0  0  0  0  0
   51.7250   98.2159   28.0124 H   0  0  0  0  0  0
   49.5586  101.7766   25.3464 H   0  0  0  0  0  0
   49.9521  103.3017   27.1656 H   0  0  0  0  0  0
   54.3505  100.9390   30.0680 H   0  0  0  0  0  0
   55.6724   99.3076   31.3422 H   0  0  0  0  0  0
   54.6344   97.2031   32.1055 H   0  0  0  0  0  0
   52.2630   96.7323   31.6110 H   0  0  0  0  0  0
   50.9116   98.3697   30.3539 H   0  0  0  0  0  0
   52.6701  101.9680   31.4723 H   0  0  0  0  0  0
   52.1250  103.5472   31.0324 H   0  0  0  0  0  0
  1  4  1  0  0  0
  1  2  2  0  0  0
  1 20  1  0  0  0
  2  3  1  0  0  0
  2 18  1  0  0  0
  3  6  2  0  0  0
  3 21  1  0  0  0
  4  5  2  0  0  0
  4 22  1  0  0  0
  5 10  1  0  0  0
  5  6  1  0  0  0
  6  7  1  0  0  0
  7 11  1  0  0  0
  7  8  2  0  0  0
  8  9  1  0  0  0
  8 19  1  0  0  0
  9 10  1  0  0  0
  9 17  2  0  0  0
 10 23  1  0  0  0
 11 12  2  0  0  0
 11 16  1  0  0  0
 12 13  1  0  0  0
 12 24  1  0  0  0
 13 14  2  0  0  0
 13 25  1  0  0  0
 14 15  1  0  0  0
 14 26  1  0  0  0
 15 16  2  0  0  0
 15 27  1  0  0  0
 16 28  1  0  0  0
 19 29  1  0  0  0
 19 30  1  0  0  0
M  END
> <s_m_entry_id>
28537

> <s_m_entry_name>
dock_pv.698

> <s_m_Source_Path>
/home/csk/Desktop/cluster/DUD-E-result/rock1

> <s_m_Source_File>
dock_pv.maegz

> <i_m_Source_File_Index>
698

> <chembl_id>
CHEMBL462120

> <chembl_pref_name>
None

> <i_lp_mmshare_version>
53161

> <r_lp_tautomer_probability>
1

> <s_lp_Force_Field>
OPLS_2005

> <r_lp_Energy>
25.531073

> <b_lp_Chiralities_Consistent>
1

> <s_lp_Variant>
CHEMBL3231_lig1709-1

> <s_i_glide_gridfile>
glide-grid_2etr

> <i_i_glide_lignum>
2438

> <i_i_glide_rotatable_bonds>
1

> <r_i_docking_score>
-7.07376190707587

> <r_i_glide_ligand_efficiency>
-0.372303258267151

> <r_i_glide_ligand_efficiency_sa>
-0.993454627209563

> <r_i_glide_ligand_efficiency_ln>
-1.79335057391881

> <r_i_glide_gscore>
-7.07376190707587

> <r_i_glide_lipo>
-2.72545137663235

> <r_i_glide_hbond>
-0.0304950581943247

> <r_i_glide_metal>
0

> <r_i_glide_rewards>
-1.89665146969697

> <r_i_glide_evdw>
-35.1804542541504

> <r_i_glide_ecoul>
-5.80372858047485

> <r_i_glide_erotb>
0.244128348388977

> <r_i_glide_esite>
-0.0357103511624604

> <r_i_glide_emodel>
-58.7572262746923

> <r_i_glide_energy>
-40.9841828346252

> <r_i_glide_einternal>
0.104743793606758

> <i_i_glide_confnum>
3

> <i_i_glide_posenum>
371

> <r_i_glide_eff_state_penalty>
0

> <s_user_duplicate_titles>
CHEMBL3231_lig1709

> <i_f3d_flags>
0

> <s_m_subgroup_title>
dock_pv

> <s_m_subgroupid>
dock_pv

> <b_m_subgroup_collapsed>
1

$$$$
CHEMBL3231_lig175
                    3D
 Schrodinger Suite 2021-1.
 51 54  0  0  1  0            999 V2000
   51.2735  102.1349   28.5729 C   0  0  0  0  0  0
   51.2910  100.7343   28.5839 C   0  0  0  0  0  0
   51.7620  100.0836   29.6860 N   0  0  0  0  0  0
   52.2268  100.8032   30.7478 C   0  0  0  0  0  0
   52.1996  102.2181   30.7128 C   0  0  0  0  0  0
   51.7353  102.8706   29.6125 N   0  0  0  0  0  0
   52.6135  103.0860   31.7384 N   0  0  0  0  0  0
   50.8457   99.8910   27.4205 C   0  0  0  0  0  0
   50.4306  100.4720   26.2079 C   0  0  0  0  0  0
   50.0416   99.6579   25.1449 C   0  0  0  0  0  0
   50.0431   98.3054   25.2112 N   0  0  0  0  0  0
   50.4430   97.7411   26.3762 C   0  0  0  0  0  0
   50.8479   98.4843   27.4856 C   0  0  0  0  0  0
   52.7836  100.0529   31.7794 N   0  0  0  0  0  0
   52.4078  102.8790   33.1800 C   0  0  0  0  0  0
   53.5008  103.6572   33.9149 C   0  0  0  0  0  0
   54.6028  103.7502   32.8897 C   0  0  0  0  0  0
   53.8191  103.9039   31.5946 C   0  0  0  0  0  0
   54.1995  100.1946   32.1827 C   0  0  0  0  0  0
   55.0150   98.8995   31.9566 C   0  0  0  0  0  0
   54.3614   97.6999   32.6765 C   0  0  0  0  0  0
   52.9474   97.5692   32.0880 C   0  0  0  0  0  0
   52.1378   98.8555   32.3475 C   0  0  0  0  0  0
   55.1438   96.3722   32.5709 C   0  0  0  0  0  0
   56.4426   96.4560   33.2110 N   0  0  0  0  0  0
   50.9074  102.7016   27.7324 H   0  0  0  0  0  0
   50.4022  101.5392   26.0665 H   0  0  0  0  0  0
   49.7209  100.0929   24.2093 H   0  0  0  0  0  0
   50.4411   96.6610   26.4114 H   0  0  0  0  0  0
   51.1623   97.9618   28.3783 H   0  0  0  0  0  0
   51.4581  103.3340   33.4674 H   0  0  0  0  0  0
   52.4709  101.8439   33.5050 H   0  0  0  0  0  0
   53.1417  104.6489   34.2033 H   0  0  0  0  0  0
   53.8304  103.1477   34.8203 H   0  0  0  0  0  0
   55.2306  102.8580   32.8591 H   0  0  0  0  0  0
   55.2576  104.6044   33.0700 H   0  0  0  0  0  0
   54.4447  103.5329   30.7837 H   0  0  0  0  0  0
   53.5793  104.9606   31.4726 H   0  0  0  0  0  0
   54.2474  100.4893   33.2337 H   0  0  0  0  0  0
   54.6683  101.0022   31.6168 H   0  0  0  0  0  0
   56.0343   99.0500   32.3240 H   0  0  0  0  0  0
   55.1572   98.7090   30.8897 H   0  0  0  0  0  0
   54.2597   97.9545   33.7345 H   0  0  0  0  0  0
   52.9642   97.3115   31.0294 H   0  0  0  0  0  0
   52.4444   96.7204   32.5563 H   0  0  0  0  0  0
   52.0535   99.0191   33.4239 H   0  0  0  0  0  0
   51.1180   98.7501   31.9784 H   0  0  0  0  0  0
   55.2764   96.0738   31.5295 H   0  0  0  0  0  0
   54.5868   95.5750   33.0628 H   0  0  0  0  0  0
   57.0674   97.0114   32.6242 H   0  0  0  0  0  0
   56.3775   96.9374   34.0960 H   0  0  0  0  0  0
  1  2  2  0  0  0
  1  6  1  0  0  0
  1 26  1  0  0  0
  2  8  1  0  0  0
  2  3  1  0  0  0
  3  4  2  0  0  0
  4 14  1  0  0  0
  4  5  1  0  0  0
  5  7  1  0  0  0
  5  6  2  0  0  0
  7 15  1  0  0  0
  7 18  1  0  0  0
  8 13  1  0  0  0
  8  9  2  0  0  0
  9 10  1  0  0  0
  9 27  1  0  0  0
 10 11  2  0  0  0
 10 28  1  0  0  0
 11 12  1  0  0  0
 12 13  2  0  0  0
 12 29  1  0  0  0
 13 30  1  0  0  0
 14 19  1  0  0  0
 14 23  1  0  0  0
 15 16  1  0  0  0
 15 31  1  0  0  0
 15 32  1  0  0  0
 16 17  1  0  0  0
 16 33  1  0  0  0
 16 34  1  0  0  0
 17 18  1  0  0  0
 17 35  1  0  0  0
 17 36  1  0  0  0
 18 37  1  0  0  0
 18 38  1  0  0  0
 19 20  1  0  0  0
 19 39  1  0  0  0
 19 40  1  0  0  0
 20 21  1  0  0  0
 20 41  1  0  0  0
 20 42  1  0  0  0
 21 22  1  0  0  0
 21 24  1  0  0  0
 21 43  1  0  0  0
 22 23  1  0  0  0
 22 44  1  0  0  0
 22 45  1  0  0  0
 23 46  1  0  0  0
 23 47  1  0  0  0
 24 25  1  0  0  0
 24 48  1  0  0  0
 24 49  1  0  0  0
 25 50  1  0  0  0
 25 51  1  0  0  0
M  END
> <s_m_entry_id>
28539

> <s_m_entry_name>
dock_pv.700

> <s_m_Source_Path>
/home/csk/Desktop/cluster/DUD-E-result/rock1

> <s_m_Source_File>
dock_pv.maegz

> <i_m_Source_File_Index>
700

> <chembl_id>
CHEMBL591285

> <chembl_pref_name>
None

> <i_lp_mmshare_version>
53161

> <r_lp_tautomer_probability>
1

> <s_lp_Force_Field>
OPLS_2005

> <r_lp_Energy>
59.257704

> <b_lp_Chiralities_Consistent>
1

> <s_lp_Variant>
CHEMBL3231_lig175-1

> <s_i_glide_gridfile>
glide-grid_2etr

> <i_i_glide_lignum>
302

> <i_i_glide_rotatable_bonds>
4

> <r_i_docking_score>
-7.06599565728312

> <r_i_glide_ligand_efficiency>
-0.282639826291325

> <r_i_glide_ligand_efficiency_sa>
-0.826443864714497

> <r_i_glide_ligand_efficiency_ln>
-1.67485272157871

> <r_i_glide_gscore>
-7.06599565728312

> <r_i_glide_lipo>
-2.08346125234293

> <r_i_glide_hbond>
-0.380421923579762

> <r_i_glide_metal>
0

> <r_i_glide_rewards>
-2.45147768181818

> <r_i_glide_evdw>
-38.6865425109863

> <r_i_glide_ecoul>
-4.40043973922729

> <r_i_glide_erotb>
0.495305194502528

> <r_i_glide_esite>
-0.0515469076113613

> <r_i_glide_emodel>
-58.1349045312533

> <r_i_glide_energy>
-43.0869822502136

> <r_i_glide_einternal>
8.0157527923584

> <i_i_glide_confnum>
18

> <i_i_glide_posenum>
41

> <r_i_glide_eff_state_penalty>
0

> <s_user_duplicate_titles>
CHEMBL3231_lig175,599135

> <i_f3d_flags>
0

> <s_m_subgroup_title>
dock_pv

> <s_m_subgroupid>
dock_pv

> <b_m_subgroup_collapsed>
1

$$$$
CHEMBL3231_lig1768
                    3D
 Schrodinger Suite 2021-1.
 33 34  0  0  1  0            999 V2000
   50.9303   98.9753   27.3890 C   0  0  0  0  0  0
   51.2436   98.4767   28.6628 C   0  0  0  0  0  0
   51.7529   99.3091   29.6739 C   0  0  0  0  0  0
   51.9393  100.6693   29.3920 C   0  0  0  0  0  0
   51.6040  101.1818   28.1373 C   0  0  0  0  0  0
   51.1045  100.3518   27.1358 C   0  0  0  0  0  0
   50.7482  101.0977   25.6109 Cl  0  0  0  0  0  0
   52.0688   98.8753   30.9510 O   0  0  0  0  0  0
   51.8557   97.5181   31.3192 C   0  0  0  0  0  0
   52.5002  101.5013   30.3727 N   0  0  0  0  0  0
   51.8667  102.5380   30.9487 C   0  0  0  0  0  0
   52.5133  102.9569   32.0526 N   0  0  0  0  0  0
   50.7862  103.0025   30.5726 O   0  0  0  0  0  0
   51.9080  103.4625   33.2122 C   0  0  0  0  0  0
   52.6607  104.3025   33.9741 N   0  0  0  0  0  0
   52.0917  104.8127   35.1019 C   0  0  0  0  0  0
   50.7897  104.4624   35.4778 C   0  0  0  0  0  0
   50.0428  103.5981   34.7445 N   0  0  0  0  0  0
   50.6068  103.1049   33.6108 C   0  0  0  0  0  0
   50.1525  105.0028   36.6658 C   0  0  0  0  0  0
   49.6425  105.4327   37.6110 N   0  0  0  0  0  0
   50.4429   97.9861   26.3792 C   0  0  0  0  0  0
   50.0431   98.2378   25.2409 O   0  0  0  0  0  0
   51.1087   97.4242   28.8685 H   0  0  0  0  0  0
   51.7459  102.2354   27.9438 H   0  0  0  0  0  0
   52.0434   97.4139   32.3877 H   0  0  0  0  0  0
   50.8294   97.1981   31.1318 H   0  0  0  0  0  0
   52.5431   96.8444   30.8109 H   0  0  0  0  0  0
   53.3079  101.1267   30.8480 H   0  0  0  0  0  0
   53.5179  102.8719   32.0751 H   0  0  0  0  0  0
   52.6950  105.5021   35.6754 H   0  0  0  0  0  0
   50.0117  102.4018   33.0469 H   0  0  0  0  0  0
   50.4607   96.9508   26.7208 H   0  0  0  0  0  0
  1  6  2  0  0  0
  1  2  1  0  0  0
  1 22  1  0  0  0
  2  3  2  0  0  0
  2 24  1  0  0  0
  3  4  1  0  0  0
  3  8  1  0  0  0
  4  5  2  0  0  0
  4 10  1  0  0  0
  5  6  1  0  0  0
  5 25  1  0  0  0
  6  7  1  0  0  0
  8  9  1  0  0  0
  9 26  1  0  0  0
  9 27  1  0  0  0
  9 28  1  0  0  0
 10 11  1  0  0  0
 10 29  1  0  0  0
 11 12  1  0  0  0
 11 13  2  0  0  0
 12 14  1  0  0  0
 12 30  1  0  0  0
 14 15  2  0  0  0
 14 19  1  0  0  0
 15 16  1  0  0  0
 16 17  2  0  0  0
 16 31  1  0  0  0
 17 18  1  0  0  0
 17 20  1  0  0  0
 18 19  2  0  0  0
 19 32  1  0  0  0
 20 21  3  0  0  0
 22 23  2  0  0  0
 22 33  1  0  0  0
M  END
> <s_m_entry_id>
28541

> <s_m_entry_name>
dock_pv.702

> <s_m_Source_Path>
/home/csk/Desktop/cluster/DUD-E-result/rock1

> <s_m_Source_File>
dock_pv.maegz

> <i_m_Source_File_Index>
702

> <chembl_id>
CHEMBL207995

> <chembl_pref_name>
None

> <i_lp_mmshare_version>
53161

> <r_lp_tautomer_probability>
1

> <s_lp_Force_Field>
OPLS_2005

> <r_lp_Energy>
26.754749

> <b_lp_Chiralities_Consistent>
1

> <s_lp_Variant>
CHEMBL3231_lig1768-1

> <s_i_glide_gridfile>
glide-grid_2etr

> <i_i_glide_lignum>
2530

> <i_i_glide_rotatable_bonds>
6

> <r_i_docking_score>
-7.0594738614112

> <r_i_glide_ligand_efficiency>
-0.306933646148313

> <r_i_glide_ligand_efficiency_sa>
-0.872878460374331

> <r_i_glide_ligand_efficiency_ln>
-1.70704479145913

> <r_i_glide_gscore>
-7.0594738614112

> <r_i_glide_lipo>
-1.68534948782351

> <r_i_glide_hbond>
-0.56410121463319

> <r_i_glide_metal>
0

> <r_i_glide_rewards>
-2.1332828073583

> <r_i_glide_evdw>
-40.2919998168945

> <r_i_glide_ecoul>
-8.37099742889404

> <r_i_glide_erotb>
0.684332345733655

> <r_i_glide_esite>
-0.0908230921510238

> <r_i_glide_emodel>
-61.6457040306411

> <r_i_glide_energy>
-48.6629972457886

> <r_i_glide_einternal>
16.714729309082

> <i_i_glide_confnum>
3

> <i_i_glide_posenum>
98

> <r_i_glide_eff_state_penalty>
0

> <s_user_duplicate_titles>
CHEMBL3231_lig1768

> <i_f3d_flags>
0

> <s_m_subgroup_title>
dock_pv

> <s_m_subgroupid>
dock_pv

> <b_m_subgroup_collapsed>
1

$$$$
CHEMBL3231_lig1899
                    3D
 Schrodinger Suite 2021-1.
 41 43  0  0  1  0            999 V2000
   50.2341   99.9315   25.7302 Cl  0  0  0  0  0  0
   54.7115  101.0614   34.1708 O   0  0  0  0  0  0
   52.0024  101.9194   31.0233 O   0  0  0  0  0  0
   50.8726   97.5023   30.2350 O   0  0  0  0  0  0
   55.6304  103.5028   32.8109 O   0  0  0  0  0  0
   54.0430  103.9030   30.2713 O   0  0  0  0  0  0
   53.6104   99.3419   32.9322 N   0  0  0  0  0  0
   52.1791   99.3367   30.4801 N   0  0  0  0  0  0
   52.4430   97.5030   31.8254 N   0  0  0  0  0  0
   55.0513   97.4153   34.3768 N   0  0  0  0  0  0
   56.8823   99.3174   36.5374 N   0  0  0  0  0  0
   54.5238   99.7162   33.8810 C   0  0  0  0  0  0
   51.6621  100.1650   29.4735 C   0  0  0  0  0  0
   53.4113   98.0049   32.7173 C   0  0  0  0  0  0
   55.2331   98.7414   34.5969 C   0  0  0  0  0  0
   51.6020  101.5384   29.7526 C   0  0  0  0  0  0
   51.7804   98.0971   30.8115 C   0  0  0  0  0  0
   54.1332   97.0572   33.4449 C   0  0  0  0  0  0
   51.2470   99.6686   28.2282 C   0  0  0  0  0  0
   51.1089  102.4043   28.7625 C   0  0  0  0  0  0
   50.7530  100.5390   27.2609 C   0  0  0  0  0  0
   54.4929  102.7553   32.3792 C   0  0  2  0  0  0
   53.5467  103.7134   31.5844 C   0  0  2  0  0  0
   53.8613  102.0755   33.6215 C   0  0  0  0  0  0
   50.6821  101.9026   27.5317 C   0  0  0  0  0  0
   52.0746  103.2772   31.4409 C   0  0  0  0  0  0
   56.1558   99.0643   35.6736 C   0  0  0  0  0  0
   55.9416  104.0484   32.0793 H   0  0  0  0  0  0
   54.7620  104.5495   30.3092 H   0  0  0  0  0  0
   52.8150   99.7841   31.1281 H   0  0  0  0  0  0
   52.2074   96.5271   31.9659 H   0  0  0  0  0  0
   53.9896   95.9960   33.3000 H   0  0  0  0  0  0
   51.3106   98.6133   28.0058 H   0  0  0  0  0  0
   51.0470  103.4691   28.9081 H   0  0  0  0  0  0
   54.8419  101.9663   31.7092 H   0  0  0  0  0  0
   53.5398  104.6946   32.0654 H   0  0  0  0  0  0
   53.6968  102.8258   34.3958 H   0  0  0  0  0  0
   52.8687  101.6780   33.4161 H   0  0  0  0  0  0
   50.3020  102.5796   26.7801 H   0  0  0  0  0  0
   51.5958  103.3225   32.4190 H   0  0  0  0  0  0
   51.5149  103.9802   30.8311 H   0  0  0  0  0  0
  1 21  1  0  0  0
  2 12  1  0  0  0
  2 24  1  0  0  0
  3 16  1  0  0  0
  3 26  1  0  0  0
  4 17  2  0  0  0
  5 22  1  0  0  0
  5 28  1  0  0  0
  6 23  1  0  0  0
  6 29  1  0  0  0
  7 12  2  0  0  0
  7 14  1  0  0  0
  8 13  1  0  0  0
  8 17  1  0  0  0
  8 30  1  0  0  0
  9 14  1  0  0  0
  9 17  1  0  0  0
  9 31  1  0  0  0
 10 15  2  0  0  0
 10 18  1  0  0  0
 11 27  3  0  0  0
 12 15  1  0  0  0
 13 16  1  0  0  0
 13 19  2  0  0  0
 14 18  2  0  0  0
 15 27  1  0  0  0
 16 20  2  0  0  0
 18 32  1  0  0  0
 19 21  1  0  0  0
 19 33  1  0  0  0
 20 25  1  0  0  0
 20 34  1  0  0  0
 21 25  2  0  0  0
 22 23  1  0  0  0
 22 24  1  0  0  0
 22 35  1  0  0  0
 23 26  1  0  0  0
 23 36  1  0  0  0
 24 37  1  0  0  0
 24 38  1  0  0  0
 25 39  1  0  0  0
 26 40  1  0  0  0
 26 41  1  0  0  0
M  END
> <s_m_entry_id>
28542

> <s_m_entry_name>
dock_pv.703

> <s_m_Source_Path>
/home/csk/Desktop/cluster/DUD-E-result/rock1

> <s_m_Source_File>
dock_pv.maegz

> <i_m_Source_File_Index>
703

> <chembl_id>
CHEMBL1980802

> <chembl_pref_name>
None

> <i_lp_mmshare_version>
53161

> <r_lp_tautomer_probability>
1

> <s_lp_Force_Field>
OPLS_2005

> <r_lp_Energy>
41.691629

> <b_lp_Chiralities_Consistent>
1

> <s_lp_Variant>
CHEMBL3231_lig1899-1

> <s_i_glide_gridfile>
glide-grid_2etr

> <i_i_glide_lignum>
2756

> <i_i_glide_rotatable_bonds>
2

> <r_i_docking_score>
-7.05786271635255

> <r_i_glide_ligand_efficiency>
-0.261402322827872

> <r_i_glide_ligand_efficiency_sa>
-0.784206967622077

> <r_i_glide_ligand_efficiency_ln>
-1.64295408240612

> <r_i_glide_gscore>
-7.05786271635255

> <r_i_glide_lipo>
-1.43043460877459

> <r_i_glide_hbond>
-0.288

> <r_i_glide_metal>
0

> <r_i_glide_rewards>
-1.85806198801085

> <r_i_glide_evdw>
-38.7700386047363

> <r_i_glide_ecoul>
-10.1291475296021

> <r_i_glide_erotb>
0

> <r_i_glide_esite>
-0.0234920598899777

> <r_i_glide_emodel>
-66.3517481053018

> <r_i_glide_energy>
-48.8991861343384

> <r_i_glide_einternal>
0.21884959936142

> <i_i_glide_confnum>
1

> <i_i_glide_posenum>
25

> <r_i_glide_eff_state_penalty>
0

> <s_user_duplicate_titles>
CHEMBL3231_lig1899

> <i_f3d_flags>
0

> <s_m_subgroup_title>
dock_pv

> <s_m_subgroupid>
dock_pv

> <b_m_subgroup_collapsed>
1

$$$$
CHEMBL3231_lig885
                    3D
 Schrodinger Suite 2021-1.
 42 45  0  0  1  0            999 V2000
   53.4366  100.2414   30.9996 N   0  0  0  0  0  0
   53.7748  101.0761   31.9274 C   0  0  0  0  0  0
   53.1609  102.3116   32.0251 N   0  0  0  0  0  0
   52.1780  102.8276   31.2222 C   0  0  0  0  0  0
   52.5178  100.6599   30.0805 C   0  0  0  0  0  0
   51.9054  101.9119   30.1258 C   0  0  0  0  0  0
   50.8370  102.1785   28.7887 S   0  0  0  0  0  0
   51.2176  100.6025   28.1351 C   0  0  0  0  0  0
   52.0901   99.9180   28.9830 C   0  0  0  0  0  0
   50.6758  100.1471   26.8572 C   0  0  0  0  0  0
   50.2909  100.9234   25.7769 C   0  0  0  0  0  0
   49.8822  100.0497   24.8109 N   0  0  0  0  0  0
   49.9922   98.7783   25.1904 N   0  0  0  0  0  0
   50.4456   98.8251   26.4235 C   0  0  0  0  0  0
   51.6435  103.9031   31.4677 O   0  0  0  0  0  0
   50.6553   97.5371   27.1708 C   0  0  0  0  0  0
   54.8250  100.7102   32.9684 C   0  0  0  0  0  0
   54.3238   99.8090   34.0113 N   0  0  2  0  0  0
   53.5510  100.4667   35.0571 C   0  0  0  0  0  0
   53.4499   99.4391   36.1884 C   0  0  1  0  0  0
   54.7367   98.6146   36.0243 C   0  0  0  0  0  0
   55.4013   99.1870   34.7695 C   0  0  0  0  0  0
   53.2958  100.0792   37.5780 C   0  0  0  0  0  0
   53.4390  102.9195   32.7790 H   0  0  0  0  0  0
   52.4481   98.9186   28.8136 H   0  0  0  0  0  0
   50.2730  101.9888   25.6177 H   0  0  0  0  0  0
   49.5286  100.3040   23.8941 H   0  0  0  0  0  0
   51.6898   97.4507   27.4844 H   0  0  0  0  0  0
   50.0436   97.5031   28.0717 H   0  0  0  0  0  0
   50.4308   96.6555   26.5708 H   0  0  0  0  0  0
   55.6602  100.2249   32.4566 H   0  0  0  0  0  0
   55.2588  101.6052   33.4171 H   0  0  0  0  0  0
   54.0205  101.3999   35.3782 H   0  0  0  0  0  0
   52.5748  100.7798   34.6835 H   0  0  0  0  0  0
   52.5820   98.8015   36.0108 H   0  0  0  0  0  0
   54.5111   97.5555   35.8896 H   0  0  0  0  0  0
   55.4043   98.6959   36.8834 H   0  0  0  0  0  0
   55.8664   98.4150   34.1543 H   0  0  0  0  0  0
   56.2073   99.8863   35.0048 H   0  0  0  0  0  0
   54.1348  100.7349   37.8142 H   0  0  0  0  0  0
   52.3826  100.6720   37.6363 H   0  0  0  0  0  0
   53.2407   99.3160   38.3558 H   0  0  0  0  0  0
  1  5  1  0  0  0
  1  2  2  0  0  0
  2  3  1  0  0  0
  2 17  1  0  0  0
  3  4  1  0  0  0
  3 24  1  0  0  0
  4  6  1  0  0  0
  4 15  2  0  0  0
  5  6  2  0  0  0
  5  9  1  0  0  0
  6  7  1  0  0  0
  7  8  1  0  0  0
  8  9  2  0  0  0
  8 10  1  0  0  0
  9 25  1  0  0  0
 10 11  2  0  0  0
 10 14  1  0  0  0
 11 12  1  0  0  0
 11 26  1  0  0  0
 12 13  1  0  0  0
 12 27  1  0  0  0
 13 14  2  0  0  0
 14 16  1  0  0  0
 16 28  1  0  0  0
 16 29  1  0  0  0
 16 30  1  0  0  0
 17 18  1  0  0  0
 17 31  1  0  0  0
 17 32  1  0  0  0
 18 19  1  0  0  0
 18 22  1  0  0  0
 19 20  1  0  0  0
 19 33  1  0  0  0
 19 34  1  0  0  0
 20 21  1  0  0  0
 20 23  1  0  0  0
 20 35  1  0  0  0
 21 22  1  0  0  0
 21 36  1  0  0  0
 21 37  1  0  0  0
 22 38  1  0  0  0
 22 39  1  0  0  0
 23 40  1  0  0  0
 23 41  1  0  0  0
 23 42  1  0  0  0
M  END
> <s_m_entry_id>
28543

> <s_m_entry_name>
dock_pv.704

> <s_m_Source_Path>
/home/csk/Desktop/cluster/DUD-E-result/rock1

> <s_m_Source_File>
dock_pv.maegz

> <i_m_Source_File_Index>
704

> <chembl_id>
CHEMBL4068071

> <chembl_pref_name>
None

> <i_lp_mmshare_version>
53161

> <r_lp_tautomer_probability>
0.5

> <s_lp_Force_Field>
OPLS_2005

> <r_lp_Energy>
38.862146

> <b_lp_Chiralities_Consistent>
1

> <s_lp_Variant>
CHEMBL3231_lig885-1

> <s_i_glide_gridfile>
glide-grid_2etr

> <i_i_glide_lignum>
1262

> <i_i_glide_rotatable_bonds>
3

> <r_i_docking_score>
-7.05593273152358

> <r_i_glide_ligand_efficiency>
-0.306779683979286

> <r_i_glide_ligand_efficiency_sa>
-0.872440612446146

> <r_i_glide_ligand_efficiency_ln>
-1.70618851414311

> <r_i_glide_gscore>
-7.05593273152358

> <r_i_glide_lipo>
-1.91489199021315

> <r_i_glide_hbond>
-0.484162746828989

> <r_i_glide_metal>
0

> <r_i_glide_rewards>
-2.40803890909091

> <r_i_glide_evdw>
-35.8558692932129

> <r_i_glide_ecoul>
-6.18230438232422

> <r_i_glide_erotb>
0.519580534212525

> <r_i_glide_esite>
-0.0482804975937766

> <r_i_glide_emodel>
-59.7088184886729

> <r_i_glide_energy>
-42.0381736755371

> <r_i_glide_einternal>
1.69638180732727

> <i_i_glide_confnum>
1

> <i_i_glide_posenum>
396

> <r_i_glide_eff_state_penalty>
0

> <s_user_duplicate_titles>
CHEMBL3231_lig885

> <i_f3d_flags>
0

> <s_m_subgroup_title>
dock_pv

> <s_m_subgroupid>
dock_pv

> <b_m_subgroup_collapsed>
1

$$$$
CHEMBL3231_lig2013
                    3D
 Schrodinger Suite 2021-1.
 26 28  0  0  1  0            999 V2000
   50.4431   96.7913   26.0106 Cl  0  0  0  0  0  0
   50.4426  102.4737   27.4041 O   0  0  0  0  0  0
   51.6489  103.9013   31.2285 O   0  0  0  0  0  0
   52.9017   99.9813   32.6967 O   0  0  0  0  0  0
   52.5490  101.9229   31.6806 N   0  0  0  0  0  0
   50.8257  104.3035   28.6049 N   0  0  0  0  0  0
   51.2462   97.5030   30.7903 N   0  0  0  0  0  0
   51.4526  100.7846   29.3756 C   0  0  0  0  0  0
   51.3990  102.1457   29.5896 C   0  0  0  0  0  0
   51.0023  100.2160   28.0577 C   0  0  0  0  0  0
   51.9513   99.9513   30.4852 C   0  0  0  0  0  0
   50.5059  101.1336   27.1254 C   0  0  0  0  0  0
   50.8792  103.0465   28.5678 C   0  0  0  0  0  0
   51.8700  102.7478   30.8571 C   0  0  0  0  0  0
   52.4971  100.5769   31.5455 C   0  0  0  0  0  0
   51.0259   98.8613   27.6694 C   0  0  0  0  0  0
   50.0419  100.7465   25.8758 C   0  0  0  0  0  0
   50.5209   98.4604   26.4265 C   0  0  0  0  0  0
   51.6121   98.5830   30.6332 C   0  0  0  0  0  0
   50.0432   99.4048   25.5232 C   0  0  0  0  0  0
   53.4827  100.5664   33.1834 H   0  0  0  0  0  0
   52.8809  102.3744   32.5170 H   0  0  0  0  0  0
   51.2268  104.6225   29.4791 H   0  0  0  0  0  0
   51.4162   98.0867   28.3048 H   0  0  0  0  0  0
   49.6399  101.4913   25.2109 H   0  0  0  0  0  0
   49.6505   99.1036   24.5630 H   0  0  0  0  0  0
  1 18  1  0  0  0
  2 12  1  0  0  0
  2 13  1  0  0  0
  3 14  2  0  0  0
  4 15  1  0  0  0
  4 21  1  0  0  0
  5 14  1  0  0  0
  5 15  1  0  0  0
  5 22  1  0  0  0
  6 13  2  0  0  0
  6 23  1  0  0  0
  7 19  3  0  0  0
  8  9  2  0  0  0
  8 10  1  0  0  0
  8 11  1  0  0  0
  9 13  1  0  0  0
  9 14  1  0  0  0
 10 12  1  0  0  0
 10 16  2  0  0  0
 11 15  2  0  0  0
 11 19  1  0  0  0
 12 17  2  0  0  0
 16 18  1  0  0  0
 16 24  1  0  0  0
 17 20  1  0  0  0
 17 25  1  0  0  0
 18 20  2  0  0  0
 20 26  1  0  0  0
M  END
> <s_m_entry_id>
28544

> <s_m_entry_name>
dock_pv.705

> <s_m_Source_Path>
/home/csk/Desktop/cluster/DUD-E-result/rock1

> <s_m_Source_File>
dock_pv.maegz

> <i_m_Source_File_Index>
705

> <chembl_id>
CHEMBL1973711

> <chembl_pref_name>
None

> <i_lp_mmshare_version>
53161

> <r_lp_tautomer_probability>
1

> <s_lp_Force_Field>
OPLS_2005

> <r_lp_Energy>
41.546453

> <b_lp_Chiralities_Consistent>
1

> <s_lp_Variant>
CHEMBL3231_lig2013-1

> <s_i_glide_gridfile>
glide-grid_2etr

> <i_i_glide_lignum>
2926

> <i_i_glide_rotatable_bonds>
1

> <r_i_docking_score>
-7.05404368757439

> <r_i_glide_ligand_efficiency>
-0.352702184378719

> <r_i_glide_ligand_efficiency_sa>
-0.957381021733082

> <r_i_glide_ligand_efficiency_ln>
-1.76539447706795

> <r_i_glide_gscore>
-7.05404368757439

> <r_i_glide_lipo>
-2.47994950905048

> <r_i_glide_hbond>
-0.16

> <r_i_glide_metal>
0

> <r_i_glide_rewards>
-2.23369801604443

> <r_i_glide_evdw>
-34.5009880065918

> <r_i_glide_ecoul>
-2.89090085029602

> <r_i_glide_erotb>
0

> <r_i_glide_esite>
-0.0217116346054822

> <r_i_glide_emodel>
-53.2746730849684

> <r_i_glide_energy>
-37.3918888568878

> <r_i_glide_einternal>
0.0604993738234043

> <i_i_glide_confnum>
1

> <i_i_glide_posenum>
157

> <r_i_glide_eff_state_penalty>
0

> <s_user_duplicate_titles>
CHEMBL3231_lig2013

> <i_f3d_flags>
0

> <s_m_subgroup_title>
dock_pv

> <s_m_subgroupid>
dock_pv

> <b_m_subgroup_collapsed>
1

$$$$
CHEMBL3231_lig2006
                    3D
 Schrodinger Suite 2021-1.
 36 38  0  0  1  0            999 V2000
   51.2432   98.4842   28.6190 F   0  0  0  0  0  0
   50.4324   97.1060   26.4108 F   0  0  0  0  0  0
   53.3872   99.9703   33.5034 O   0  0  0  0  0  0
   51.3111  103.5028   29.7439 N   0  0  0  0  0  0
   52.9619  103.8100   31.5367 N   0  0  0  0  0  0
   50.8753  102.6414   28.8077 N   0  0  0  0  0  0
   53.9046  103.0463   32.1247 N   0  0  0  0  0  0
   54.7130  100.8312   31.8580 N   0  0  0  0  0  0
   52.9062  101.8414   30.4846 C   0  0  0  0  0  0
   52.3041  103.1098   30.5428 C   0  0  0  0  0  0
   51.4250  101.3971   28.6547 C   0  0  0  0  0  0
   53.8791  101.8758   31.5295 C   0  0  0  0  0  0
   50.9288  100.5876   27.4913 C   0  0  0  0  0  0
   52.4495  100.9474   29.5035 C   0  0  0  0  0  0
   50.8860   99.1771   27.5120 C   0  0  0  0  0  0
   50.4559   98.4580   26.3922 C   0  0  0  0  0  0
   50.5036  101.2341   26.3170 C   0  0  0  0  0  0
   54.4169   99.9410   32.8239 C   0  0  0  0  0  0
   50.0427   99.1283   25.2459 C   0  0  0  0  0  0
   50.0564  100.5159   25.2105 C   0  0  0  0  0  0
   55.4494   98.8328   33.0628 C   0  0  0  0  0  0
   55.1839   97.5404   32.2571 C   0  0  0  0  0  0
   53.8558   96.8323   32.5773 C   0  0  0  0  0  0
   52.8463  104.7761   31.8174 H   0  0  0  0  0  0
   55.5715  100.7407   31.3278 H   0  0  0  0  0  0
   52.9119   99.9782   29.3913 H   0  0  0  0  0  0
   50.5154  102.3124   26.2501 H   0  0  0  0  0  0
   49.6926   98.5782   24.3883 H   0  0  0  0  0  0
   49.7186  101.0312   24.3233 H   0  0  0  0  0  0
   55.4879   98.6087   34.1290 H   0  0  0  0  0  0
   56.4419   99.2107   32.8114 H   0  0  0  0  0  0
   56.0046   96.8447   32.4441 H   0  0  0  0  0  0
   55.2373   97.7559   31.1883 H   0  0  0  0  0  0
   53.7675   95.9031   32.0163 H   0  0  0  0  0  0
   52.9938   97.4473   32.3186 H   0  0  0  0  0  0
   53.7843   96.5841   33.6365 H   0  0  0  0  0  0
  1 15  1  0  0  0
  2 16  1  0  0  0
  3 18  2  0  0  0
  4  6  1  0  0  0
  4 10  2  0  0  0
  5  7  1  0  0  0
  5 10  1  0  0  0
  5 24  1  0  0  0
  6 11  2  0  0  0
  7 12  2  0  0  0
  8 12  1  0  0  0
  8 18  1  0  0  0
  8 25  1  0  0  0
  9 10  1  0  0  0
  9 12  1  0  0  0
  9 14  2  0  0  0
 11 13  1  0  0  0
 11 14  1  0  0  0
 13 15  1  0  0  0
 13 17  2  0  0  0
 14 26  1  0  0  0
 15 16  2  0  0  0
 16 19  1  0  0  0
 17 20  1  0  0  0
 17 27  1  0  0  0
 18 21  1  0  0  0
 19 20  2  0  0  0
 19 28  1  0  0  0
 20 29  1  0  0  0
 21 22  1  0  0  0
 21 30  1  0  0  0
 21 31  1  0  0  0
 22 23  1  0  0  0
 22 32  1  0  0  0
 22 33  1  0  0  0
 23 34  1  0  0  0
 23 35  1  0  0  0
 23 36  1  0  0  0
M  END
> <s_m_entry_id>
28545

> <s_m_entry_name>
dock_pv.706

> <s_m_Source_Path>
/home/csk/Desktop/cluster/DUD-E-result/rock1

> <s_m_Source_File>
dock_pv.maegz

> <i_m_Source_File_Index>
706

> <chembl_id>
CHEMBL1979970

> <chembl_pref_name>
None

> <i_lp_mmshare_version>
53161

> <r_lp_tautomer_probability>
1

> <s_lp_Force_Field>
OPLS_2005

> <r_lp_Energy>
28.511558

> <b_lp_Chiralities_Consistent>
1

> <s_lp_Variant>
CHEMBL3231_lig2006-1

> <s_i_glide_gridfile>
glide-grid_2etr

> <i_i_glide_lignum>
2916

> <i_i_glide_rotatable_bonds>
5

> <r_i_docking_score>
-7.05234916291506

> <r_i_glide_ligand_efficiency>
-0.306623876648481

> <r_i_glide_ligand_efficiency_sa>
-0.871997517123314

> <r_i_glide_ligand_efficiency_ln>
-1.70532197475957

> <r_i_glide_gscore>
-7.05234916291506

> <r_i_glide_lipo>
-2.28631070084756

> <r_i_glide_hbond>
-0.274746841866495

> <r_i_glide_metal>
0

> <r_i_glide_rewards>
-2.35346808219165

> <r_i_glide_evdw>
-38.7790565490723

> <r_i_glide_ecoul>
-4.91991758346558

> <r_i_glide_erotb>
0.740156331747379

> <r_i_glide_esite>
-0.201039404783287

> <r_i_glide_emodel>
-61.8146296852712

> <r_i_glide_energy>
-43.6989741325378

> <r_i_glide_einternal>
2.97673392295837

> <i_i_glide_confnum>
14

> <i_i_glide_posenum>
381

> <r_i_glide_eff_state_penalty>
0

> <s_user_duplicate_titles>
CHEMBL3231_lig2006

> <i_f3d_flags>
0

> <s_m_subgroup_title>
dock_pv

> <s_m_subgroupid>
dock_pv

> <b_m_subgroup_collapsed>
1

$$$$
CHEMBL3231_lig524
                    3D
 Schrodinger Suite 2021-1.
 60 64  0  0  1  0            999 V2000
   53.7992  101.6983   33.1644 C   0  0  2  0  0  0
   53.7798  100.8741   31.8484 C   0  0  0  0  0  0
   54.4836   99.7039   31.8113 C   0  0  0  0  0  0
   55.2425   99.3026   32.8676 N   0  0  0  0  0  0
   55.3912   99.9549   34.0395 C   0  0  0  0  0  0
   54.8990  101.2187   34.0387 N   0  0  0  0  0  0
   55.7974   99.4130   35.0606 O   0  0  0  0  0  0
   54.6761   98.7661   30.6191 C   0  0  0  0  0  0
   52.9093  101.3980   30.7948 C   0  0  0  0  0  0
   52.4622  100.4822   29.9061 N   0  0  0  0  0  0
   52.5713  102.5836   30.7835 O   0  0  0  0  0  0
   51.6861  100.6292   28.7433 C   0  0  0  0  0  0
   51.5000   99.4647   27.9870 C   0  0  0  0  0  0
   50.4431  101.9395   27.1115 C   0  0  0  0  0  0
   51.1444  101.8438   28.3087 C   0  0  0  0  0  0
   50.2761  100.7907   26.3324 C   0  0  0  0  0  0
   50.8022   99.5407   26.7723 C   0  0  0  0  0  0
   50.4345   98.6391   25.7396 C   0  0  0  0  0  0
   49.7758   99.4110   24.8110 N   0  0  0  0  0  0
   49.6428  100.7029   25.1278 N   0  0  0  0  0  0
   52.4607  101.7902   33.9115 C   0  0  0  0  0  0
   51.9910  103.0290   34.3666 C   0  0  0  0  0  0
   50.7765  103.1319   35.0660 C   0  0  0  0  0  0
   50.0186  101.9691   35.2801 C   0  0  0  0  0  0
   50.4721  100.7415   34.8083 C   0  0  0  0  0  0
   51.6847  100.6476   34.1279 C   0  0  0  0  0  0
   48.8443  102.0066   35.9524 F   0  0  0  0  0  0
   50.3122  104.4558   35.6097 C   0  0  0  0  0  0
   51.2710  105.2175   36.1674 N   0  0  0  0  0  0
   49.1272  104.7841   35.5574 O   0  0  0  0  0  0
   51.0621  106.5016   36.8365 C   0  0  0  0  0  0
   51.4580  107.7080   35.9800 C   0  0  0  0  0  0
   52.7941  108.1554   35.9588 C   0  0  0  0  0  0
   53.1488  109.2784   35.2101 C   0  0  0  0  0  0
   52.1872  109.9609   34.4690 C   0  0  0  0  0  0
   50.8676  109.5181   34.4700 C   0  0  0  0  0  0
   50.4990  108.3975   35.2141 C   0  0  0  0  0  0
   48.8429  107.8988   35.1502 Cl  0  0  0  0  0  0
   54.0414  107.3367   36.8379 Cl  0  0  0  0  0  0
   54.0574  102.7314   32.9188 H   0  0  0  0  0  0
   55.7884   98.4560   32.7940 H   0  0  0  0  0  0
   55.0601  101.7250   34.8958 H   0  0  0  0  0  0
   54.6731   99.2962   29.6658 H   0  0  0  0  0  0
   55.6424   98.2603   30.6512 H   0  0  0  0  0  0
   53.9037   97.9957   30.6100 H   0  0  0  0  0  0
   52.8012   99.5469   30.0695 H   0  0  0  0  0  0
   51.9115   98.5220   28.3176 H   0  0  0  0  0  0
   50.0494  102.8910   26.7866 H   0  0  0  0  0  0
   51.2678  102.7555   28.8682 H   0  0  0  0  0  0
   50.5887   97.5799   25.5856 H   0  0  0  0  0  0
   49.3975   99.0694   23.9366 H   0  0  0  0  0  0
   52.5837  103.9155   34.1804 H   0  0  0  0  0  0
   49.8733   99.8628   34.9763 H   0  0  0  0  0  0
   52.0239   99.6856   33.7711 H   0  0  0  0  0  0
   52.2283  104.9041   36.0975 H   0  0  0  0  0  0
   51.6329  106.5053   37.7652 H   0  0  0  0  0  0
   50.0298  106.6091   37.1697 H   0  0  0  0  0  0
   54.1766  109.6120   35.1882 H   0  0  0  0  0  0
   52.4672  110.8205   33.8760 H   0  0  0  0  0  0
   50.1325  110.0398   33.8786 H   0  0  0  0  0  0
  1  2  1  0  0  0
  1  6  1  0  0  0
  1 21  1  0  0  0
  1 40  1  0  0  0
  2  3  2  0  0  0
  2  9  1  0  0  0
  3  4  1  0  0  0
  3  8  1  0  0  0
  4  5  1  0  0  0
  4 41  1  0  0  0
  5  6  1  0  0  0
  5  7  2  0  0  0
  6 42  1  0  0  0
  8 43  1  0  0  0
  8 44  1  0  0  0
  8 45  1  0  0  0
  9 10  1  0  0  0
  9 11  2  0  0  0
 10 46  1  0  0  0
 10 12  1  0  0  0
 12 15  1  0  0  0
 12 13  2  0  0  0
 13 47  1  0  0  0
 13 17  1  0  0  0
 14 16  1  0  0  0
 14 48  1  0  0  0
 14 15  2  0  0  0
 15 49  1  0  0  0
 16 20  2  0  0  0
 16 17  1  0  0  0
 17 18  2  0  0  0
 18 19  1  0  0  0
 18 50  1  0  0  0
 19 51  1  0  0  0
 19 20  1  0  0  0
 21 22  2  0  0  0
 21 26  1  0  0  0
 22 23  1  0  0  0
 22 52  1  0  0  0
 23 24  2  0  0  0
 23 28  1  0  0  0
 24 25  1  0  0  0
 24 27  1  0  0  0
 25 26  2  0  0  0
 25 53  1  0  0  0
 26 54  1  0  0  0
 28 29  1  0  0  0
 28 30  2  0  0  0
 29 31  1  0  0  0
 29 55  1  0  0  0
 31 32  1  0  0  0
 31 56  1  0  0  0
 31 57  1  0  0  0
 32 33  2  0  0  0
 32 37  1  0  0  0
 33 34  1  0  0  0
 33 39  1  0  0  0
 34 35  2  0  0  0
 34 58  1  0  0  0
 35 36  1  0  0  0
 35 59  1  0  0  0
 36 37  2  0  0  0
 36 60  1  0  0  0
 37 38  1  0  0  0
M  END
> <s_m_entry_id>
28546

> <s_m_entry_name>
dock_pv.707

> <s_m_Source_Path>
/home/csk/Desktop/cluster/DUD-E-result/rock1

> <s_m_Source_File>
dock_pv.maegz

> <i_m_Source_File_Index>
707

> <chembl_id>
CHEMBL3810271

> <chembl_pref_name>
None

> <i_lp_mmshare_version>
53161

> <r_lp_tautomer_probability>
0.019607843137214

> <s_lp_Force_Field>
OPLS_2005

> <r_lp_Energy>
62.913966

> <b_lp_Chiralities_Consistent>
1

> <s_lp_Variant>
CHEMBL3231_lig524-3

> <s_i_glide_gridfile>
glide-grid_2etr

> <i_i_glide_lignum>
775

> <i_i_glide_rotatable_bonds>
8

> <r_i_docking_score>
-7.05108031521488

> <r_i_glide_ligand_efficiency>
-0.180796931159356

> <r_i_glide_ligand_efficiency_sa>
-0.613120621060717

> <r_i_glide_ligand_efficiency_ln>
-1.51195177639962

> <r_i_glide_gscore>
-7.05108031521488

> <r_i_glide_lipo>
-2.43123359512797

> <r_i_glide_hbond>
-0.164640767309528

> <r_i_glide_metal>
0

> <r_i_glide_rewards>
-1.47801522909704

> <r_i_glide_evdw>
-60.4619598388672

> <r_i_glide_ecoul>
-1.3220055103302

> <r_i_glide_erotb>
0.36567820224739

> <r_i_glide_esite>
-0.121470107434836

> <r_i_glide_emodel>
-86.9877781438841

> <r_i_glide_energy>
-61.7839653491974

> <r_i_glide_einternal>
4.76825475692749

> <i_i_glide_confnum>
17

> <i_i_glide_posenum>
52

> <r_i_glide_eff_state_penalty>
0

> <s_user_duplicate_titles>
CHEMBL3231_lig524

> <i_f3d_flags>
0

> <s_m_subgroup_title>
dock_pv

> <s_m_subgroupid>
dock_pv

> <b_m_subgroup_collapsed>
1

$$$$
CHEMBL3231_lig957 
                    3D
 Schrodinger Suite 2021-1.
 44 46  0  0  1  0            999 V2000
   50.0777   99.8966   24.8288 C   0  0  0  0  0  0
   50.0416   98.5422   24.8131 N   0  0  0  0  0  0
   50.4600   97.9106   25.9380 C   0  0  0  0  0  0
   50.9185   98.6103   27.0517 C   0  0  0  0  0  0
   50.9397  100.0116   26.9681 C   0  0  0  0  0  0
   50.5161  100.6659   25.8504 N   0  0  0  0  0  0
   51.3638  100.8622   28.1085 C   0  0  0  0  0  0
   52.3365  100.4084   29.0054 C   0  0  0  0  0  0
   52.6651  101.1551   30.1259 C   0  0  0  0  0  0
   52.0108  102.3678   30.3692 C   0  0  0  0  0  0
   51.0868  102.8608   29.4471 C   0  0  0  0  0  0
   50.7733  102.1136   28.3229 C   0  0  0  0  0  0
   52.2166  103.0872   31.6620 C   0  0  0  0  0  0
   53.4829  103.1498   32.0999 N   0  0  0  0  0  0
   51.2432  103.5029   32.2905 O   0  0  0  0  0  0
   53.8870  103.5521   33.4474 C   0  0  1  0  0  0
   53.1734  102.7473   34.5404 C   0  0  0  0  0  0
   52.5073  103.4020   35.5771 C   0  0  0  0  0  0
   51.8062  102.6646   36.5270 C   0  0  0  0  0  0
   51.7691  101.2724   36.4454 C   0  0  0  0  0  0
   52.4261  100.5943   35.4203 C   0  0  0  0  0  0
   53.1305  101.3465   34.4683 C   0  0  0  0  0  0
   52.3238   99.2154   35.4144 O   0  0  0  0  0  0
   53.0044   98.4785   34.4033 C   0  0  0  0  0  0
   55.4018  103.3848   33.5831 C   0  0  0  0  0  0
   49.7074  100.4216   23.9654 H   0  0  0  0  0  0
   50.4296   96.8306   25.9381 H   0  0  0  0  0  0
   51.2332   98.0829   27.9409 H   0  0  0  0  0  0
   52.8287   99.4595   28.8520 H   0  0  0  0  0  0
   53.3863  100.7555   30.8255 H   0  0  0  0  0  0
   50.5812  103.8031   29.6080 H   0  0  0  0  0  0
   50.0426  102.5041   27.6314 H   0  0  0  0  0  0
   54.2262  103.0247   31.4293 H   0  0  0  0  0  0
   53.6487  104.6142   33.5567 H   0  0  0  0  0  0
   52.5191  104.4799   35.6409 H   0  0  0  0  0  0
   51.2885  103.1735   37.3252 H   0  0  0  0  0  0
   51.2429  100.7042   37.1968 H   0  0  0  0  0  0
   53.6438  100.8572   33.6549 H   0  0  0  0  0  0
   52.8446   97.4124   34.5627 H   0  0  0  0  0  0
   52.6280   98.7233   33.4082 H   0  0  0  0  0  0
   54.0806   98.6510   34.4325 H   0  0  0  0  0  0
   55.7623  103.7217   34.5578 H   0  0  0  0  0  0
   55.6439  102.3269   33.4797 H   0  0  0  0  0  0
   55.9443  103.9346   32.8134 H   0  0  0  0  0  0
  1  2  2  0  0  0
  1  6  1  0  0  0
  1 26  1  0  0  0
  2  3  1  0  0  0
  3  4  2  0  0  0
  3 27  1  0  0  0
  4  5  1  0  0  0
  4 28  1  0  0  0
  5  6  2  0  0  0
  5  7  1  0  0  0
  7  8  2  0  0  0
  7 12  1  0  0  0
  8  9  1  0  0  0
  8 29  1  0  0  0
  9 10  2  0  0  0
  9 30  1  0  0  0
 10 11  1  0  0  0
 10 13  1  0  0  0
 11 12  2  0  0  0
 11 31  1  0  0  0
 12 32  1  0  0  0
 13 14  1  0  0  0
 13 15  2  0  0  0
 14 16  1  0  0  0
 14 33  1  0  0  0
 16 17  1  0  0  0
 16 25  1  0  0  0
 16 34  1  0  0  0
 17 18  2  0  0  0
 17 22  1  0  0  0
 18 19  1  0  0  0
 18 35  1  0  0  0
 19 20  2  0  0  0
 19 36  1  0  0  0
 20 21  1  0  0  0
 20 37  1  0  0  0
 21 22  2  0  0  0
 21 23  1  0  0  0
 22 38  1  0  0  0
 23 24  1  0  0  0
 24 39  1  0  0  0
 24 40  1  0  0  0
 24 41  1  0  0  0
 25 42  1  0  0  0
 25 43  1  0  0  0
 25 44  1  0  0  0
M  END
> <s_m_entry_id>
28548

> <s_m_entry_name>
dock_pv.709

> <s_m_Source_Path>
/home/csk/Desktop/cluster/DUD-E-result/rock1

> <s_m_Source_File>
dock_pv.maegz

> <i_m_Source_File_Index>
709

> <chembl_id>
CHEMBL4460511

> <chembl_pref_name>
None

> <i_lp_mmshare_version>
53161

> <r_lp_tautomer_probability>
1

> <s_lp_Force_Field>
OPLS_2005

> <r_lp_Energy>
10.636146

> <b_lp_Chiralities_Consistent>
1

> <s_lp_Variant>
CHEMBL3231_lig957 -1

> <s_i_glide_gridfile>
glide-grid_2etr

> <i_i_glide_lignum>
1371

> <i_i_glide_rotatable_bonds>
6

> <r_i_docking_score>
-7.04842744045821

> <r_i_glide_ligand_efficiency>
-0.281937097618329

> <r_i_glide_ligand_efficiency_sa>
-0.82438907361171

> <r_i_glide_ligand_efficiency_ln>
-1.67068852771423

> <r_i_glide_gscore>
-7.04842744045821

> <r_i_glide_lipo>
-1.79522349182623

> <r_i_glide_hbond>
-0.389676268687445

> <r_i_glide_metal>
0

> <r_i_glide_rewards>
-2.78364422595193

> <r_i_glide_evdw>
-37.888298034668

> <r_i_glide_ecoul>
-6.33920478820801

> <r_i_glide_erotb>
0.847849981755661

> <r_i_glide_esite>
-0.0824378157836736

> <r_i_glide_emodel>
-61.9694688167019

> <r_i_glide_energy>
-44.227502822876

> <r_i_glide_einternal>
5.39088582992554

> <i_i_glide_confnum>
8

> <i_i_glide_posenum>
216

> <r_i_glide_eff_state_penalty>
0

> <s_user_duplicate_titles>
CHEMBL3231_lig957 ,CHEMBL3231_lig1407

> <i_f3d_flags>
0

> <s_m_subgroup_title>
dock_pv

> <s_m_subgroupid>
dock_pv

> <b_m_subgroup_collapsed>
1

$$$$
CHEMBL3231_lig2093
                    3D
 Schrodinger Suite 2021-1.
 38 40  0  0  1  0            999 V2000
   51.6447  100.8720   28.4419 C   0  0  0  0  0  0
   52.3988  100.1629   29.2630 N   0  0  0  0  0  0
   52.9344  100.8669   30.2325 C   0  0  0  0  0  0
   52.5471  102.5502   30.1985 S   0  0  0  0  0  0
   51.5611  102.2257   28.7964 C   0  0  0  0  0  0
   53.7744  100.3761   31.2260 N   0  0  0  0  0  0
   53.7531   99.1073   31.6903 C   0  0  0  0  0  0
   54.7999   98.7659   32.7664 C   0  0  0  0  0  0
   52.9468   98.2558   31.3044 O   0  0  0  0  0  0
   54.6581   97.3380   33.2959 C   0  0  0  0  0  0
   55.2745   96.2812   32.6180 C   0  0  0  0  0  0
   55.0746   94.9527   33.0282 C   0  0  0  0  0  0
   54.2501   94.7041   34.1258 C   0  0  0  0  0  0
   53.6434   95.7520   34.8177 C   0  0  0  0  0  0
   53.8435   97.0666   34.3985 C   0  0  0  0  0  0
   51.0114  100.1899   27.2629 C   0  0  0  0  0  0
   50.4596  100.9341   26.2085 C   0  0  0  0  0  0
   49.9343  100.2601   25.1050 C   0  0  0  0  0  0
   49.9264   98.9065   24.9985 N   0  0  0  0  0  0
   50.4423   98.1904   26.0260 C   0  0  0  0  0  0
   50.9879   98.7871   27.1631 C   0  0  0  0  0  0
   55.6328   93.8534   32.4094 O   0  0  0  0  0  0
   56.5409   94.0583   31.3298 C   0  0  0  0  0  0
   51.0208  103.0203   28.3058 H   0  0  0  0  0  0
   54.4174  101.0318   31.6475 H   0  0  0  0  0  0
   54.7111   99.4748   33.5905 H   0  0  0  0  0  0
   55.7948   98.8948   32.3371 H   0  0  0  0  0  0
   55.8955   96.5081   31.7652 H   0  0  0  0  0  0
   54.0828   93.6850   34.4437 H   0  0  0  0  0  0
   53.0113   95.5401   35.6665 H   0  0  0  0  0  0
   53.3499   97.8727   34.9222 H   0  0  0  0  0  0
   50.4544  102.0130   26.2306 H   0  0  0  0  0  0
   49.5114  100.8007   24.2709 H   0  0  0  0  0  0
   50.4251   97.1162   25.9269 H   0  0  0  0  0  0
   51.3962   98.1623   27.9438 H   0  0  0  0  0  0
   56.9412   93.0948   31.0099 H   0  0  0  0  0  0
   56.0420   94.5108   30.4727 H   0  0  0  0  0  0
   57.3847   94.6829   31.6248 H   0  0  0  0  0  0
  1  2  1  0  0  0
  1  5  2  0  0  0
  1 16  1  0  0  0
  2  3  2  0  0  0
  3  4  1  0  0  0
  3  6  1  0  0  0
  4  5  1  0  0  0
  5 24  1  0  0  0
  6  7  1  0  0  0
  6 25  1  0  0  0
  7  8  1  0  0  0
  7  9  2  0  0  0
  8 10  1  0  0  0
  8 26  1  0  0  0
  8 27  1  0  0  0
 10 11  2  0  0  0
 10 15  1  0  0  0
 11 12  1  0  0  0
 11 28  1  0  0  0
 12 13  2  0  0  0
 12 22  1  0  0  0
 13 14  1  0  0  0
 13 29  1  0  0  0
 14 15  2  0  0  0
 14 30  1  0  0  0
 15 31  1  0  0  0
 16 17  2  0  0  0
 16 21  1  0  0  0
 17 18  1  0  0  0
 17 32  1  0  0  0
 18 19  2  0  0  0
 18 33  1  0  0  0
 19 20  1  0  0  0
 20 21  2  0  0  0
 20 34  1  0  0  0
 21 35  1  0  0  0
 22 23  1  0  0  0
 23 36  1  0  0  0
 23 37  1  0  0  0
 23 38  1  0  0  0
M  END
> <s_m_entry_id>
28549

> <s_m_entry_name>
dock_pv.710

> <s_m_Source_Path>
/home/csk/Desktop/cluster/DUD-E-result/rock1

> <s_m_Source_File>
dock_pv.maegz

> <i_m_Source_File_Index>
710

> <chembl_id>
CHEMBL3581121

> <chembl_pref_name>
None

> <i_lp_mmshare_version>
53161

> <r_lp_tautomer_probability>
0.999000488399163

> <s_lp_Force_Field>
OPLS_2005

> <r_lp_Energy>
12.628737

> <b_lp_Chiralities_Consistent>
1

> <s_lp_Variant>
CHEMBL3231_lig2093-1

> <s_i_glide_gridfile>
glide-grid_2etr

> <i_i_glide_lignum>
3021

> <i_i_glide_rotatable_bonds>
6

> <r_i_docking_score>
-7.04752475265928

> <r_i_glide_ligand_efficiency>
-0.306414119680838

> <r_i_glide_ligand_efficiency_sa>
-0.871400996209864

> <r_i_glide_ligand_efficiency_ln>
-1.70415538861438

> <r_i_glide_gscore>
-7.04752475265928

> <r_i_glide_lipo>
-2.30509783147839

> <r_i_glide_hbond>
-0.289153001181619

> <r_i_glide_metal>
0

> <r_i_glide_rewards>
-2.51549643159705

> <r_i_glide_evdw>
-44.3673667907715

> <r_i_glide_ecoul>
-3.66841673851013

> <r_i_glide_erotb>
0.885022411526223

> <r_i_glide_esite>
-0.0541690496133448

> <r_i_glide_emodel>
-67.991939236548

> <r_i_glide_energy>
-48.0357835292816

> <r_i_glide_einternal>
1.92451202869415

> <i_i_glide_confnum>
4

> <i_i_glide_posenum>
144

> <r_i_glide_eff_state_penalty>
0

> <s_user_duplicate_titles>
CHEMBL3231_lig2093

> <i_f3d_flags>
0

> <s_m_subgroup_title>
dock_pv

> <s_m_subgroupid>
dock_pv

> <b_m_subgroup_collapsed>
1

$$$$
CHEMBL3231_lig735
                    3D
 Schrodinger Suite 2021-1.
 54 56  0  0  1  0            999 V2000
   51.2433   97.2673   30.3571 C   0  0  0  0  0  0
   51.2427   98.0976   29.1986 O   0  0  0  0  0  0
   51.3553   99.4709   29.3244 C   0  0  0  0  0  0
   51.6432  100.0902   30.5531 C   0  0  0  0  0  0
   51.6550  101.4875   30.6836 C   0  0  0  0  0  0
   51.4745  102.2672   29.5396 C   0  0  0  0  0  0
   51.2139  101.6673   28.3145 C   0  0  0  0  0  0
   51.1131  100.2771   28.1921 C   0  0  0  0  0  0
   50.6594   99.7430   26.8608 C   0  0  0  0  0  0
   50.5519   98.4123   26.4127 C   0  0  0  0  0  0
   50.0429   98.2984   25.2109 N   0  0  0  0  0  0
   49.8436   99.5532   24.8111 N   0  0  0  0  0  0
   50.1974  100.4662   25.7624 C   0  0  0  0  0  0
   51.7586  102.1554   32.0330 C   0  0  0  0  0  0
   51.2448  103.2612   32.2211 O   0  0  0  0  0  0
   52.3987  101.4663   32.9957 N   0  0  0  0  0  0
   52.6351  101.9432   34.3629 C   0  0  1  0  0  0
   53.1467  100.7974   35.2616 C   0  0  0  0  0  0
   52.1145   99.6566   35.4656 C   0  0  0  0  0  0
   52.6578   98.3751   35.9271 N   0  0  0  0  0  0
   53.4335   97.6879   34.8964 C   0  0  0  0  0  0
   53.4218   98.4841   37.1680 C   0  0  0  0  0  0
   53.5658  103.1592   34.4006 C   0  0  0  0  0  0
   53.1757  104.3111   35.0925 C   0  0  0  0  0  0
   53.9581  105.4604   35.0289 C   0  0  0  0  0  0
   55.1293  105.4550   34.2765 C   0  0  0  0  0  0
   55.5418  104.3023   33.6117 C   0  0  0  0  0  0
   54.7624  103.1543   33.6745 C   0  0  0  0  0  0
   51.0572   96.2383   30.0527 H   0  0  0  0  0  0
   52.2068   97.2879   30.8681 H   0  0  0  0  0  0
   50.4555   97.5471   31.0585 H   0  0  0  0  0  0
   51.7860   99.4820   31.4324 H   0  0  0  0  0  0
   51.4993  103.3465   29.5968 H   0  0  0  0  0  0
   51.0439  102.3049   27.4631 H   0  0  0  0  0  0
   50.8186   97.5254   26.9665 H   0  0  0  0  0  0
   49.4453   99.7781   23.9041 H   0  0  0  0  0  0
   50.0636  101.5234   25.5865 H   0  0  0  0  0  0
   52.8669  100.6124   32.7346 H   0  0  0  0  0  0
   51.6663  102.2512   34.7661 H   0  0  0  0  0  0
   54.1213  100.4272   34.9422 H   0  0  0  0  0  0
   53.3204  101.2335   36.2467 H   0  0  0  0  0  0
   51.3822   99.9802   36.2076 H   0  0  0  0  0  0
   51.5226   99.5007   34.5625 H   0  0  0  0  0  0
   53.7103   96.6869   35.2310 H   0  0  0  0  0  0
   52.8493   97.5732   33.9823 H   0  0  0  0  0  0
   54.3521   98.2200   34.6458 H   0  0  0  0  0  0
   53.6710   97.4942   37.5529 H   0  0  0  0  0  0
   54.3542   99.0325   37.0241 H   0  0  0  0  0  0
   52.8452   98.9991   37.9366 H   0  0  0  0  0  0
   52.2485  104.3339   35.6458 H   0  0  0  0  0  0
   53.6399  106.3637   35.5281 H   0  0  0  0  0  0
   55.7055  106.3635   34.1860 H   0  0  0  0  0  0
   56.4410  104.3029   33.0121 H   0  0  0  0  0  0
   55.0701  102.2758   33.1253 H   0  0  0  0  0  0
  1  2  1  0  0  0
  1 29  1  0  0  0
  1 30  1  0  0  0
  1 31  1  0  0  0
  2  3  1  0  0  0
  3  4  2  0  0  0
  3  8  1  0  0  0
  4  5  1  0  0  0
  4 32  1  0  0  0
  5  6  2  0  0  0
  5 14  1  0  0  0
  6  7  1  0  0  0
  6 33  1  0  0  0
  7  8  2  0  0  0
  7 34  1  0  0  0
  8  9  1  0  0  0
  9 10  1  0  0  0
  9 13  2  0  0  0
 10 11  2  0  0  0
 10 35  1  0  0  0
 11 12  1  0  0  0
 12 13  1  0  0  0
 12 36  1  0  0  0
 13 37  1  0  0  0
 14 15  2  0  0  0
 14 16  1  0  0  0
 16 17  1  0  0  0
 16 38  1  0  0  0
 17 18  1  0  0  0
 17 23  1  0  0  0
 17 39  1  0  0  0
 18 19  1  0  0  0
 18 40  1  0  0  0
 18 41  1  0  0  0
 19 20  1  0  0  0
 19 42  1  0  0  0
 19 43  1  0  0  0
 20 21  1  0  0  0
 20 22  1  0  0  0
 21 44  1  0  0  0
 21 45  1  0  0  0
 21 46  1  0  0  0
 22 47  1  0  0  0
 22 48  1  0  0  0
 22 49  1  0  0  0
 23 24  2  0  0  0
 23 28  1  0  0  0
 24 25  1  0  0  0
 24 50  1  0  0  0
 25 26  2  0  0  0
 25 51  1  0  0  0
 26 27  1  0  0  0
 26 52  1  0  0  0
 27 28  2  0  0  0
 27 53  1  0  0  0
 28 54  1  0  0  0
M  END
> <s_m_entry_id>
28550

> <s_m_entry_name>
dock_pv.711

> <s_m_Source_Path>
/home/csk/Desktop/cluster/DUD-E-result/rock1

> <s_m_Source_File>
dock_pv.maegz

> <i_m_Source_File_Index>
711

> <chembl_id>
CHEMBL3901295

> <chembl_pref_name>
None

> <i_lp_mmshare_version>
53161

> <r_lp_tautomer_probability>
0.5

> <s_lp_Force_Field>
OPLS_2005

> <r_lp_Energy>
26.768381

> <b_lp_Chiralities_Consistent>
1

> <s_lp_Variant>
CHEMBL3231_lig735-2

> <s_i_glide_gridfile>
glide-grid_2etr

> <i_i_glide_lignum>
1046

> <i_i_glide_rotatable_bonds>
9

> <r_i_docking_score>
-7.04733861816797

> <r_i_glide_ligand_efficiency>
-0.25169066493457

> <r_i_glide_ligand_efficiency_sa>
-0.764281096615455

> <r_i_glide_ligand_efficiency_ln>
-1.62673267192618

> <r_i_glide_gscore>
-7.04733861816797

> <r_i_glide_lipo>
-1.86867194930575

> <r_i_glide_hbond>
-0.710846637421208

> <r_i_glide_metal>
0

> <r_i_glide_rewards>
-1.76636614469814

> <r_i_glide_evdw>
-40.3011474609375

> <r_i_glide_ecoul>
-8.13089179992676

> <r_i_glide_erotb>
0.568243482250614

> <r_i_glide_esite>
-0.0350062259575953

> <r_i_glide_emodel>
-66.6554015274346

> <r_i_glide_energy>
-48.4320392608643

> <r_i_glide_einternal>
5.49177551269531

> <i_i_glide_confnum>
5

> <i_i_glide_posenum>
93

> <r_i_glide_eff_state_penalty>
0

> <s_user_duplicate_titles>
CHEMBL3231_lig735

> <i_f3d_flags>
0

> <s_m_subgroup_title>
dock_pv

> <s_m_subgroupid>
dock_pv

> <b_m_subgroup_collapsed>
1

$$$$
CHEMBL3231_lig1287
                    3D
 Schrodinger Suite 2021-1.
 38 41  0  0  1  0            999 V2000
   51.8836  102.1574   30.2521 O   0  0  0  0  0  0
   53.3293  100.4414   34.0488 O   0  0  0  0  0  0
   52.4499  102.5492   31.4693 N   0  0  0  0  0  0
   54.5767  102.3070   33.6459 N   0  0  0  0  0  0
   50.0431   98.3063   25.4503 N   0  0  0  0  0  0
   49.6428   99.4143   24.8110 N   0  0  0  0  0  0
   52.0539  100.8180   30.0982 C   0  0  0  0  0  0
   51.5132  100.1562   28.8761 C   0  0  0  0  0  0
   52.9814  101.4665   32.0112 C   0  0  0  0  0  0
   50.4556  100.2256   26.7064 C   0  0  0  0  0  0
   52.7192  100.3528   31.2104 C   0  0  0  0  0  0
   53.6332  101.3805   33.3051 C   0  0  0  0  0  0
   50.5462   98.8020   26.6218 C   0  0  0  0  0  0
   50.9409  100.9009   27.8385 C   0  0  0  0  0  0
   51.5864   98.7632   28.7869 C   0  0  0  0  0  0
   51.1072   98.0744   27.6748 C   0  0  0  0  0  0
   49.8272  100.5855   25.4917 C   0  0  0  0  0  0
   54.9514  103.4952   32.8544 C   0  0  0  0  0  0
   55.2306  102.2421   34.9685 C   0  0  0  0  0  0
   54.3963  104.7223   33.6110 C   0  0  0  0  0  0
   54.6968  103.4389   35.7880 C   0  0  0  0  0  0
   54.9144  104.7814   35.0607 C   0  0  0  0  0  0
   49.2220   99.3742   23.8884 H   0  0  0  0  0  0
   53.0059   99.3320   31.4211 H   0  0  0  0  0  0
   50.8810  101.9772   27.9023 H   0  0  0  0  0  0
   52.0247   98.1905   29.5919 H   0  0  0  0  0  0
   51.1752   96.9996   27.6281 H   0  0  0  0  0  0
   49.5012  101.5063   25.0497 H   0  0  0  0  0  0
   54.7161  103.4355   31.7906 H   0  0  0  0  0  0
   56.0397  103.5366   32.8510 H   0  0  0  0  0  0
   55.1245  101.2752   35.4650 H   0  0  0  0  0  0
   56.3050  102.3449   34.8122 H   0  0  0  0  0  0
   53.3059  104.7050   33.5966 H   0  0  0  0  0  0
   54.6741  105.6361   33.0846 H   0  0  0  0  0  0
   55.1890  103.4586   36.7601 H   0  0  0  0  0  0
   53.6354  103.2935   35.9964 H   0  0  0  0  0  0
   55.9821  105.0054   35.0438 H   0  0  0  0  0  0
   54.4312  105.5955   35.6019 H   0  0  0  0  0  0
  1  3  1  0  0  0
  1  7  1  0  0  0
  2 12  2  0  0  0
  3  9  2  0  0  0
  4 12  1  0  0  0
  4 18  1  0  0  0
  4 19  1  0  0  0
  5  6  1  0  0  0
  5 13  2  0  0  0
  6 23  1  0  0  0
  6 17  1  0  0  0
  7 11  2  0  0  0
  7  8  1  0  0  0
  8 15  1  0  0  0
  8 14  2  0  0  0
  9 11  1  0  0  0
  9 12  1  0  0  0
 10 14  1  0  0  0
 10 13  1  0  0  0
 10 17  2  0  0  0
 11 24  1  0  0  0
 13 16  1  0  0  0
 14 25  1  0  0  0
 15 16  2  0  0  0
 15 26  1  0  0  0
 16 27  1  0  0  0
 17 28  1  0  0  0
 18 20  1  0  0  0
 18 29  1  0  0  0
 18 30  1  0  0  0
 19 21  1  0  0  0
 19 31  1  0  0  0
 19 32  1  0  0  0
 20 22  1  0  0  0
 20 33  1  0  0  0
 20 34  1  0  0  0
 21 22  1  0  0  0
 21 35  1  0  0  0
 21 36  1  0  0  0
 22 37  1  0  0  0
 22 38  1  0  0  0
M  END
> <s_m_entry_id>
28551

> <s_m_entry_name>
dock_pv.712

> <s_m_Source_Path>
/home/csk/Desktop/cluster/DUD-E-result/rock1

> <s_m_Source_File>
dock_pv.maegz

> <i_m_Source_File_Index>
712

> <chembl_id>
CHEMBL2006481

> <chembl_pref_name>
None

> <i_lp_mmshare_version>
53161

> <r_lp_tautomer_probability>
0.0196078431372549

> <s_lp_Force_Field>
OPLS_2005

> <r_lp_Energy>
47.76713

> <b_lp_Chiralities_Consistent>
1

> <s_lp_Variant>
CHEMBL3231_lig1287-2

> <s_i_glide_gridfile>
glide-grid_2etr

> <i_i_glide_lignum>
1790

> <i_i_glide_rotatable_bonds>
3

> <r_i_docking_score>
-7.04722189795932

> <r_i_glide_ligand_efficiency>
-0.32032826808906

> <r_i_glide_ligand_efficiency_sa>
-0.897572404981457

> <r_i_glide_ligand_efficiency_ln>
-1.72259808552568

> <r_i_glide_gscore>
-7.04722189795932

> <r_i_glide_lipo>
-1.99743206292542

> <r_i_glide_hbond>
-0.394897517589567

> <r_i_glide_metal>
0

> <r_i_glide_rewards>
-2.66438262926855

> <r_i_glide_evdw>
-34.7586936950684

> <r_i_glide_ecoul>
-4.18915319442749

> <r_i_glide_erotb>
0.43809529494217

> <r_i_glide_esite>
-0.0622973192004093

> <r_i_glide_emodel>
-55.5950402373508

> <r_i_glide_energy>
-38.9478468894958

> <r_i_glide_einternal>
1.19601440429688

> <i_i_glide_confnum>
15

> <i_i_glide_posenum>
381

> <r_i_glide_eff_state_penalty>
0

> <s_user_duplicate_titles>
CHEMBL3231_lig1287,CHEMBL3231_lig1287

> <i_f3d_flags>
0

> <s_m_subgroup_title>
dock_pv

> <s_m_subgroupid>
dock_pv

> <b_m_subgroup_collapsed>
1

$$$$
CHEMBL3231_lig237
                    3D
 Schrodinger Suite 2021-1.
 40 42  0  0  1  0            999 V2000
   50.0425   98.6190   25.3970 N   0  0  0  0  0  0
   50.6429   97.7879   26.2770 C   0  0  0  0  0  0
   51.1867   98.2117   27.4874 C   0  0  0  0  0  0
   49.9549   99.9276   25.7233 C   0  0  0  0  0  0
   50.4990  100.4893   26.9160 C   0  0  0  0  0  0
   51.1360   99.5869   27.8208 C   0  0  0  0  0  0
   51.6850  100.0850   29.0268 C   0  0  0  0  0  0
   51.6038  101.4437   29.3362 C   0  0  0  0  0  0
   50.9802  102.3234   28.4545 C   0  0  0  0  0  0
   50.4430  101.8687   27.2548 C   0  0  0  0  0  0
   49.2486  100.7030   24.8110 N   0  0  0  0  0  0
   52.1895  101.9606   30.6390 C   0  0  0  0  0  0
   53.4738  102.6074   30.4034 N   0  0  2  0  0  0
   54.2560  102.8585   31.6128 C   0  0  0  0  0  0
   53.6486  103.8992   32.5891 C   0  0  0  0  0  0
   52.5010  103.4589   33.5055 C   0  0  0  0  0  0
   52.3086  102.1209   33.8771 C   0  0  0  0  0  0
   51.2434  101.7685   34.7034 C   0  0  0  0  0  0
   50.3804  102.7542   35.1776 C   0  0  0  0  0  0
   50.5798  104.0915   34.8407 C   0  0  0  0  0  0
   51.6430  104.4414   34.0113 C   0  0  0  0  0  0
   50.6825   96.7435   25.9991 H   0  0  0  0  0  0
   51.6427   97.5042   28.1633 H   0  0  0  0  0  0
   52.1717   99.3981   29.7053 H   0  0  0  0  0  0
   50.9256  103.3758   28.6914 H   0  0  0  0  0  0
   49.9805  102.5726   26.5796 H   0  0  0  0  0  0
   49.2345  101.7035   24.9332 H   0  0  0  0  0  0
   48.9833  100.3003   23.9146 H   0  0  0  0  0  0
   52.3083  101.1236   31.3289 H   0  0  0  0  0  0
   51.4847  102.6635   31.0847 H   0  0  0  0  0  0
   53.3578  103.4821   29.9115 H   0  0  0  0  0  0
   55.2433  103.2093   31.3146 H   0  0  0  0  0  0
   54.4467  101.9041   32.1053 H   0  0  0  0  0  0
   53.3387  104.7703   32.0108 H   0  0  0  0  0  0
   54.4461  104.2576   33.2418 H   0  0  0  0  0  0
   52.9743  101.3444   33.5351 H   0  0  0  0  0  0
   51.0948  100.7353   34.9806 H   0  0  0  0  0  0
   49.5568  102.4816   35.8221 H   0  0  0  0  0  0
   49.9180  104.8544   35.2258 H   0  0  0  0  0  0
   51.8027  105.4824   33.7615 H   0  0  0  0  0  0
  1  2  2  0  0  0
  1  4  1  0  0  0
  2  3  1  0  0  0
  2 22  1  0  0  0
  3  6  2  0  0  0
  3 23  1  0  0  0
  4 11  1  0  0  0
  4  5  2  0  0  0
  5 10  1  0  0  0
  5  6  1  0  0  0
  6  7  1  0  0  0
  7  8  2  0  0  0
  7 24  1  0  0  0
  8 12  1  0  0  0
  8  9  1  0  0  0
  9 10  2  0  0  0
  9 25  1  0  0  0
 10 26  1  0  0  0
 11 27  1  0  0  0
 11 28  1  0  0  0
 12 13  1  0  0  0
 12 29  1  0  0  0
 12 30  1  0  0  0
 13 14  1  0  0  0
 13 31  1  0  0  0
 14 15  1  0  0  0
 14 32  1  0  0  0
 14 33  1  0  0  0
 15 16  1  0  0  0
 15 34  1  0  0  0
 15 35  1  0  0  0
 16 17  2  0  0  0
 16 21  1  0  0  0
 17 18  1  0  0  0
 17 36  1  0  0  0
 18 19  2  0  0  0
 18 37  1  0  0  0
 19 20  1  0  0  0
 19 38  1  0  0  0
 20 21  2  0  0  0
 20 39  1  0  0  0
 21 40  1  0  0  0
M  END
> <s_m_entry_id>
28552

> <s_m_entry_name>
dock_pv.713

> <s_m_Source_Path>
/home/csk/Desktop/cluster/DUD-E-result/rock1

> <s_m_Source_File>
dock_pv.maegz

> <i_m_Source_File_Index>
713

> <chembl_id>
CHEMBL1643361

> <chembl_pref_name>
None

> <i_lp_mmshare_version>
53161

> <r_lp_tautomer_probability>
1

> <s_lp_Force_Field>
OPLS_2005

> <r_lp_Energy>
14.866476

> <b_lp_Chiralities_Consistent>
1

> <s_lp_Variant>
CHEMBL3231_lig237-1

> <s_i_glide_gridfile>
glide-grid_2etr

> <i_i_glide_lignum>
381

> <i_i_glide_rotatable_bonds>
5

> <r_i_docking_score>
-7.04713425173475

> <r_i_glide_ligand_efficiency>
-0.335577821511178

> <r_i_glide_ligand_efficiency_sa>
-0.925833763884925

> <r_i_glide_ligand_efficiency_ln>
-1.74238970366584

> <r_i_glide_gscore>
-7.04713425173475

> <r_i_glide_lipo>
-2.40994992519701

> <r_i_glide_hbond>
-0.32

> <r_i_glide_metal>
0

> <r_i_glide_rewards>
-2.82630906060606

> <r_i_glide_evdw>
-34.9656753540039

> <r_i_glide_ecoul>
-4.52596759796143

> <r_i_glide_erotb>
0.936303641462736

> <r_i_glide_esite>
0

> <r_i_glide_emodel>
-54.2274458842115

> <r_i_glide_energy>
-39.4916429519653

> <r_i_glide_einternal>
4.19953298568726

> <i_i_glide_confnum>
59

> <i_i_glide_posenum>
95

> <r_i_glide_eff_state_penalty>
0

> <s_user_duplicate_titles>
CHEMBL3231_lig237

> <i_f3d_flags>
0

> <s_m_subgroup_title>
dock_pv

> <s_m_subgroupid>
dock_pv

> <b_m_subgroup_collapsed>
1

$$$$
CHEMBL3231_lig525
                    3D
 Schrodinger Suite 2021-1.
 66 70  0  0  1  0            999 V2000
   55.2419  102.6541   34.4658 C   0  0  2  0  0  0
   55.6434  101.3025   35.1048 C   0  0  0  0  0  0
   56.0002  101.2943   36.4194 C   0  0  0  0  0  0
   56.0780  102.4484   37.1363 N   0  0  0  0  0  0
   55.9373  103.7018   36.6535 C   0  0  0  0  0  0
   55.6673  103.7806   35.3278 N   0  0  0  0  0  0
   56.0415  104.7027   37.3547 O   0  0  0  0  0  0
   56.5099  100.1097   37.2396 C   0  0  0  0  0  0
   55.4920  100.1371   34.2318 C   0  0  0  0  0  0
   55.2509   98.9646   34.8545 N   0  0  0  0  0  0
   55.4822  100.2636   33.0060 O   0  0  0  0  0  0
   55.0116   97.7001   34.2949 C   0  0  0  0  0  0
   54.3129   96.7974   35.0990 C   0  0  0  0  0  0
   55.1834   96.0596   32.4965 C   0  0  0  0  0  0
   55.4555   97.3206   33.0207 C   0  0  0  0  0  0
   54.4418   95.1623   33.2746 C   0  0  0  0  0  0
   54.0118   95.5288   34.5878 C   0  0  0  0  0  0
   53.3285   94.3807   35.0558 C   0  0  0  0  0  0
   53.3446   93.5032   34.0041 N   0  0  0  0  0  0
   54.0430   93.9036   32.9292 N   0  0  0  0  0  0
   53.7752  102.7247   34.0549 C   0  0  0  0  0  0
   53.4329  102.7620   32.6991 C   0  0  0  0  0  0
   52.0915  102.7622   32.2987 C   0  0  0  0  0  0
   51.0949  102.7242   33.2870 C   0  0  0  0  0  0
   51.4332  102.6984   34.6381 C   0  0  0  0  0  0
   52.7690  102.6977   35.0232 C   0  0  0  0  0  0
   49.7861  102.7030   32.9622 F   0  0  0  0  0  0
   51.7381  102.7767   30.8356 C   0  0  0  0  0  0
   52.4616  101.9731   30.0430 N   0  0  0  0  0  0
   50.8428  103.5029   30.4112 O   0  0  0  0  0  0
   52.2720  101.8129   28.5989 C   0  0  0  0  0  0
   51.5437  100.5384   28.1234 C   0  0  0  0  0  0
   50.6550  100.6082   27.0232 C   0  0  0  0  0  0
   50.0159   99.4561   26.5607 C   0  0  0  0  0  0
   50.2293   98.2324   27.1764 C   0  0  0  0  0  0
   51.0869   98.1495   28.2646 C   0  0  0  0  0  0
   51.7541   99.2803   28.7429 C   0  0  0  0  0  0
   52.7423   99.0655   29.8864 C   0  0  0  0  0  0
   50.3606  101.9039   26.2775 C   0  0  0  0  0  0
   55.7999  102.7982   33.5388 H   0  0  0  0  0  0
   56.3543  102.4123   38.1053 H   0  0  0  0  0  0
   55.4578  104.7048   34.9821 H   0  0  0  0  0  0
   57.0052   99.3617   36.6216 H   0  0  0  0  0  0
   57.2647  100.4166   37.9664 H   0  0  0  0  0  0
   55.6925   99.6400   37.7859 H   0  0  0  0  0  0
   55.1821   99.0100   35.8575 H   0  0  0  0  0  0
   53.9868   97.0741   36.0910 H   0  0  0  0  0  0
   55.5374   95.7888   31.5124 H   0  0  0  0  0  0
   56.0429   97.9940   32.4143 H   0  0  0  0  0  0
   52.8431   94.1161   35.9808 H   0  0  0  0  0  0
   52.9135   92.5825   34.0327 H   0  0  0  0  0  0
   54.2208  102.7786   31.9565 H   0  0  0  0  0  0
   50.6563  102.6665   35.3871 H   0  0  0  0  0  0
   53.0236  102.6578   36.0724 H   0  0  0  0  0  0
   53.1691  101.3940   30.4713 H   0  0  0  0  0  0
   53.2428  101.8375   28.1154 H   0  0  0  0  0  0
   51.7746  102.7023   28.2209 H   0  0  0  0  0  0
   49.3445   99.5035   25.7154 H   0  0  0  0  0  0
   49.7295   97.3481   26.8105 H   0  0  0  0  0  0
   51.2422   97.1865   28.7299 H   0  0  0  0  0  0
   52.3319   99.4274   30.8294 H   0  0  0  0  0  0
   53.0017   98.0145   30.0175 H   0  0  0  0  0  0
   53.6813   99.5841   29.6905 H   0  0  0  0  0  0
   50.0430  102.6919   26.9597 H   0  0  0  0  0  0
   49.5526  101.7828   25.5571 H   0  0  0  0  0  0
   51.2425  102.2460   25.7378 H   0  0  0  0  0  0
  1  2  1  0  0  0
  1  6  1  0  0  0
  1 21  1  0  0  0
  1 40  1  0  0  0
  2  3  2  0  0  0
  2  9  1  0  0  0
  3  4  1  0  0  0
  3  8  1  0  0  0
  4  5  1  0  0  0
  4 41  1  0  0  0
  5  6  1  0  0  0
  5  7  2  0  0  0
  6 42  1  0  0  0
  8 43  1  0  0  0
  8 44  1  0  0  0
  8 45  1  0  0  0
  9 10  1  0  0  0
  9 11  2  0  0  0
 10 46  1  0  0  0
 10 12  1  0  0  0
 12 15  1  0  0  0
 12 13  2  0  0  0
 13 47  1  0  0  0
 13 17  1  0  0  0
 14 16  1  0  0  0
 14 48  1  0  0  0
 14 15  2  0  0  0
 15 49  1  0  0  0
 16 20  2  0  0  0
 16 17  1  0  0  0
 17 18  2  0  0  0
 18 19  1  0  0  0
 18 50  1  0  0  0
 19 51  1  0  0  0
 19 20  1  0  0  0
 21 22  2  0  0  0
 21 26  1  0  0  0
 22 23  1  0  0  0
 22 52  1  0  0  0
 23 24  2  0  0  0
 23 28  1  0  0  0
 24 25  1  0  0  0
 24 27  1  0  0  0
 25 26  2  0  0  0
 25 53  1  0  0  0
 26 54  1  0  0  0
 28 29  1  0  0  0
 28 30  2  0  0  0
 29 31  1  0  0  0
 29 55  1  0  0  0
 31 32  1  0  0  0
 31 56  1  0  0  0
 31 57  1  0  0  0
 32 33  2  0  0  0
 32 37  1  0  0  0
 33 34  1  0  0  0
 33 39  1  0  0  0
 34 35  2  0  0  0
 34 58  1  0  0  0
 35 36  1  0  0  0
 35 59  1  0  0  0
 36 37  2  0  0  0
 36 60  1  0  0  0
 37 38  1  0  0  0
 38 61  1  0  0  0
 38 62  1  0  0  0
 38 63  1  0  0  0
 39 64  1  0  0  0
 39 65  1  0  0  0
 39 66  1  0  0  0
M  END
> <s_m_entry_id>
28554

> <s_m_entry_name>
dock_pv.715

> <s_m_Source_Path>
/home/csk/Desktop/cluster/DUD-E-result/rock1

> <s_m_Source_File>
dock_pv.maegz

> <i_m_Source_File_Index>
715

> <chembl_id>
CHEMBL3809913

> <chembl_pref_name>
None

> <i_lp_mmshare_version>
53161

> <r_lp_tautomer_probability>
0.019607843137214

> <s_lp_Force_Field>
OPLS_2005

> <r_lp_Energy>
69.523397

> <b_lp_Chiralities_Consistent>
1

> <s_lp_Variant>
CHEMBL3231_lig525-3

> <s_i_glide_gridfile>
glide-grid_2etr

> <i_i_glide_lignum>
779

> <i_i_glide_rotatable_bonds>
8

> <r_i_docking_score>
-7.04646240050959

> <r_i_glide_ligand_efficiency>
-0.180678523089989

> <r_i_glide_ligand_efficiency_sa>
-0.612719074261427

> <r_i_glide_ligand_efficiency_ln>
-1.51096156439951

> <r_i_glide_gscore>
-7.04646240050959

> <r_i_glide_lipo>
-2.52100650249281

> <r_i_glide_hbond>
-0.688911976708414

> <r_i_glide_metal>
0

> <r_i_glide_rewards>
-0.506973338979181

> <r_i_glide_evdw>
-44.019359588623

> <r_i_glide_ecoul>
-10.0125093460083

> <r_i_glide_erotb>
0.59407775342552

> <r_i_glide_esite>
-0.220803954422299

> <r_i_glide_emodel>
-73.280181636931

> <r_i_glide_energy>
-54.0318689346313

> <r_i_glide_einternal>
8.88003253936768

> <i_i_glide_confnum>
93

> <i_i_glide_posenum>
298

> <r_i_glide_eff_state_penalty>
0

> <s_user_duplicate_titles>
CHEMBL3231_lig525

> <i_f3d_flags>
0

> <s_m_subgroup_title>
dock_pv

> <s_m_subgroupid>
dock_pv

> <b_m_subgroup_collapsed>
1

$$$$
CHEMBL3231_lig474
                    3D
 Schrodinger Suite 2021-1.
 41 43  0  0  1  0            999 V2000
   54.6468   97.5490   31.0334 C   0  0  0  0  0  0
   54.3158   97.5934   32.5389 C   0  0  0  0  0  0
   55.6164   97.6208   33.3624 C   0  0  0  0  0  0
   53.6420  103.9032   31.1411 N   0  0  0  0  0  0
   53.5607  103.2002   32.2938 C   0  0  0  0  0  0
   53.0694  101.8986   32.3692 C   0  0  0  0  0  0
   53.1976  103.3076   30.0146 C   0  0  0  0  0  0
   52.6656  101.9999   29.9625 C   0  0  0  0  0  0
   52.6422  101.2436   31.1739 C   0  0  0  0  0  0
   52.1776   99.8940   31.0785 C   0  0  0  0  0  0
   51.6455   99.3812   29.9407 N   0  0  0  0  0  0
   51.6273  100.1332   28.8044 C   0  0  0  0  0  0
   52.1611  101.4252   28.7766 C   0  0  0  0  0  0
   51.0425   99.5003   27.5754 C   0  0  0  0  0  0
   50.5881  100.2775   26.4906 C   0  0  0  0  0  0
   50.1027   99.6501   25.3406 C   0  0  0  0  0  0
   50.0408   98.3028   25.2118 N   0  0  0  0  0  0
   50.4433   97.5522   26.2637 C   0  0  0  0  0  0
   50.9391   98.1059   27.4456 C   0  0  0  0  0  0
   52.1889   98.9841   32.1460 N   0  0  0  0  0  0
   53.4162   98.7924   32.9375 C   0  0  0  0  0  0
   53.6435   96.3626   32.9136 N   0  0  0  0  0  0
   55.2095   98.4323   30.7340 H   0  0  0  0  0  0
   53.7530   97.5026   30.4112 H   0  0  0  0  0  0
   55.2556   96.6792   30.7793 H   0  0  0  0  0  0
   56.2004   98.5168   33.1535 H   0  0  0  0  0  0
   55.4204   97.5997   34.4360 H   0  0  0  0  0  0
   56.2558   96.7638   33.1393 H   0  0  0  0  0  0
   53.9013  103.7109   33.1832 H   0  0  0  0  0  0
   53.0094  101.4029   33.3272 H   0  0  0  0  0  0
   53.2515  103.9032   29.1159 H   0  0  0  0  0  0
   52.1914  101.9987   27.8637 H   0  0  0  0  0  0
   50.6075  101.3555   26.5242 H   0  0  0  0  0  0
   49.7519  100.2283   24.4944 H   0  0  0  0  0  0
   50.3848   96.4801   26.1455 H   0  0  0  0  0  0
   51.2598   97.4511   28.2427 H   0  0  0  0  0  0
   51.6322   98.1520   32.0135 H   0  0  0  0  0  0
   53.1184   98.6902   33.9834 H   0  0  0  0  0  0
   54.0470   99.6743   32.9075 H   0  0  0  0  0  0
   52.7731   96.2156   32.4110 H   0  0  0  0  0  0
   54.2401   95.5804   32.6842 H   0  0  0  0  0  0
  1  2  1  0  0  0
  1 23  1  0  0  0
  1 24  1  0  0  0
  1 25  1  0  0  0
  2  3  1  0  0  0
  2 21  1  0  0  0
  2 22  1  0  0  0
  3 26  1  0  0  0
  3 27  1  0  0  0
  3 28  1  0  0  0
  4  7  1  0  0  0
  4  5  2  0  0  0
  5  6  1  0  0  0
  5 29  1  0  0  0
  6  9  2  0  0  0
  6 30  1  0  0  0
  7  8  2  0  0  0
  7 31  1  0  0  0
  8 13  1  0  0  0
  8  9  1  0  0  0
  9 10  1  0  0  0
 10 20  1  0  0  0
 10 11  2  0  0  0
 11 12  1  0  0  0
 12 13  2  0  0  0
 12 14  1  0  0  0
 13 32  1  0  0  0
 14 15  2  0  0  0
 14 19  1  0  0  0
 15 16  1  0  0  0
 15 33  1  0  0  0
 16 17  2  0  0  0
 16 34  1  0  0  0
 17 18  1  0  0  0
 18 19  2  0  0  0
 18 35  1  0  0  0
 19 36  1  0  0  0
 20 21  1  0  0  0
 20 37  1  0  0  0
 21 38  1  0  0  0
 21 39  1  0  0  0
 22 40  1  0  0  0
 22 41  1  0  0  0
M  END
> <s_m_entry_id>
28555

> <s_m_entry_name>
dock_pv.716

> <s_m_Source_Path>
/home/csk/Desktop/cluster/DUD-E-result/rock1

> <s_m_Source_File>
dock_pv.maegz

> <i_m_Source_File_Index>
716

> <chembl_id>
CHEMBL2147538

> <chembl_pref_name>
None

> <i_lp_mmshare_version>
53161

> <r_lp_tautomer_probability>
1

> <s_lp_Force_Field>
OPLS_2005

> <r_lp_Energy>
15.84824

> <b_lp_Chiralities_Consistent>
1

> <s_lp_Variant>
CHEMBL3231_lig474-1

> <s_i_glide_gridfile>
glide-grid_2etr

> <i_i_glide_lignum>
667

> <i_i_glide_rotatable_bonds>
4

> <r_i_docking_score>
-7.04452263372681

> <r_i_glide_ligand_efficiency>
-0.320205574260309

> <r_i_glide_ligand_efficiency_sa>
-0.897228612048024

> <r_i_glide_ligand_efficiency_ln>
-1.7219382868892

> <r_i_glide_gscore>
-7.04452263372681

> <r_i_glide_lipo>
-2.14037399703057

> <r_i_glide_hbond>
-0.473973911666225

> <r_i_glide_metal>
0

> <r_i_glide_rewards>
-2.73879775657417

> <r_i_glide_evdw>
-37.3359069824219

> <r_i_glide_ecoul>
-3.07663035392761

> <r_i_glide_erotb>
0.636912933754392

> <r_i_glide_esite>
0

> <r_i_glide_emodel>
-53.4240895367362

> <r_i_glide_energy>
-40.4125373363495

> <r_i_glide_einternal>
9.56832504272461

> <i_i_glide_confnum>
5

> <i_i_glide_posenum>
113

> <r_i_glide_eff_state_penalty>
0

> <s_user_duplicate_titles>
CHEMBL3231_lig474

> <i_f3d_flags>
0

> <s_m_subgroup_title>
dock_pv

> <s_m_subgroupid>
dock_pv

> <b_m_subgroup_collapsed>
1

$$$$
CHEMBL3231_lig2084
                    3D
 Schrodinger Suite 2021-1.
 45 48  0  0  1  0            999 V2000
   51.1884  101.0182   28.3615 C   0  0  0  0  0  0
   51.8988  100.5933   29.3965 N   0  0  0  0  0  0
   52.1277  101.5337   30.2851 C   0  0  0  0  0  0
   51.4690  103.0907   29.8808 S   0  0  0  0  0  0
   50.8428  102.3737   28.4285 C   0  0  0  0  0  0
   52.8619  101.3503   31.4582 N   0  0  0  0  0  0
   50.8130  100.0687   27.2647 C   0  0  0  0  0  0
   50.8377   98.6783   27.4599 C   0  0  0  0  0  0
   50.4438   97.8386   26.4183 C   0  0  0  0  0  0
   50.0431   98.3032   25.2109 N   0  0  0  0  0  0
   50.0427   99.6458   25.0182 C   0  0  0  0  0  0
   50.4119  100.5537   26.0112 C   0  0  0  0  0  0
   53.9926  102.2840   31.6731 C   0  0  0  0  0  0
   54.9727  101.7937   32.7426 C   0  0  0  0  0  0
   54.2404  101.3011   33.9813 C   0  0  0  0  0  0
   53.1994  100.2111   33.6513 C   0  0  1  0  0  0
   52.3300  100.4836   32.3905 C   0  0  0  0  0  0
   51.2439   99.9033   32.2774 O   0  0  0  0  0  0
   53.7759   98.7874   33.5590 C   0  0  0  0  0  0
   53.5340   97.8799   34.5978 C   0  0  0  0  0  0
   54.0045   96.5666   34.5444 C   0  0  0  0  0  0
   54.7683   96.1667   33.4362 C   0  0  0  0  0  0
   55.0382   97.0640   32.4056 C   0  0  0  0  0  0
   54.5411   98.3641   32.4624 C   0  0  0  0  0  0
   53.6664   95.7443   35.6011 O   0  0  0  0  0  0
   54.0347   94.3712   35.5397 C   0  0  0  0  0  0
   50.2693  102.9603   27.7258 H   0  0  0  0  0  0
   51.1399   98.2511   28.4054 H   0  0  0  0  0  0
   50.4448   96.7654   26.5443 H   0  0  0  0  0  0
   49.7263   99.9924   24.0444 H   0  0  0  0  0  0
   50.3837  101.6126   25.8032 H   0  0  0  0  0  0
   54.5285  102.4314   30.7336 H   0  0  0  0  0  0
   53.5762  103.2476   31.9716 H   0  0  0  0  0  0
   55.6135  101.0109   32.3352 H   0  0  0  0  0  0
   55.6430  102.6118   33.0027 H   0  0  0  0  0  0
   53.7394  102.1484   34.4535 H   0  0  0  0  0  0
   54.9568  100.9330   34.7181 H   0  0  0  0  0  0
   52.4869  100.2002   34.4776 H   0  0  0  0  0  0
   52.9532   98.1828   35.4560 H   0  0  0  0  0  0
   55.1669   95.1668   33.3590 H   0  0  0  0  0  0
   55.6415   96.7555   31.5632 H   0  0  0  0  0  0
   54.7561   99.0356   31.6445 H   0  0  0  0  0  0
   53.6475   93.8477   36.4116 H   0  0  0  0  0  0
   53.6104   93.8965   34.6544 H   0  0  0  0  0  0
   55.1184   94.2457   35.5314 H   0  0  0  0  0  0
  1  2  1  0  0  0
  1  5  2  0  0  0
  1  7  1  0  0  0
  2  3  2  0  0  0
  3  4  1  0  0  0
  3  6  1  0  0  0
  4  5  1  0  0  0
  5 27  1  0  0  0
  6 13  1  0  0  0
  6 17  1  0  0  0
  7  8  2  0  0  0
  7 12  1  0  0  0
  8  9  1  0  0  0
  8 28  1  0  0  0
  9 10  2  0  0  0
  9 29  1  0  0  0
 10 11  1  0  0  0
 11 12  2  0  0  0
 11 30  1  0  0  0
 12 31  1  0  0  0
 13 14  1  0  0  0
 13 32  1  0  0  0
 13 33  1  0  0  0
 14 15  1  0  0  0
 14 34  1  0  0  0
 14 35  1  0  0  0
 15 16  1  0  0  0
 15 36  1  0  0  0
 15 37  1  0  0  0
 16 17  1  0  0  0
 16 19  1  0  0  0
 16 38  1  0  0  0
 17 18  2  0  0  0
 19 20  2  0  0  0
 19 24  1  0  0  0
 20 21  1  0  0  0
 20 39  1  0  0  0
 21 22  2  0  0  0
 21 25  1  0  0  0
 22 23  1  0  0  0
 22 40  1  0  0  0
 23 24  2  0  0  0
 23 41  1  0  0  0
 24 42  1  0  0  0
 25 26  1  0  0  0
 26 43  1  0  0  0
 26 44  1  0  0  0
 26 45  1  0  0  0
M  END
> <s_m_entry_id>
28556

> <s_m_entry_name>
dock_pv.717

> <s_m_Source_Path>
/home/csk/Desktop/cluster/DUD-E-result/rock1

> <s_m_Source_File>
dock_pv.maegz

> <i_m_Source_File_Index>
717

> <chembl_id>
CHEMBL3581129

> <chembl_pref_name>
None

> <i_lp_mmshare_version>
53161

> <r_lp_tautomer_probability>
1

> <s_lp_Force_Field>
OPLS_2005

> <r_lp_Energy>
33.282136

> <b_lp_Chiralities_Consistent>
1

> <s_lp_Variant>
CHEMBL3231_lig2084-2

> <s_i_glide_gridfile>
glide-grid_2etr

> <i_i_glide_lignum>
3012

> <i_i_glide_rotatable_bonds>
4

> <r_i_docking_score>
-7.04423935162898

> <r_i_glide_ligand_efficiency>
-0.270932282754961

> <r_i_glide_ligand_efficiency_sa>
-0.802635821594517

> <r_i_glide_ligand_efficiency_ln>
-1.65431649769549

> <r_i_glide_gscore>
-7.04423935162898

> <r_i_glide_lipo>
-2.21798330025061

> <r_i_glide_hbond>
-0.236054279611062

> <r_i_glide_metal>
0

> <r_i_glide_rewards>
-2.25199518290323

> <r_i_glide_evdw>
-42.5709762573242

> <r_i_glide_ecoul>
-4.15265417098999

> <r_i_glide_erotb>
0.432102568026001

> <r_i_glide_esite>
-0.0188622183753695

> <r_i_glide_emodel>
-66.5725380365537

> <r_i_glide_energy>
-46.7236304283142

> <r_i_glide_einternal>
0.681592166423798

> <i_i_glide_confnum>
36

> <i_i_glide_posenum>
266

> <r_i_glide_eff_state_penalty>
0

> <s_user_duplicate_titles>
CHEMBL3231_lig2084

> <i_f3d_flags>
0

> <s_m_subgroup_title>
dock_pv

> <s_m_subgroupid>
dock_pv

> <b_m_subgroup_collapsed>
1

$$$$
CHEMBL3231_lig711
                    3D
 Schrodinger Suite 2021-1.
 46 48  0  0  1  0            999 V2000
   50.2211  100.7030   35.2300 C   0  0  0  0  0  0
   50.1747  101.9657   35.8821 O   0  0  0  0  0  0
   51.0554  102.9565   35.4945 C   0  0  0  0  0  0
   50.9305  104.1858   36.1424 C   0  0  0  0  0  0
   51.7570  105.2557   35.8057 C   0  0  0  0  0  0
   52.7204  105.1036   34.8111 C   0  0  0  0  0  0
   52.8766  103.8824   34.1489 C   0  0  0  0  0  0
   52.0406  102.8111   34.5013 C   0  0  0  0  0  0
   53.9131  103.7690   33.0156 C   0  0  1  0  0  0
   55.2972  103.3986   33.5673 C   0  0  0  0  0  0
   53.5520  102.8572   31.9213 N   0  0  0  0  0  0
   52.4614  102.9915   31.1469 C   0  0  0  0  0  0
   51.6430  103.9027   31.2799 O   0  0  0  0  0  0
   52.2517  101.9558   30.0779 C   0  0  0  0  0  0
   52.5585  100.6071   30.2806 C   0  0  0  0  0  0
   52.2313   99.6647   29.3076 C   0  0  0  0  0  0
   51.6083  100.0409   28.1078 C   0  0  0  0  0  0
   51.1676   98.9486   27.1798 C   0  0  0  0  0  0
   50.8430   97.6614   27.5489 C   0  0  0  0  0  0
   50.4410   97.0273   26.4110 N   0  0  0  0  0  0
   50.4430   97.7946   25.3403 N   0  0  0  0  0  0
   50.9324   98.9175   25.7855 C   0  0  0  0  0  0
   51.3636  101.4064   27.8716 C   0  0  0  0  0  0
   51.6744  102.3398   28.8675 C   0  0  0  0  0  0
   50.7541  101.9050   26.5643 C   0  0  0  0  0  0
   51.6389  101.7503   25.5841 F   0  0  0  0  0  0
   49.6430  101.2516   26.2535 F   0  0  0  0  0  0
   50.4430  103.1934   26.6263 F   0  0  0  0  0  0
   49.4103  100.0817   35.6076 H   0  0  0  0  0  0
   50.0847  100.7972   34.1521 H   0  0  0  0  0  0
   51.1604  100.1853   35.4296 H   0  0  0  0  0  0
   50.1786  104.3112   36.9073 H   0  0  0  0  0  0
   51.6454  106.2066   36.3056 H   0  0  0  0  0  0
   53.3367  105.9498   34.5400 H   0  0  0  0  0  0
   52.1616  101.8714   33.9857 H   0  0  0  0  0  0
   54.0107  104.7605   32.5606 H   0  0  0  0  0  0
   55.6304  104.1165   34.3169 H   0  0  0  0  0  0
   55.2958  102.4099   34.0282 H   0  0  0  0  0  0
   56.0429  103.3953   32.7711 H   0  0  0  0  0  0
   54.2888  102.2531   31.5866 H   0  0  0  0  0  0
   53.0096  100.2707   31.2039 H   0  0  0  0  0  0
   52.4495   98.6265   29.5090 H   0  0  0  0  0  0
   50.8434   97.1484   28.5004 H   0  0  0  0  0  0
   50.1358   96.0655   26.3744 H   0  0  0  0  0  0
   51.0881   99.6963   25.0619 H   0  0  0  0  0  0
   51.4609  103.3879   28.7069 H   0  0  0  0  0  0
  1  2  1  0  0  0
  1 29  1  0  0  0
  1 30  1  0  0  0
  1 31  1  0  0  0
  2  3  1  0  0  0
  3  4  2  0  0  0
  3  8  1  0  0  0
  4  5  1  0  0  0
  4 32  1  0  0  0
  5  6  2  0  0  0
  5 33  1  0  0  0
  6  7  1  0  0  0
  6 34  1  0  0  0
  7  8  2  0  0  0
  7  9  1  0  0  0
  8 35  1  0  0  0
  9 10  1  0  0  0
  9 11  1  0  0  0
  9 36  1  0  0  0
 10 37  1  0  0  0
 10 38  1  0  0  0
 10 39  1  0  0  0
 11 12  1  0  0  0
 11 40  1  0  0  0
 12 13  2  0  0  0
 12 14  1  0  0  0
 14 15  2  0  0  0
 14 24  1  0  0  0
 15 16  1  0  0  0
 15 41  1  0  0  0
 16 17  2  0  0  0
 16 42  1  0  0  0
 17 23  1  0  0  0
 17 18  1  0  0  0
 18 19  2  0  0  0
 18 22  1  0  0  0
 19 20  1  0  0  0
 19 43  1  0  0  0
 20 21  1  0  0  0
 20 44  1  0  0  0
 21 22  2  0  0  0
 22 45  1  0  0  0
 23 24  2  0  0  0
 23 25  1  0  0  0
 24 46  1  0  0  0
 25 26  1  0  0  0
 25 27  1  0  0  0
 25 28  1  0  0  0
M  END
> <s_m_entry_id>
28557

> <s_m_entry_name>
dock_pv.718

> <s_m_Source_Path>
/home/csk/Desktop/cluster/DUD-E-result/rock1

> <s_m_Source_File>
dock_pv.maegz

> <i_m_Source_File_Index>
718

> <chembl_id>
CHEMBL4114533

> <chembl_pref_name>
None

> <i_lp_mmshare_version>
53161

> <r_lp_tautomer_probability>
0.5

> <s_lp_Force_Field>
OPLS_2005

> <r_lp_Energy>
24.22971

> <b_lp_Chiralities_Consistent>
1

> <s_lp_Variant>
CHEMBL3231_lig711-1

> <s_i_glide_gridfile>
glide-grid_2etr

> <i_i_glide_lignum>
1011

> <i_i_glide_rotatable_bonds>
7

> <r_i_docking_score>
-7.04388025690591

> <r_i_glide_ligand_efficiency>
-0.251567152032354

> <r_i_glide_ligand_efficiency_sa>
-0.763906038699117

> <r_i_glide_ligand_efficiency_ln>
-1.625934380605

> <r_i_glide_gscore>
-7.04388025690591

> <r_i_glide_lipo>
-2.28982176356623

> <r_i_glide_hbond>
-0.48

> <r_i_glide_metal>
0

> <r_i_glide_rewards>
-2.5227336953563

> <r_i_glide_evdw>
-27.2412624359131

> <r_i_glide_ecoul>
-6.36219024658203

> <r_i_glide_erotb>
0.642886340722741

> <r_i_glide_esite>
-0.0778194799231661

> <r_i_glide_emodel>
-46.9924755988895

> <r_i_glide_energy>
-33.6034526824951

> <r_i_glide_einternal>
3.71413016319275

> <i_i_glide_confnum>
16

> <i_i_glide_posenum>
208

> <r_i_glide_eff_state_penalty>
0

> <s_user_duplicate_titles>
CHEMBL3231_lig711

> <i_f3d_flags>
0

> <s_m_subgroup_title>
dock_pv

> <s_m_subgroupid>
dock_pv

> <b_m_subgroup_collapsed>
1

$$$$
CHEMBL3231_lig161
                    3D
 Schrodinger Suite 2021-1.
 41 43  0  0  1  0            999 V2000
   50.9158  102.4814   28.4111 C   0  0  0  0  0  0
   51.1165  101.0952   28.4464 C   0  0  0  0  0  0
   51.6689  100.5339   29.5567 N   0  0  0  0  0  0
   52.0624  101.3145   30.6060 C   0  0  0  0  0  0
   51.8949  102.7169   30.5124 C   0  0  0  0  0  0
   51.3140  103.2911   29.4256 N   0  0  0  0  0  0
   52.2789  103.6024   31.5224 N   0  0  0  0  0  0
   50.7569  100.1698   27.3229 C   0  0  0  0  0  0
   50.3813  100.6620   26.0600 C   0  0  0  0  0  0
   50.0406   99.7701   25.0419 C   0  0  0  0  0  0
   50.0431   98.4258   25.2114 N   0  0  0  0  0  0
   50.4316   97.9435   26.4150 C   0  0  0  0  0  0
   50.7908   98.7719   27.4801 C   0  0  0  0  0  0
   52.6175  100.6352   31.7183 N   0  0  0  0  0  0
   53.7938  101.2009   32.3936 C   0  0  0  0  0  0
   54.7705  100.2593   33.1248 C   0  0  0  0  0  0
   52.2094   99.2452   31.9772 C   0  0  0  0  0  0
   55.3160   99.0857   32.3064 C   0  0  0  0  0  0
   53.1321   98.0844   31.5549 C   0  0  0  0  0  0
   54.4250   97.9326   32.2181 N   0  0  1  0  0  0
   55.1180   96.6957   31.8679 C   0  0  0  0  0  0
   50.4490  102.9775   27.5748 H   0  0  0  0  0  0
   52.8187  103.2118   32.2820 H   0  0  0  0  0  0
   52.4436  104.5693   31.2680 H   0  0  0  0  0  0
   50.3491  101.7187   25.8470 H   0  0  0  0  0  0
   49.7412  100.1318   24.0695 H   0  0  0  0  0  0
   50.4443   96.8677   26.5175 H   0  0  0  0  0  0
   51.0739   98.3159   28.4156 H   0  0  0  0  0  0
   53.4214  101.8745   33.1666 H   0  0  0  0  0  0
   54.3891  101.7527   31.6638 H   0  0  0  0  0  0
   54.3084   99.9055   34.0485 H   0  0  0  0  0  0
   55.6262  100.8619   33.4431 H   0  0  0  0  0  0
   51.1816   99.0577   31.6646 H   0  0  0  0  0  0
   52.0873   99.1624   33.0589 H   0  0  0  0  0  0
   55.5977   99.3985   31.2974 H   0  0  0  0  0  0
   56.2407   98.7810   32.8023 H   0  0  0  0  0  0
   53.3363   98.2847   30.5015 H   0  0  0  0  0  0
   52.5674   97.1502   31.5336 H   0  0  0  0  0  0
   55.4608   96.7157   30.8318 H   0  0  0  0  0  0
   55.9883   96.5364   32.5067 H   0  0  0  0  0  0
   54.4610   95.8331   31.9961 H   0  0  0  0  0  0
  1  6  1  0  0  0
  1  2  2  0  0  0
  1 22  1  0  0  0
  2  8  1  0  0  0
  2  3  1  0  0  0
  3  4  2  0  0  0
  4 14  1  0  0  0
  4  5  1  0  0  0
  5  6  2  0  0  0
  5  7  1  0  0  0
  7 23  1  0  0  0
  7 24  1  0  0  0
  8 13  1  0  0  0
  8  9  2  0  0  0
  9 10  1  0  0  0
  9 25  1  0  0  0
 10 11  2  0  0  0
 10 26  1  0  0  0
 11 12  1  0  0  0
 12 13  2  0  0  0
 12 27  1  0  0  0
 13 28  1  0  0  0
 14 15  1  0  0  0
 14 17  1  0  0  0
 15 16  1  0  0  0
 15 29  1  0  0  0
 15 30  1  0  0  0
 16 18  1  0  0  0
 16 31  1  0  0  0
 16 32  1  0  0  0
 17 19  1  0  0  0
 17 33  1  0  0  0
 17 34  1  0  0  0
 18 20  1  0  0  0
 18 35  1  0  0  0
 18 36  1  0  0  0
 19 20  1  0  0  0
 19 37  1  0  0  0
 19 38  1  0  0  0
 20 21  1  0  0  0
 21 39  1  0  0  0
 21 40  1  0  0  0
 21 41  1  0  0  0
M  END
> <s_m_entry_id>
28559

> <s_m_entry_name>
dock_pv.720

> <s_m_Source_Path>
/home/csk/Desktop/cluster/DUD-E-result/rock1

> <s_m_Source_File>
dock_pv.maegz

> <i_m_Source_File_Index>
720

> <chembl_id>
CHEMBL602706

> <chembl_pref_name>
None

> <i_lp_mmshare_version>
53161

> <r_lp_tautomer_probability>
0.999999901280008

> <s_lp_Force_Field>
OPLS_2005

> <r_lp_Energy>
40.032009

> <b_lp_Chiralities_Consistent>
1

> <s_lp_Variant>
CHEMBL3231_lig161-1

> <s_i_glide_gridfile>
glide-grid_2etr

> <i_i_glide_lignum>
285

> <i_i_glide_rotatable_bonds>
2

> <r_i_docking_score>
-7.04117514622047

> <r_i_glide_ligand_efficiency>
-0.335294054581927

> <r_i_glide_ligand_efficiency_sa>
-0.92505087244415

> <r_i_glide_ligand_efficiency_ln>
-1.74091632686894

> <r_i_glide_gscore>
-7.04117514622047

> <r_i_glide_lipo>
-2.16822496370586

> <r_i_glide_hbond>
-0.178233739606345

> <r_i_glide_metal>
0

> <r_i_glide_rewards>
-2.69606056037154

> <r_i_glide_evdw>
-36.6899642944336

> <r_i_glide_ecoul>
-3.56607389450073

> <r_i_glide_erotb>
0.448322688877461

> <r_i_glide_esite>
-0.0775692725173964

> <r_i_glide_emodel>
-57.4652422493999

> <r_i_glide_energy>
-40.2560381889343

> <r_i_glide_einternal>
0.114443175494671

> <i_i_glide_confnum>
36

> <i_i_glide_posenum>
285

> <r_i_glide_eff_state_penalty>
0

> <s_user_duplicate_titles>
CHEMBL3231_lig161

> <i_f3d_flags>
0

> <s_m_subgroup_title>
dock_pv

> <s_m_subgroupid>
dock_pv

> <b_m_subgroup_collapsed>
1

$$$$
CHEMBL3231_lig2083
                    3D
 Schrodinger Suite 2021-1.
 38 40  0  0  1  0            999 V2000
   51.5806  100.7325   28.5786 C   0  0  0  0  0  0
   52.3432  100.0548   29.3972 N   0  0  0  0  0  0
   52.8009  100.7712   30.4131 C   0  0  0  0  0  0
   52.3711  102.0943   30.4304 C   0  0  0  0  0  0
   51.3299  102.3844   29.0672 S   0  0  0  0  0  0
   53.6322  100.2447   31.3974 N   0  0  0  0  0  0
   54.1678   99.0023   31.4388 C   0  0  0  0  0  0
   55.0001   98.6663   32.6849 C   0  0  0  0  0  0
   54.0442   98.1655   30.5430 O   0  0  0  0  0  0
   54.7712   97.2397   33.1836 C   0  0  0  0  0  0
   55.4106   96.1605   32.5618 C   0  0  0  0  0  0
   55.1655   94.8414   32.9764 C   0  0  0  0  0  0
   54.2671   94.6218   34.0204 C   0  0  0  0  0  0
   53.6432   95.6898   34.6608 C   0  0  0  0  0  0
   53.8858   96.9963   34.2379 C   0  0  0  0  0  0
   50.9791  100.1361   27.3398 C   0  0  0  0  0  0
   50.9679   98.7409   27.1738 C   0  0  0  0  0  0
   50.4428   98.1925   26.0052 C   0  0  0  0  0  0
   49.9357   98.9544   25.0021 N   0  0  0  0  0  0
   49.9351  100.2998   25.1678 C   0  0  0  0  0  0
   50.4435  100.9258   26.3088 C   0  0  0  0  0  0
   55.7461   93.7239   32.4110 O   0  0  0  0  0  0
   56.8367   93.8978   31.5120 C   0  0  0  0  0  0
   52.6154  102.8736   31.1366 H   0  0  0  0  0  0
   53.8904  100.8777   32.1370 H   0  0  0  0  0  0
   54.8040   99.3800   33.4859 H   0  0  0  0  0  0
   56.0444   98.7888   32.4117 H   0  0  0  0  0  0
   56.0862   96.3654   31.7440 H   0  0  0  0  0  0
   54.0584   93.6112   34.3399 H   0  0  0  0  0  0
   52.9544   95.4990   35.4689 H   0  0  0  0  0  0
   53.3816   97.8163   34.7279 H   0  0  0  0  0  0
   51.3722   98.0824   27.9334 H   0  0  0  0  0  0
   50.4331   97.1212   25.8547 H   0  0  0  0  0  0
   49.5080  100.8778   24.3594 H   0  0  0  0  0  0
   50.4240  102.0044   26.3795 H   0  0  0  0  0  0
   57.2396   92.9195   31.2493 H   0  0  0  0  0  0
   56.5217   94.3857   30.5876 H   0  0  0  0  0  0
   57.6424   94.4770   31.9682 H   0  0  0  0  0  0
  1  2  2  0  0  0
  1  5  1  0  0  0
  1 16  1  0  0  0
  2  3  1  0  0  0
  3  4  2  0  0  0
  3  6  1  0  0  0
  4  5  1  0  0  0
  4 24  1  0  0  0
  6  7  1  0  0  0
  6 25  1  0  0  0
  7  8  1  0  0  0
  7  9  2  0  0  0
  8 10  1  0  0  0
  8 26  1  0  0  0
  8 27  1  0  0  0
 10 11  2  0  0  0
 10 15  1  0  0  0
 11 12  1  0  0  0
 11 28  1  0  0  0
 12 13  2  0  0  0
 12 22  1  0  0  0
 13 14  1  0  0  0
 13 29  1  0  0  0
 14 15  2  0  0  0
 14 30  1  0  0  0
 15 31  1  0  0  0
 16 17  2  0  0  0
 16 21  1  0  0  0
 17 18  1  0  0  0
 17 32  1  0  0  0
 18 19  2  0  0  0
 18 33  1  0  0  0
 19 20  1  0  0  0
 20 21  2  0  0  0
 20 34  1  0  0  0
 21 35  1  0  0  0
 22 23  1  0  0  0
 23 36  1  0  0  0
 23 37  1  0  0  0
 23 38  1  0  0  0
M  END
> <s_m_entry_id>
28560

> <s_m_entry_name>
dock_pv.721

> <s_m_Source_Path>
/home/csk/Desktop/cluster/DUD-E-result/rock1

> <s_m_Source_File>
dock_pv.maegz

> <i_m_Source_File_Index>
721

> <chembl_id>
CHEMBL3581130

> <chembl_pref_name>
None

> <i_lp_mmshare_version>
53161

> <r_lp_tautomer_probability>
1

> <s_lp_Force_Field>
OPLS_2005

> <r_lp_Energy>
15.251186

> <b_lp_Chiralities_Consistent>
1

> <s_lp_Variant>
CHEMBL3231_lig2083-1

> <s_i_glide_gridfile>
glide-grid_2etr

> <i_i_glide_lignum>
3010

> <i_i_glide_rotatable_bonds>
6

> <r_i_docking_score>
-7.04036635445743

> <r_i_glide_ligand_efficiency>
-0.30610288497641

> <r_i_glide_ligand_efficiency_sa>
-0.870515886111881

> <r_i_glide_ligand_efficiency_ln>
-1.70242442302041

> <r_i_glide_gscore>
-7.04036635445743

> <r_i_glide_lipo>
-2.33313558667351

> <r_i_glide_hbond>
-0.32

> <r_i_glide_metal>
0

> <r_i_glide_rewards>
-2.51231210651825

> <r_i_glide_evdw>
-44.4083480834961

> <r_i_glide_ecoul>
-3.1605532169342

> <r_i_glide_erotb>
0.885022411526223

> <r_i_glide_esite>
-0.0654406860769531

> <r_i_glide_emodel>
-67.207246408432

> <r_i_glide_energy>
-47.5689013004303

> <r_i_glide_einternal>
0.614766538143158

> <i_i_glide_confnum>
11

> <i_i_glide_posenum>
155

> <r_i_glide_eff_state_penalty>
0

> <s_user_duplicate_titles>
CHEMBL3231_lig2083

> <i_f3d_flags>
0

> <s_m_subgroup_title>
dock_pv

> <s_m_subgroupid>
dock_pv

> <b_m_subgroup_collapsed>
1

$$$$
CHEMBL3231_lig872
                    3D
 Schrodinger Suite 2021-1.
 34 36  0  0  1  0            999 V2000
   53.2456  100.1349   31.1740 N   0  0  0  0  0  0
   53.5142  100.9379   32.1528 C   0  0  0  0  0  0
   52.9709  102.2095   32.1845 N   0  0  0  0  0  0
   52.1017  102.7803   31.2925 C   0  0  0  0  0  0
   52.4273  100.5912   30.1805 C   0  0  0  0  0  0
   51.8489  101.8609   30.1922 C   0  0  0  0  0  0
   50.8474  102.1487   28.8082 S   0  0  0  0  0  0
   51.2405  100.5708   28.1659 C   0  0  0  0  0  0
   52.0755   99.8726   29.0384 C   0  0  0  0  0  0
   50.7323  100.1243   26.8750 C   0  0  0  0  0  0
   50.4037  100.9085   25.7833 C   0  0  0  0  0  0
   49.9896  100.0454   24.8110 N   0  0  0  0  0  0
   50.0421   98.7721   25.1991 N   0  0  0  0  0  0
   50.4738   98.8079   26.4402 C   0  0  0  0  0  0
   51.6439  103.9026   31.4742 O   0  0  0  0  0  0
   50.6211   97.5133   27.1935 C   0  0  0  0  0  0
   54.4177  100.5329   33.3201 C   0  0  0  0  0  0
   54.4739   99.1185   33.5277 O   0  0  0  0  0  0
   55.5024   98.4398   32.8102 C   0  0  0  0  0  0
   55.2958   96.9306   32.9632 C   0  0  0  0  0  0
   53.2220  102.8085   32.9547 H   0  0  0  0  0  0
   52.4427   98.8765   28.8588 H   0  0  0  0  0  0
   50.4259  101.9733   25.6228 H   0  0  0  0  0  0
   49.6675  100.3078   23.8861 H   0  0  0  0  0  0
   51.6426   97.3724   27.5299 H   0  0  0  0  0  0
   49.9944   97.5040   28.0840 H   0  0  0  0  0  0
   50.3668   96.6475   26.5833 H   0  0  0  0  0  0
   54.0192  100.9582   34.2436 H   0  0  0  0  0  0
   55.4153  100.9606   33.1949 H   0  0  0  0  0  0
   56.4764   98.7264   33.2112 H   0  0  0  0  0  0
   55.4912   98.7018   31.7510 H   0  0  0  0  0  0
   56.0695   96.3804   32.4258 H   0  0  0  0  0  0
   54.3282   96.6259   32.5641 H   0  0  0  0  0  0
   55.3405   96.6332   34.0101 H   0  0  0  0  0  0
  1  5  1  0  0  0
  1  2  2  0  0  0
  2  3  1  0  0  0
  2 17  1  0  0  0
  3  4  1  0  0  0
  3 21  1  0  0  0
  4  6  1  0  0  0
  4 15  2  0  0  0
  5  6  2  0  0  0
  5  9  1  0  0  0
  6  7  1  0  0  0
  7  8  1  0  0  0
  8  9  2  0  0  0
  8 10  1  0  0  0
  9 22  1  0  0  0
 10 11  2  0  0  0
 10 14  1  0  0  0
 11 12  1  0  0  0
 11 23  1  0  0  0
 12 13  1  0  0  0
 12 24  1  0  0  0
 13 14  2  0  0  0
 14 16  1  0  0  0
 16 25  1  0  0  0
 16 26  1  0  0  0
 16 27  1  0  0  0
 17 18  1  0  0  0
 17 28  1  0  0  0
 17 29  1  0  0  0
 18 19  1  0  0  0
 19 20  1  0  0  0
 19 30  1  0  0  0
 19 31  1  0  0  0
 20 32  1  0  0  0
 20 33  1  0  0  0
 20 34  1  0  0  0
M  END
> <s_m_entry_id>
28561

> <s_m_entry_name>
dock_pv.722

> <s_m_Source_Path>
/home/csk/Desktop/cluster/DUD-E-result/rock1

> <s_m_Source_File>
dock_pv.maegz

> <i_m_Source_File_Index>
722

> <chembl_id>
CHEMBL4099435

> <chembl_pref_name>
None

> <i_lp_mmshare_version>
53161

> <r_lp_tautomer_probability>
0.5

> <s_lp_Force_Field>
OPLS_2005

> <r_lp_Energy>
16.929684

> <b_lp_Chiralities_Consistent>
1

> <s_lp_Variant>
CHEMBL3231_lig872-1

> <s_i_glide_gridfile>
glide-grid_2etr

> <i_i_glide_lignum>
1232

> <i_i_glide_rotatable_bonds>
4

> <r_i_docking_score>
-7.03948332471258

> <r_i_glide_ligand_efficiency>
-0.351974166235629

> <r_i_glide_ligand_efficiency_sa>
-0.95540487646225

> <r_i_glide_ligand_efficiency_ln>
-1.76175049847655

> <r_i_glide_gscore>
-7.03948332471258

> <r_i_glide_lipo>
-1.87266688414698

> <r_i_glide_hbond>
-0.43083399916469

> <r_i_glide_metal>
0

> <r_i_glide_rewards>
-2.67448731818182

> <r_i_glide_evdw>
-34.1642036437988

> <r_i_glide_ecoul>
-6.41697359085083

> <r_i_glide_erotb>
0.648533713060069

> <r_i_glide_esite>
-0.0392726154615932

> <r_i_glide_emodel>
-57.9864509279062

> <r_i_glide_energy>
-40.5811772346497

> <r_i_glide_einternal>
0.265414088964462

> <i_i_glide_confnum>
18

> <i_i_glide_posenum>
188

> <r_i_glide_eff_state_penalty>
0

> <s_user_duplicate_titles>
CHEMBL3231_lig872

> <i_f3d_flags>
0

> <s_m_subgroup_title>
dock_pv

> <s_m_subgroupid>
dock_pv

> <b_m_subgroup_collapsed>
1

$$$$
CHEMBL3231_lig308
                    3D
 Schrodinger Suite 2021-1.
 42 45  0  0  1  0            999 V2000
   53.3156   98.4683   32.8328 C   0  0  0  0  0  0
   52.7987   99.3659   33.7181 N   0  0  0  0  0  0
   52.0221  100.3515   33.2230 C   0  0  0  0  0  0
   51.6485  100.4955   31.9304 N   0  0  0  0  0  0
   52.0805   99.5429   31.0568 C   0  0  0  0  0  0
   52.9137   98.4984   31.4875 C   0  0  0  0  0  0
   51.5902   99.6479   29.6473 C   0  0  0  0  0  0
   51.3065   98.4774   28.9228 C   0  0  0  0  0  0
   50.8894  101.0362   27.7498 C   0  0  0  0  0  0
   51.3840  100.9019   29.0487 C   0  0  0  0  0  0
   50.6036   99.8740   27.0193 C   0  0  0  0  0  0
   50.8358   98.6136   27.6135 C   0  0  0  0  0  0
   50.4833   97.6847   26.6534 N   0  0  0  0  0  0
   50.0433   98.2671   25.5222 N   0  0  0  0  0  0
   50.0778   99.5572   25.7270 C   0  0  0  0  0  0
   49.6439  100.4658   24.8110 N   0  0  0  0  0  0
   51.5548  101.2885   34.1303 N   0  0  0  0  0  0
   54.0298   97.3913   33.3587 N   0  0  0  0  0  0
   54.2331   97.1328   34.8004 C   0  0  0  0  0  0
   53.9723   95.6512   35.1469 C   0  0  0  0  0  0
   54.8222   94.6975   34.2944 C   0  0  0  0  0  0
   54.7223   95.0629   32.8110 C   0  0  0  0  0  0
   54.9663   96.5648   32.5709 C   0  0  0  0  0  0
   53.2325   97.7360   30.8000 H   0  0  0  0  0  0
   51.4136   97.5076   29.3764 H   0  0  0  0  0  0
   50.7270  102.0128   27.3204 H   0  0  0  0  0  0
   51.6075  101.7992   29.6072 H   0  0  0  0  0  0
   50.5358   96.6778   26.7255 H   0  0  0  0  0  0
   49.6519  101.4578   25.0010 H   0  0  0  0  0  0
   49.2819  100.1855   23.9044 H   0  0  0  0  0  0
   51.1166  102.1194   33.7686 H   0  0  0  0  0  0
   51.9473  101.2619   35.0584 H   0  0  0  0  0  0
   55.2530   97.4179   35.0664 H   0  0  0  0  0  0
   53.5679   97.7401   35.4135 H   0  0  0  0  0  0
   54.1908   95.4839   36.2005 H   0  0  0  0  0  0
   52.9097   95.4295   35.0354 H   0  0  0  0  0  0
   54.4898   93.6700   34.4335 H   0  0  0  0  0  0
   55.8632   94.7388   34.6173 H   0  0  0  0  0  0
   53.7467   94.7829   32.4125 H   0  0  0  0  0  0
   55.4502   94.4828   32.2417 H   0  0  0  0  0  0
   54.9119   96.7657   31.5022 H   0  0  0  0  0  0
   55.9849   96.8302   32.8624 H   0  0  0  0  0  0
  1  6  1  0  0  0
  1  2  2  0  0  0
  1 18  1  0  0  0
  2  3  1  0  0  0
  3  4  2  0  0  0
  3 17  1  0  0  0
  4  5  1  0  0  0
  5  6  2  0  0  0
  5  7  1  0  0  0
  6 24  1  0  0  0
  7  8  2  0  0  0
  7 10  1  0  0  0
  8 12  1  0  0  0
  8 25  1  0  0  0
  9 11  1  0  0  0
  9 10  2  0  0  0
  9 26  1  0  0  0
 10 27  1  0  0  0
 11 12  2  0  0  0
 11 15  1  0  0  0
 12 13  1  0  0  0
 13 14  1  0  0  0
 13 28  1  0  0  0
 14 15  2  0  0  0
 15 16  1  0  0  0
 16 29  1  0  0  0
 16 30  1  0  0  0
 17 31  1  0  0  0
 17 32  1  0  0  0
 18 19  1  0  0  0
 18 23  1  0  0  0
 19 20  1  0  0  0
 19 33  1  0  0  0
 19 34  1  0  0  0
 20 21  1  0  0  0
 20 35  1  0  0  0
 20 36  1  0  0  0
 21 22  1  0  0  0
 21 37  1  0  0  0
 21 38  1  0  0  0
 22 23  1  0  0  0
 22 39  1  0  0  0
 22 40  1  0  0  0
 23 41  1  0  0  0
 23 42  1  0  0  0
M  END
> <s_m_entry_id>
28562

> <s_m_entry_name>
dock_pv.723

> <s_m_Source_Path>
/home/csk/Desktop/cluster/DUD-E-result/rock1

> <s_m_Source_File>
dock_pv.maegz

> <i_m_Source_File_Index>
723

> <chembl_id>
CHEMBL1765879

> <chembl_pref_name>
None

> <i_lp_mmshare_version>
53161

> <r_lp_tautomer_probability>
0.999999648617923

> <s_lp_Force_Field>
OPLS_2005

> <r_lp_Energy>
14.982265

> <b_lp_Chiralities_Consistent>
1

> <s_lp_Variant>
CHEMBL3231_lig308-1

> <s_i_glide_gridfile>
glide-grid_2etr

> <i_i_glide_lignum>
456

> <i_i_glide_rotatable_bonds>
2

> <r_i_docking_score>
-7.03669153833349

> <r_i_glide_ligand_efficiency>
-0.305943110362326

> <r_i_glide_ligand_efficiency_sa>
-0.870061508363144

> <r_i_glide_ligand_efficiency_ln>
-1.70153581916025

> <r_i_glide_gscore>
-7.03669153833349

> <r_i_glide_lipo>
-2.05498585217825

> <r_i_glide_hbond>
-0.361357085037733

> <r_i_glide_metal>
0

> <r_i_glide_rewards>
-2.46042215697534

> <r_i_glide_evdw>
-39.700267791748

> <r_i_glide_ecoul>
-2.95577430725098

> <r_i_glide_erotb>
0.270833556667504

> <r_i_glide_esite>
-0.00238046513462168

> <r_i_glide_emodel>
-59.9326435341988

> <r_i_glide_energy>
-42.656042098999

> <r_i_glide_einternal>
2.0875358581543

> <i_i_glide_confnum>
15

> <i_i_glide_posenum>
185

> <r_i_glide_eff_state_penalty>
0

> <s_user_duplicate_titles>
CHEMBL3231_lig308

> <i_f3d_flags>
0

> <s_m_subgroup_title>
dock_pv

> <s_m_subgroupid>
dock_pv

> <b_m_subgroup_collapsed>
1

$$$$
CHEMBL3231_lig228
                    3D
 Schrodinger Suite 2021-1.
 57 60  0  0  1  0            999 V2000
   51.0958  100.4643   28.1204 C   0  0  0  0  0  0
   53.6589  101.9466   32.3565 C   0  0  0  0  0  0
   52.0413  101.5099   30.5602 C   0  0  0  0  0  0
   50.5920   99.8786   26.8286 C   0  0  0  0  0  0
   52.4652  102.1193   31.7513 N   0  0  0  0  0  0
   51.0089  101.8387   28.3981 C   0  0  0  0  0  0
   54.1442  101.7028   34.7781 N   0  0  1  0  0  0
   51.6429   99.6204   29.1004 C   0  0  0  0  0  0
   51.4937  102.3521   29.5954 C   0  0  0  0  0  0
   53.9138  102.6836   33.7067 C   0  0  2  0  0  0
   50.0432   98.3398   25.2272 N   0  0  0  0  0  0
   52.0836  100.1178   30.3407 C   0  0  0  0  0  0
   49.7356   99.5670   24.8111 N   0  0  0  0  0  0
   52.7961  103.6652   34.1699 C   0  0  0  0  0  0
   51.5504  102.9469   34.6917 C   0  0  0  0  0  0
   50.0433  100.5305   25.7289 C   0  0  0  0  0  0
   52.9797  100.8533   35.0593 C   0  0  0  0  0  0
   50.5529   98.5270   26.4233 C   0  0  0  0  0  0
   54.5451  101.2242   31.9033 O   0  0  0  0  0  0
   51.6519  101.6134   35.1438 C   0  0  0  0  0  0
   50.4430  102.7028   27.5250 F   0  0  0  0  0  0
   52.4936   99.3014   31.3824 O   0  0  0  0  0  0
   54.1940   97.9264   33.3071 N   0  0  0  0  0  0
   52.8620   97.9448   31.1354 C   0  0  0  0  0  0
   50.3096  103.5933   34.7367 C   0  0  0  0  0  0
   53.2239   97.2254   32.4560 C   0  0  0  0  0  0
   50.5028  100.9686   35.6110 C   0  0  0  0  0  0
   54.3661   97.2110   34.5683 C   0  0  0  0  0  0
   55.4977   98.0812   32.6609 C   0  0  0  0  0  0
   49.1749  102.9380   35.2104 C   0  0  0  0  0  0
   49.2736  101.6210   35.6442 C   0  0  0  0  0  0
   51.8464  102.8031   32.1545 H   0  0  0  0  0  0
   54.9414  101.1211   34.5482 H   0  0  0  0  0  0
   51.6847   98.5624   28.9032 H   0  0  0  0  0  0
   51.4410  103.4162   29.7660 H   0  0  0  0  0  0
   54.8341  103.2422   33.5259 H   0  0  0  0  0  0
   49.3155   99.7432   23.9024 H   0  0  0  0  0  0
   52.5495  104.3859   33.3889 H   0  0  0  0  0  0
   53.1917  104.2542   34.9985 H   0  0  0  0  0  0
   49.8374  101.5704   25.5205 H   0  0  0  0  0  0
   53.1725  100.3318   35.9981 H   0  0  0  0  0  0
   52.8895  100.0842   34.2916 H   0  0  0  0  0  0
   50.8957   97.6820   27.0033 H   0  0  0  0  0  0
   52.0329   97.3970   30.6866 H   0  0  0  0  0  0
   53.6965   97.9051   30.4325 H   0  0  0  0  0  0
   50.2299  104.6204   34.4122 H   0  0  0  0  0  0
   52.3031   97.1029   33.0225 H   0  0  0  0  0  0
   53.5820   96.2189   32.2327 H   0  0  0  0  0  0
   50.5657   99.9443   35.9468 H   0  0  0  0  0  0
   55.0562   97.7429   35.2244 H   0  0  0  0  0  0
   53.4158   97.1282   35.0988 H   0  0  0  0  0  0
   54.7569   96.2029   34.4123 H   0  0  0  0  0  0
   56.1957   98.6099   33.3129 H   0  0  0  0  0  0
   55.9431   97.1161   32.4087 H   0  0  0  0  0  0
   55.4208   98.6706   31.7461 H   0  0  0  0  0  0
   48.2227  103.4480   35.2452 H   0  0  0  0  0  0
   48.4046  101.1029   36.0165 H   0  0  0  0  0  0
  1  4  1  0  0  0
  1  6  1  0  0  0
  1  8  2  0  0  0
  2  5  1  0  0  0
  2 10  1  0  0  0
  2 19  2  0  0  0
  3 12  2  0  0  0
  3  5  1  0  0  0
  3  9  1  0  0  0
  4 16  2  0  0  0
  4 18  1  0  0  0
  5 32  1  0  0  0
  6  9  2  0  0  0
  6 21  1  0  0  0
  7 10  1  0  0  0
  7 17  1  0  0  0
  7 33  1  0  0  0
  8 12  1  0  0  0
  8 34  1  0  0  0
  9 35  1  0  0  0
 10 14  1  0  0  0
 10 36  1  0  0  0
 11 18  2  0  0  0
 11 13  1  0  0  0
 12 22  1  0  0  0
 13 16  1  0  0  0
 13 37  1  0  0  0
 14 15  1  0  0  0
 14 38  1  0  0  0
 14 39  1  0  0  0
 15 25  1  0  0  0
 15 20  2  0  0  0
 16 40  1  0  0  0
 17 20  1  0  0  0
 17 41  1  0  0  0
 17 42  1  0  0  0
 18 43  1  0  0  0
 20 27  1  0  0  0
 22 24  1  0  0  0
 23 26  1  0  0  0
 23 28  1  0  0  0
 23 29  1  0  0  0
 24 26  1  0  0  0
 24 44  1  0  0  0
 24 45  1  0  0  0
 25 30  2  0  0  0
 25 46  1  0  0  0
 26 47  1  0  0  0
 26 48  1  0  0  0
 27 31  2  0  0  0
 27 49  1  0  0  0
 28 50  1  0  0  0
 28 51  1  0  0  0
 28 52  1  0  0  0
 29 53  1  0  0  0
 29 54  1  0  0  0
 29 55  1  0  0  0
 30 31  1  0  0  0
 30 56  1  0  0  0
 31 57  1  0  0  0
M  END
> <s_m_entry_id>
28563

> <s_m_entry_name>
dock_pv.724

> <s_m_Source_Path>
/home/csk/Desktop/cluster/DUD-E-result/rock1

> <s_m_Source_File>
dock_pv.maegz

> <i_m_Source_File_Index>
724

> <chembl_id>
CHEMBL1215524

> <chembl_pref_name>
None

> <i_lp_mmshare_version>
53161

> <r_lp_tautomer_probability>
0.5

> <s_lp_Force_Field>
OPLS_2005

> <r_lp_Energy>
35.484818

> <b_lp_Chiralities_Consistent>
1

> <s_lp_Variant>
CHEMBL3231_lig228-1

> <s_i_glide_gridfile>
glide-grid_2etr

> <i_i_glide_lignum>
372

> <i_i_glide_rotatable_bonds>
8

> <r_i_docking_score>
-7.03358905254929

> <r_i_glide_ligand_efficiency>
-0.226889969437074

> <r_i_glide_ligand_efficiency_sa>
-0.712747759395443

> <r_i_glide_ligand_efficiency_ln>
-1.58628988496732

> <r_i_glide_gscore>
-7.03358905254929

> <r_i_glide_lipo>
-2.75994302907223

> <r_i_glide_hbond>
-0.511778231121071

> <r_i_glide_metal>
0

> <r_i_glide_rewards>
-1.62928844809735

> <r_i_glide_evdw>
-46.0710372924805

> <r_i_glide_ecoul>
-2.18288159370422

> <r_i_glide_erotb>
0.541530784348969

> <r_i_glide_esite>
-0.0431260249279529

> <r_i_glide_emodel>
-68.2383685780508

> <r_i_glide_energy>
-48.2539188861847

> <r_i_glide_einternal>
5.69605016708374

> <i_i_glide_confnum>
100

> <i_i_glide_posenum>
380

> <r_i_glide_eff_state_penalty>
0

> <s_user_duplicate_titles>
CHEMBL3231_lig228,687389

> <i_f3d_flags>
0

> <s_m_subgroup_title>
dock_pv

> <s_m_subgroupid>
dock_pv

> <b_m_subgroup_collapsed>
1

$$$$
CHEMBL3231_lig2089
                    3D
 Schrodinger Suite 2021-1.
 35 37  0  0  1  0            999 V2000
   51.5888  100.8883   28.3502 C   0  0  0  0  0  0
   52.4035  100.2877   29.2015 N   0  0  0  0  0  0
   52.8402  101.0862   30.1488 C   0  0  0  0  0  0
   52.2562  102.7111   30.0591 S   0  0  0  0  0  0
   51.3446  102.2318   28.6586 C   0  0  0  0  0  0
   53.7106  100.7653   31.1812 N   0  0  0  0  0  0
   54.1517   99.5302   31.5001 C   0  0  0  0  0  0
   55.0840   99.4504   32.7168 C   0  0  0  0  0  0
   53.8394   98.4960   30.9034 O   0  0  0  0  0  0
   54.3900   98.8266   33.9283 C   0  0  0  0  0  0
   53.7427   99.6383   34.8684 C   0  0  0  0  0  0
   53.1132   99.0657   35.9733 C   0  0  0  0  0  0
   53.1232   97.6800   36.1350 C   0  0  0  0  0  0
   53.7519   96.8662   35.1931 C   0  0  0  0  0  0
   54.3842   97.4370   34.0908 C   0  0  0  0  0  0
   51.0342  100.1261   27.1863 C   0  0  0  0  0  0
   50.5346  100.8054   26.0669 C   0  0  0  0  0  0
   50.0536  100.0689   24.9830 C   0  0  0  0  0  0
   50.0420   98.7126   24.9619 N   0  0  0  0  0  0
   50.5199   98.0586   26.0489 C   0  0  0  0  0  0
   51.0218   98.7215   27.1689 C   0  0  0  0  0  0
   52.4924   97.1053   37.2106 O   0  0  0  0  0  0
   50.7196  102.9392   28.1365 H   0  0  0  0  0  0
   54.0302  101.5337   31.7509 H   0  0  0  0  0  0
   55.4731  100.4373   32.9791 H   0  0  0  0  0  0
   55.9589   98.8589   32.4415 H   0  0  0  0  0  0
   53.7338  100.7109   34.7458 H   0  0  0  0  0  0
   52.6213   99.6971   36.6980 H   0  0  0  0  0  0
   53.7523   95.7931   35.3184 H   0  0  0  0  0  0
   54.8722   96.8021   33.3637 H   0  0  0  0  0  0
   50.5346  101.8846   26.0260 H   0  0  0  0  0  0
   49.6743  100.5677   24.1020 H   0  0  0  0  0  0
   50.4996   96.9796   26.0113 H   0  0  0  0  0  0
   51.3972   98.1480   28.0043 H   0  0  0  0  0  0
   52.1851   97.7382   37.8751 H   0  0  0  0  0  0
  1  2  1  0  0  0
  1  5  2  0  0  0
  1 16  1  0  0  0
  2  3  2  0  0  0
  3  4  1  0  0  0
  3  6  1  0  0  0
  4  5  1  0  0  0
  5 23  1  0  0  0
  6  7  1  0  0  0
  6 24  1  0  0  0
  7  8  1  0  0  0
  7  9  2  0  0  0
  8 10  1  0  0  0
  8 25  1  0  0  0
  8 26  1  0  0  0
 10 11  2  0  0  0
 10 15  1  0  0  0
 11 12  1  0  0  0
 11 27  1  0  0  0
 12 13  2  0  0  0
 12 28  1  0  0  0
 13 14  1  0  0  0
 13 22  1  0  0  0
 14 15  2  0  0  0
 14 29  1  0  0  0
 15 30  1  0  0  0
 16 17  2  0  0  0
 16 21  1  0  0  0
 17 18  1  0  0  0
 17 31  1  0  0  0
 18 19  2  0  0  0
 18 32  1  0  0  0
 19 20  1  0  0  0
 20 21  2  0  0  0
 20 33  1  0  0  0
 21 34  1  0  0  0
 22 35  1  0  0  0
M  END
> <s_m_entry_id>
28564

> <s_m_entry_name>
dock_pv.725

> <s_m_Source_Path>
/home/csk/Desktop/cluster/DUD-E-result/rock1

> <s_m_Source_File>
dock_pv.maegz

> <i_m_Source_File_Index>
725

> <chembl_id>
CHEMBL3581124

> <chembl_pref_name>
None

> <i_lp_mmshare_version>
53161

> <r_lp_tautomer_probability>
0.999000488396533

> <s_lp_Force_Field>
OPLS_2005

> <r_lp_Energy>
9.127963

> <b_lp_Chiralities_Consistent>
1

> <s_lp_Variant>
CHEMBL3231_lig2089-1

> <s_i_glide_gridfile>
glide-grid_2etr

> <i_i_glide_lignum>
3017

> <i_i_glide_rotatable_bonds>
6

> <r_i_docking_score>
-7.03231881426165

> <r_i_glide_ligand_efficiency>
-0.319650855193711

> <r_i_glide_ligand_efficiency_sa>
-0.895674267407553

> <r_i_glide_ligand_efficiency_ln>
-1.71895522826678

> <r_i_glide_gscore>
-7.03231881426165

> <r_i_glide_lipo>
-2.00603206373241

> <r_i_glide_hbond>
-0.725920115999261

> <r_i_glide_metal>
0

> <r_i_glide_rewards>
-2.2324903456184

> <r_i_glide_evdw>
-37.895191192627

> <r_i_glide_ecoul>
-7.05881547927856

> <r_i_glide_erotb>
0.956429311119262

> <r_i_glide_esite>
-0.0707237185077094

> <r_i_glide_emodel>
-63.7289987210246

> <r_i_glide_energy>
-44.9540066719055

> <r_i_glide_einternal>
2.22180271148682

> <i_i_glide_confnum>
26

> <i_i_glide_posenum>
337

> <r_i_glide_eff_state_penalty>
0

> <s_user_duplicate_titles>
CHEMBL3231_lig2089

> <i_f3d_flags>
0

> <s_m_subgroup_title>
dock_pv

> <s_m_subgroupid>
dock_pv

> <b_m_subgroup_collapsed>
1

$$$$
CHEMBL3231_lig981 
                    3D
 Schrodinger Suite 2021-1.
 64 67  0  0  1  0            999 V2000
   50.4421   97.6850   26.3468 C   0  0  0  0  0  0
   50.0430   98.3039   25.2095 N   0  0  0  0  0  0
   50.1444   99.6565   25.1957 C   0  0  0  0  0  0
   50.6045  100.4292   26.2092 N   0  0  0  0  0  0
   50.9949   99.7863   27.3513 C   0  0  0  0  0  0
   50.9168   98.3868   27.4535 C   0  0  0  0  0  0
   51.4547  100.6480   28.4840 C   0  0  0  0  0  0
   52.2579  100.1306   29.5081 C   0  0  0  0  0  0
   52.6433  100.8743   30.6336 C   0  0  0  0  0  0
   52.2356  102.2379   30.7049 C   0  0  0  0  0  0
   51.4671  102.7686   29.6593 C   0  0  0  0  0  0
   51.0779  101.9912   28.5769 C   0  0  0  0  0  0
   52.5388  103.1790   31.8460 C   0  0  0  0  0  0
   53.8006  103.2258   32.3044 N   0  0  0  0  0  0
   51.6430  103.9005   32.2830 O   0  0  0  0  0  0
   54.3001  104.1505   33.3339 C   0  0  1  0  0  0
   53.4654  104.2129   34.6280 C   0  0  0  0  0  0
   53.2886  103.0810   35.4324 C   0  0  0  0  0  0
   52.5093  103.1451   36.5865 C   0  0  0  0  0  0
   51.9010  104.3450   36.9518 C   0  0  0  0  0  0
   52.0702  105.4943   36.1764 C   0  0  0  0  0  0
   52.8675  105.4166   35.0217 C   0  0  0  0  0  0
   51.4288  106.6375   36.6129 O   0  0  0  0  0  0
   51.5599  107.8368   35.8563 C   0  0  0  0  0  0
   55.7656  103.8298   33.6453 C   0  0  0  0  0  0
   53.3744  100.1645   31.5914 N   0  0  0  0  0  0
   53.2916  100.3198   33.0507 C   0  0  0  0  0  0
   53.2612   98.9627   33.7952 C   0  0  1  0  0  0
   54.5354   98.1669   33.4422 C   0  0  0  0  0  0
   54.6885   98.0648   31.9148 C   0  0  0  0  0  0
   54.6189   99.4520   31.2390 C   0  0  0  0  0  0
   53.0136   99.1651   35.3081 C   0  0  0  0  0  0
   52.8440   97.9038   36.0107 N   0  0  0  0  0  0
   50.3678   96.6080   26.3682 H   0  0  0  0  0  0
   49.8259  100.1634   24.2965 H   0  0  0  0  0  0
   51.1935   97.8544   28.3497 H   0  0  0  0  0  0
   52.5681   99.0978   29.4521 H   0  0  0  0  0  0
   51.1553  103.8038   29.6743 H   0  0  0  0  0  0
   50.4657  102.4459   27.8118 H   0  0  0  0  0  0
   54.5061  102.7453   31.7647 H   0  0  0  0  0  0
   54.2847  105.1451   32.8758 H   0  0  0  0  0  0
   53.7579  102.1467   35.1696 H   0  0  0  0  0  0
   52.3755  102.2629   37.1931 H   0  0  0  0  0  0
   51.2945  104.3887   37.8428 H   0  0  0  0  0  0
   53.0155  106.2922   34.4115 H   0  0  0  0  0  0
   50.9957  108.6365   36.3416 H   0  0  0  0  0  0
   52.6004  108.1607   35.7944 H   0  0  0  0  0  0
   51.1636  107.7185   34.8443 H   0  0  0  0  0  0
   56.1622  104.5253   34.3840 H   0  0  0  0  0  0
   55.8807  102.8214   34.0445 H   0  0  0  0  0  0
   56.3826  103.9029   32.7489 H   0  0  0  0  0  0
   54.1119  100.9350   33.4222 H   0  0  0  0  0  0
   52.3674  100.8458   33.2968 H   0  0  0  0  0  0
   52.4387   98.3892   33.3648 H   0  0  0  0  0  0
   54.5194   97.1777   33.8999 H   0  0  0  0  0  0
   55.4082   98.6633   33.8696 H   0  0  0  0  0  0
   53.9298   97.4053   31.4875 H   0  0  0  0  0  0
   55.6427   97.5925   31.6773 H   0  0  0  0  0  0
   54.7057   99.3222   30.1596 H   0  0  0  0  0  0
   55.4719  100.0641   31.5407 H   0  0  0  0  0  0
   53.8488   99.7076   35.7543 H   0  0  0  0  0  0
   52.1186   99.7704   35.4700 H   0  0  0  0  0  0
   53.6519   97.3195   35.8337 H   0  0  0  0  0  0
   52.8434   98.0741   37.0082 H   0  0  0  0  0  0
  1  2  2  0  0  0
  1  6  1  0  0  0
  1 34  1  0  0  0
  2  3  1  0  0  0
  3  4  2  0  0  0
  3 35  1  0  0  0
  4  5  1  0  0  0
  5  6  2  0  0  0
  5  7  1  0  0  0
  6 36  1  0  0  0
  7  8  2  0  0  0
  7 12  1  0  0  0
  8  9  1  0  0  0
  8 37  1  0  0  0
  9 10  2  0  0  0
  9 26  1  0  0  0
 10 11  1  0  0  0
 10 13  1  0  0  0
 11 12  2  0  0  0
 11 38  1  0  0  0
 12 39  1  0  0  0
 13 14  1  0  0  0
 13 15  2  0  0  0
 14 16  1  0  0  0
 14 40  1  0  0  0
 16 17  1  0  0  0
 16 25  1  0  0  0
 16 41  1  0  0  0
 17 18  2  0  0  0
 17 22  1  0  0  0
 18 19  1  0  0  0
 18 42  1  0  0  0
 19 20  2  0  0  0
 19 43  1  0  0  0
 20 21  1  0  0  0
 20 44  1  0  0  0
 21 22  2  0  0  0
 21 23  1  0  0  0
 22 45  1  0  0  0
 23 24  1  0  0  0
 24 46  1  0  0  0
 24 47  1  0  0  0
 24 48  1  0  0  0
 25 49  1  0  0  0
 25 50  1  0  0  0
 25 51  1  0  0  0
 26 27  1  0  0  0
 26 31  1  0  0  0
 27 28  1  0  0  0
 27 52  1  0  0  0
 27 53  1  0  0  0
 28 29  1  0  0  0
 28 32  1  0  0  0
 28 54  1  0  0  0
 29 30  1  0  0  0
 29 55  1  0  0  0
 29 56  1  0  0  0
 30 31  1  0  0  0
 30 57  1  0  0  0
 30 58  1  0  0  0
 31 59  1  0  0  0
 31 60  1  0  0  0
 32 33  1  0  0  0
 32 61  1  0  0  0
 32 62  1  0  0  0
 33 63  1  0  0  0
 33 64  1  0  0  0
M  END
> <s_m_entry_id>
28565

> <s_m_entry_name>
dock_pv.726

> <s_m_Source_Path>
/home/csk/Desktop/cluster/DUD-E-result/rock1

> <s_m_Source_File>
dock_pv.maegz

> <i_m_Source_File_Index>
726

> <chembl_id>
CHEMBL4465725

> <chembl_pref_name>
None

> <i_lp_mmshare_version>
53161

> <r_lp_tautomer_probability>
1

> <s_lp_Force_Field>
OPLS_2005

> <r_lp_Energy>
33.668526

> <b_lp_Chiralities_Consistent>
1

> <s_lp_Variant>
CHEMBL3231_lig981 -1

> <s_i_glide_gridfile>
glide-grid_2etr

> <i_i_glide_lignum>
1395

> <i_i_glide_rotatable_bonds>
8

> <r_i_docking_score>
-7.03057314478044

> <r_i_glide_ligand_efficiency>
-0.213047671053953

> <r_i_glide_ligand_efficiency_sa>
-0.683357718034756

> <r_i_glide_ligand_efficiency_ln>
-1.56356306503964

> <r_i_glide_gscore>
-7.03057314478044

> <r_i_glide_lipo>
-1.47607576717457

> <r_i_glide_hbond>
-0.414742860146475

> <r_i_glide_metal>
0

> <r_i_glide_rewards>
-2.01286035860218

> <r_i_glide_evdw>
-46.2623596191406

> <r_i_glide_ecoul>
-8.8236722946167

> <r_i_glide_erotb>
0.604748177979177

> <r_i_glide_esite>
-0.0949735116868588

> <r_i_glide_emodel>
-76.2035522948161

> <r_i_glide_energy>
-55.0860319137573

> <r_i_glide_einternal>
6.07634592056274

> <i_i_glide_confnum>
69

> <i_i_glide_posenum>
65

> <r_i_glide_eff_state_penalty>
0

> <s_user_duplicate_titles>
CHEMBL3231_lig981 

> <i_f3d_flags>
0

> <s_m_subgroup_title>
dock_pv

> <s_m_subgroupid>
dock_pv

> <b_m_subgroup_collapsed>
1

$$$$
CHEMBL3231_lig1637
                    3D
 Schrodinger Suite 2021-1.
 52 55  0  0  1  0            999 V2000
   52.0434   99.6691   31.3060 S   0  0  0  0  0  0
   52.7419   98.9111   34.2193 O   0  0  0  0  0  0
   55.4292   93.9663   32.0197 O   0  0  0  0  0  0
   49.6670  101.0551   25.2587 N   0  0  0  0  0  0
   49.8276   99.7645   24.9445 N   0  0  0  0  0  0
   54.9595   99.0945   33.6954 N   0  0  0  0  0  0
   52.4585  100.9227   30.1683 C   0  0  0  0  0  0
   51.6763  100.9950   28.9016 C   0  0  0  0  0  0
   50.8437   99.9189   26.9037 C   0  0  0  0  0  0
   53.5309  101.7127   30.6153 C   0  0  0  0  0  0
   53.3815  100.1002   32.3169 C   0  0  0  0  0  0
   50.2985  101.1587   26.4685 C   0  0  0  0  0  0
   51.5430   99.8441   28.1164 C   0  0  0  0  0  0
   50.5087   99.0110   25.8703 C   0  0  0  0  0  0
   54.0317  101.2324   31.8359 C   0  0  0  0  0  0
   51.1131  102.1993   28.4802 C   0  0  0  0  0  0
   53.6489   99.3471   33.5062 C   0  0  0  0  0  0
   50.4430  102.3027   27.2639 C   0  0  0  0  0  0
   55.5193   98.1821   34.7014 C   0  0  2  0  0  0
   54.0715  102.9542   29.9349 C   0  0  0  0  0  0
   55.0294   96.7392   34.4875 C   0  0  0  0  0  0
   50.8431   97.5606   25.6983 C   0  0  0  0  0  0
   55.4871   96.0287   33.3703 C   0  0  0  0  0  0
   54.1177   96.1223   35.3554 C   0  0  0  0  0  0
   55.0210   94.7320   33.0929 C   0  0  0  0  0  0
   55.3620   98.7298   36.1386 C   0  0  0  0  0  0
   54.0761   94.1630   33.9478 C   0  0  0  0  0  0
   53.6432   94.8409   35.0833 C   0  0  0  0  0  0
   56.4431   94.4715   31.1580 C   0  0  0  0  0  0
   49.4626   99.4044   24.0733 H   0  0  0  0  0  0
   55.5920   99.3654   32.9576 H   0  0  0  0  0  0
   51.9803   98.9084   28.4334 H   0  0  0  0  0  0
   54.8660  101.6959   32.3425 H   0  0  0  0  0  0
   51.2064  103.0811   29.0961 H   0  0  0  0  0  0
   50.0430  103.2512   26.9424 H   0  0  0  0  0  0
   56.5968   98.1585   34.5161 H   0  0  0  0  0  0
   53.3151  103.5346   29.4106 H   0  0  0  0  0  0
   54.5109  103.6454   30.6538 H   0  0  0  0  0  0
   54.8430  102.7031   29.2109 H   0  0  0  0  0  0
   50.5417   96.9637   26.5606 H   0  0  0  0  0  0
   50.4172   97.1043   24.8110 H   0  0  0  0  0  0
   51.9239   97.5007   25.6124 H   0  0  0  0  0  0
   56.1992   96.5066   32.7116 H   0  0  0  0  0  0
   53.7418   96.6372   36.2265 H   0  0  0  0  0  0
   55.8447   98.0737   36.8639 H   0  0  0  0  0  0
   55.8283   99.7116   36.2307 H   0  0  0  0  0  0
   54.3160   98.8408   36.4274 H   0  0  0  0  0  0
   53.6905   93.1747   33.7428 H   0  0  0  0  0  0
   52.9280   94.3748   35.7430 H   0  0  0  0  0  0
   56.6995   93.7202   30.4116 H   0  0  0  0  0  0
   56.1079   95.3642   30.6284 H   0  0  0  0  0  0
   57.3562   94.7033   31.7080 H   0  0  0  0  0  0
  1  7  1  0  0  0
  1 11  1  0  0  0
  2 17  2  0  0  0
  3 25  1  0  0  0
  3 29  1  0  0  0
  4  5  1  0  0  0
  4 12  2  0  0  0
  5 30  1  0  0  0
  5 14  1  0  0  0
  6 17  1  0  0  0
  6 19  1  0  0  0
  6 31  1  0  0  0
  7 10  2  0  0  0
  7  8  1  0  0  0
  8 16  1  0  0  0
  8 13  2  0  0  0
  9 13  1  0  0  0
  9 12  1  0  0  0
  9 14  2  0  0  0
 10 15  1  0  0  0
 10 20  1  0  0  0
 11 15  2  0  0  0
 11 17  1  0  0  0
 12 18  1  0  0  0
 13 32  1  0  0  0
 14 22  1  0  0  0
 15 33  1  0  0  0
 16 18  2  0  0  0
 16 34  1  0  0  0
 18 35  1  0  0  0
 19 21  1  0  0  0
 19 26  1  0  0  0
 19 36  1  0  0  0
 20 37  1  0  0  0
 20 38  1  0  0  0
 20 39  1  0  0  0
 21 23  2  0  0  0
 21 24  1  0  0  0
 22 40  1  0  0  0
 22 41  1  0  0  0
 22 42  1  0  0  0
 23 25  1  0  0  0
 23 43  1  0  0  0
 24 28  2  0  0  0
 24 44  1  0  0  0
 25 27  2  0  0  0
 26 45  1  0  0  0
 26 46  1  0  0  0
 26 47  1  0  0  0
 27 28  1  0  0  0
 27 48  1  0  0  0
 28 49  1  0  0  0
 29 50  1  0  0  0
 29 51  1  0  0  0
 29 52  1  0  0  0
M  END
> <s_m_entry_id>
28566

> <s_m_entry_name>
dock_pv.727

> <s_m_Source_Path>
/home/csk/Desktop/cluster/DUD-E-result/rock1

> <s_m_Source_File>
dock_pv.maegz

> <i_m_Source_File_Index>
727

> <chembl_id>
CHEMBL1997534

> <chembl_pref_name>
None

> <i_lp_mmshare_version>
53161

> <r_lp_tautomer_probability>
0.0196078431372549

> <s_lp_Force_Field>
OPLS_2005

> <r_lp_Energy>
33.246257

> <b_lp_Chiralities_Consistent>
1

> <s_lp_Variant>
CHEMBL3231_lig1637-3

> <s_i_glide_gridfile>
glide-grid_2etr

> <i_i_glide_lignum>
2337

> <i_i_glide_rotatable_bonds>
6

> <r_i_docking_score>
-7.03044491584452

> <r_i_glide_ligand_efficiency>
-0.242429135029122

> <r_i_glide_ligand_efficiency_sa>
-0.744819109750427

> <r_i_glide_ligand_efficiency_ln>
-1.60979360902746

> <r_i_glide_gscore>
-7.03044491584452

> <r_i_glide_lipo>
-2.55764175601304

> <r_i_glide_hbond>
-0.339168349043141

> <r_i_glide_metal>
0

> <r_i_glide_rewards>
-1.77719007210726

> <r_i_glide_evdw>
-45.4280548095703

> <r_i_glide_ecoul>
-4.2589545249939

> <r_i_glide_erotb>
0.597582377787943

> <r_i_glide_esite>
-0.0437811972414178

> <r_i_glide_emodel>
-66.6212460358602

> <r_i_glide_energy>
-49.6870093345642

> <r_i_glide_einternal>
11.4007816314697

> <i_i_glide_confnum>
15

> <i_i_glide_posenum>
351

> <r_i_glide_eff_state_penalty>
0

> <s_user_duplicate_titles>
CHEMBL3231_lig1637

> <i_f3d_flags>
0

> <s_m_subgroup_title>
dock_pv

> <s_m_subgroupid>
dock_pv

> <b_m_subgroup_collapsed>
1

$$$$
CHEMBL3231_lig124
                    3D
 Schrodinger Suite 2021-1.
 53 57  0  0  1  0            999 V2000
   54.0625   97.1696   33.9169 C   0  0  0  0  0  0
   53.4468   98.0852   34.9852 C   0  0  0  0  0  0
   54.3060   95.8137   34.5897 C   0  0  0  0  0  0
   54.3247   96.1354   36.0636 C   0  0  0  0  0  0
   53.8224   97.4184   36.2914 C   0  0  0  0  0  0
   53.6427   97.8754   37.5990 C   0  0  0  0  0  0
   53.9876   97.0553   38.6751 C   0  0  0  0  0  0
   54.4906   95.7741   38.4449 C   0  0  0  0  0  0
   54.6501   95.3075   37.1394 C   0  0  0  0  0  0
   53.2394   97.0130   32.7274 N   0  0  0  0  0  0
   52.1160   97.6556   30.8109 N   0  0  0  0  0  0
   51.9309   98.5888   29.8507 C   0  0  0  0  0  0
   52.4325   99.8397   29.8890 N   0  0  0  0  0  0
   53.1740  100.1334   30.9885 C   0  0  0  0  0  0
   53.4456   99.2636   31.9934 N   0  0  0  0  0  0
   52.9211   98.0297   31.8307 C   0  0  0  0  0  0
   53.6696  101.4259   31.0972 N   0  0  0  0  0  0
   54.3575  101.9841   32.2751 C   0  0  0  0  0  0
   53.7046  103.2993   32.7543 C   0  0  0  0  0  0
   53.6431  104.2923   31.6862 N   0  0  0  0  0  0
   53.0545  103.7700   30.4592 C   0  0  0  0  0  0
   53.6436  102.4270   30.0200 C   0  0  0  0  0  0
   51.2429   98.1467   28.7145 N   0  0  0  0  0  0
   50.8570   98.7513   27.5023 C   0  0  0  0  0  0
   50.8451  100.1377   27.2797 C   0  0  0  0  0  0
   50.4373  100.6446   26.0436 C   0  0  0  0  0  0
   50.0438   99.7460   25.0527 C   0  0  0  0  0  0
   50.0444   98.4007   25.2363 N   0  0  0  0  0  0
   50.4435   97.9286   26.4470 C   0  0  0  0  0  0
   55.0309   97.5835   33.6226 H   0  0  0  0  0  0
   52.3688   98.1701   34.8727 H   0  0  0  0  0  0
   53.8693   99.0867   34.9091 H   0  0  0  0  0  0
   55.2534   95.3876   34.2554 H   0  0  0  0  0  0
   53.5175   95.0959   34.3602 H   0  0  0  0  0  0
   53.2302   98.8546   37.7932 H   0  0  0  0  0  0
   53.8469   97.4087   39.6860 H   0  0  0  0  0  0
   54.7451   95.1367   39.2791 H   0  0  0  0  0  0
   55.0178   94.3072   36.9692 H   0  0  0  0  0  0
   52.7744   96.1267   32.5696 H   0  0  0  0  0  0
   54.3482  101.2783   33.1050 H   0  0  0  0  0  0
   55.4133  102.1278   32.0374 H   0  0  0  0  0  0
   54.2807  103.7112   33.5835 H   0  0  0  0  0  0
   52.6960  103.0958   33.1163 H   0  0  0  0  0  0
   54.5390  104.7555   31.5228 H   0  0  0  0  0  0
   53.2439  104.4785   29.6552 H   0  0  0  0  0  0
   51.9766  103.6701   30.5872 H   0  0  0  0  0  0
   54.6623  102.5659   29.6544 H   0  0  0  0  0  0
   53.0898  102.0762   29.1481 H   0  0  0  0  0  0
   51.0265   97.1652   28.7880 H   0  0  0  0  0  0
   51.1287  100.8343   28.0507 H   0  0  0  0  0  0
   50.4186  101.7107   25.8637 H   0  0  0  0  0  0
   49.7144  100.1008   24.0852 H   0  0  0  0  0  0
   50.4370   96.8537   26.5527 H   0  0  0  0  0  0
  1  3  1  0  0  0
  1  2  1  0  0  0
  1 10  1  0  0  0
  1 30  1  0  0  0
  2  5  1  0  0  0
  2 31  1  0  0  0
  2 32  1  0  0  0
  3  4  1  0  0  0
  3 33  1  0  0  0
  3 34  1  0  0  0
  4  9  1  0  0  0
  4  5  2  0  0  0
  5  6  1  0  0  0
  6  7  2  0  0  0
  6 35  1  0  0  0
  7  8  1  0  0  0
  7 36  1  0  0  0
  8  9  2  0  0  0
  8 37  1  0  0  0
  9 38  1  0  0  0
 10 16  1  0  0  0
 10 39  1  0  0  0
 11 16  1  0  0  0
 11 12  2  0  0  0
 12 23  1  0  0  0
 12 13  1  0  0  0
 13 14  2  0  0  0
 14 15  1  0  0  0
 14 17  1  0  0  0
 15 16  2  0  0  0
 17 18  1  0  0  0
 17 22  1  0  0  0
 18 19  1  0  0  0
 18 40  1  0  0  0
 18 41  1  0  0  0
 19 20  1  0  0  0
 19 42  1  0  0  0
 19 43  1  0  0  0
 20 21  1  0  0  0
 20 44  1  0  0  0
 21 22  1  0  0  0
 21 45  1  0  0  0
 21 46  1  0  0  0
 22 47  1  0  0  0
 22 48  1  0  0  0
 23 24  1  0  0  0
 23 49  1  0  0  0
 24 25  2  0  0  0
 24 29  1  0  0  0
 25 26  1  0  0  0
 25 50  1  0  0  0
 26 27  2  0  0  0
 26 51  1  0  0  0
 27 28  1  0  0  0
 27 52  1  0  0  0
 28 29  2  0  0  0
 29 53  1  0  0  0
M  END
> <s_m_entry_id>
28567

> <s_m_entry_name>
dock_pv.728

> <s_m_Source_Path>
/home/csk/Desktop/cluster/DUD-E-result/rock1

> <s_m_Source_File>
dock_pv.maegz

> <i_m_Source_File_Index>
728

> <chembl_id>
CHEMBL575761

> <chembl_pref_name>
None

> <i_lp_mmshare_version>
53161

> <r_lp_tautomer_probability>
0.999999982592

> <s_lp_Force_Field>
OPLS_2005

> <r_lp_Energy>
29.530365

> <b_lp_Chiralities_Consistent>
1

> <s_lp_Variant>
CHEMBL3231_lig124-1

> <s_i_glide_gridfile>
glide-grid_2etr

> <i_i_glide_lignum>
229

> <i_i_glide_rotatable_bonds>
5

> <r_i_docking_score>
-7.02647702592797

> <r_i_glide_ligand_efficiency>
-0.242292311238896

> <r_i_glide_ligand_efficiency_sa>
-0.744398743718034

> <r_i_glide_ligand_efficiency_ln>
-1.60888506285358

> <r_i_glide_gscore>
-7.02647702592797

> <r_i_glide_lipo>
-1.64798908348624

> <r_i_glide_hbond>
-0.752269938578935

> <r_i_glide_metal>
0

> <r_i_glide_rewards>
-2.07805762025803

> <r_i_glide_evdw>
-43.2253189086914

> <r_i_glide_ecoul>
-6.48405933380127

> <r_i_glide_erotb>
0.645569486791575

> <r_i_glide_esite>
-0.059855024891584

> <r_i_glide_emodel>
-67.4557419057591

> <r_i_glide_energy>
-49.7093782424927

> <r_i_glide_einternal>
3.42146015167236

> <i_i_glide_confnum>
156

> <i_i_glide_posenum>
278

> <r_i_glide_eff_state_penalty>
0

> <s_user_duplicate_titles>
CHEMBL3231_lig124

> <i_f3d_flags>
0

> <s_m_subgroup_title>
dock_pv

> <s_m_subgroupid>
dock_pv

> <b_m_subgroup_collapsed>
1

$$$$
CHEMBL3231_lig807
                    3D
 Schrodinger Suite 2021-1.
 49 51  0  0  1  0            999 V2000
   49.1651  101.6729   35.9562 C   0  0  0  0  0  0
   50.5087  101.1122   36.0109 N   0  0  0  0  0  0
   51.2504  100.8070   34.9397 C   0  0  0  0  0  0
   50.8431  100.9717   33.7913 O   0  0  0  0  0  0
   52.6489  100.2232   35.2367 C   0  0  0  0  0  0
   53.7864  100.5041   34.2052 C   0  0  1  0  0  0
   53.4623  100.2111   32.8102 N   0  0  0  0  0  0
   52.9377   99.0852   32.3019 C   0  0  0  0  0  0
   52.8435   98.0399   32.9459 O   0  0  0  0  0  0
   52.3817   99.2114   30.8991 C   0  0  0  0  0  0
   51.7643   98.1176   30.2877 C   0  0  0  0  0  0
   51.2429   98.2278   29.0010 C   0  0  0  0  0  0
   51.2802   99.4379   28.2970 C   0  0  0  0  0  0
   51.8802  100.5507   28.9158 C   0  0  0  0  0  0
   51.9988  101.9027   28.2355 C   0  0  0  0  0  0
   52.4275  100.4247   30.1926 C   0  0  0  0  0  0
   50.6770   99.4573   26.9228 C   0  0  0  0  0  0
   50.0482  100.4890   26.2323 C   0  0  0  0  0  0
   49.7037   99.9810   25.0098 N   0  0  0  0  0  0
   50.0429   98.7030   24.8692 N   0  0  0  0  0  0
   50.6117   98.3910   26.0103 C   0  0  0  0  0  0
   54.2985  101.9400   34.3492 C   0  0  0  0  0  0
   53.6688  102.9919   33.6654 C   0  0  0  0  0  0
   54.1431  104.2933   33.7870 C   0  0  0  0  0  0
   55.2458  104.5453   34.5958 C   0  0  0  0  0  0
   55.8846  103.5071   35.2752 C   0  0  0  0  0  0
   55.4122  102.2046   35.1522 C   0  0  0  0  0  0
   48.9513  102.2329   36.8675 H   0  0  0  0  0  0
   49.0341  102.3467   35.1067 H   0  0  0  0  0  0
   48.4430  100.8637   35.8717 H   0  0  0  0  0  0
   50.8889  100.9284   36.9278 H   0  0  0  0  0  0
   52.5515   99.1470   35.3790 H   0  0  0  0  0  0
   52.9738  100.5916   36.2112 H   0  0  0  0  0  0
   54.6205   99.8375   34.4444 H   0  0  0  0  0  0
   53.7658  100.9096   32.1506 H   0  0  0  0  0  0
   51.6972   97.1650   30.7978 H   0  0  0  0  0  0
   50.7858   97.3536   28.5634 H   0  0  0  0  0  0
   51.0464  102.4309   28.2566 H   0  0  0  0  0  0
   52.7618  102.5311   28.6996 H   0  0  0  0  0  0
   52.3042  101.7699   27.2016 H   0  0  0  0  0  0
   52.8848  101.3008   30.6289 H   0  0  0  0  0  0
   49.8262  101.5144   26.4869 H   0  0  0  0  0  0
   49.2396  100.4907   24.2679 H   0  0  0  0  0  0
   51.0000   97.3964   26.1780 H   0  0  0  0  0  0
   52.8067  102.8026   33.0419 H   0  0  0  0  0  0
   53.6638  105.1033   33.2539 H   0  0  0  0  0  0
   55.6134  105.5567   34.6798 H   0  0  0  0  0  0
   56.7509  103.7018   35.8889 H   0  0  0  0  0  0
   55.9221  101.4051   35.6720 H   0  0  0  0  0  0
  1  2  1  0  0  0
  1 28  1  0  0  0
  1 29  1  0  0  0
  1 30  1  0  0  0
  2  3  1  0  0  0
  2 31  1  0  0  0
  3  4  2  0  0  0
  3  5  1  0  0  0
  5  6  1  0  0  0
  5 32  1  0  0  0
  5 33  1  0  0  0
  6  7  1  0  0  0
  6 22  1  0  0  0
  6 34  1  0  0  0
  7  8  1  0  0  0
  7 35  1  0  0  0
  8  9  2  0  0  0
  8 10  1  0  0  0
 10 11  2  0  0  0
 10 16  1  0  0  0
 11 12  1  0  0  0
 11 36  1  0  0  0
 12 13  2  0  0  0
 12 37  1  0  0  0
 13 14  1  0  0  0
 13 17  1  0  0  0
 14 15  1  0  0  0
 14 16  2  0  0  0
 15 38  1  0  0  0
 15 39  1  0  0  0
 15 40  1  0  0  0
 16 41  1  0  0  0
 17 18  2  0  0  0
 17 21  1  0  0  0
 18 19  1  0  0  0
 18 42  1  0  0  0
 19 20  1  0  0  0
 19 43  1  0  0  0
 20 21  2  0  0  0
 21 44  1  0  0  0
 22 23  2  0  0  0
 22 27  1  0  0  0
 23 24  1  0  0  0
 23 45  1  0  0  0
 24 25  2  0  0  0
 24 46  1  0  0  0
 25 26  1  0  0  0
 25 47  1  0  0  0
 26 27  2  0  0  0
 26 48  1  0  0  0
 27 49  1  0  0  0
M  END
> <s_m_entry_id>
28568

> <s_m_entry_name>
dock_pv.729

> <s_m_Source_Path>
/home/csk/Desktop/cluster/DUD-E-result/rock1

> <s_m_Source_File>
dock_pv.maegz

> <i_m_Source_File_Index>
729

> <chembl_id>
CHEMBL4109757

> <chembl_pref_name>
None

> <i_lp_mmshare_version>
53161

> <r_lp_tautomer_probability>
0.5

> <s_lp_Force_Field>
OPLS_2005

> <r_lp_Energy>
16.410879

> <b_lp_Chiralities_Consistent>
1

> <s_lp_Variant>
CHEMBL3231_lig807-1

> <s_i_glide_gridfile>
glide-grid_2etr

> <i_i_glide_lignum>
1135

> <i_i_glide_rotatable_bonds>
8

> <r_i_docking_score>
-7.02318756482934

> <r_i_glide_ligand_efficiency>
-0.260118057956642

> <r_i_glide_ligand_efficiency_sa>
-0.780354173012621

> <r_i_glide_ligand_efficiency_ln>
-1.63488227879607

> <r_i_glide_gscore>
-7.02318756482934

> <r_i_glide_lipo>
-2.36924133318666

> <r_i_glide_hbond>
-0.27120025296657

> <r_i_glide_metal>
0

> <r_i_glide_rewards>
-2.33994027822715

> <r_i_glide_evdw>
-43.2168350219727

> <r_i_glide_ecoul>
-3.15400052070618

> <r_i_glide_erotb>
0.613982460182312

> <r_i_glide_esite>
-0.0228463314267107

> <r_i_glide_emodel>
-65.2451270567969

> <r_i_glide_energy>
-46.3708355426788

> <r_i_glide_einternal>
2.79001784324646

> <i_i_glide_confnum>
8

> <i_i_glide_posenum>
108

> <r_i_glide_eff_state_penalty>
0

> <s_user_duplicate_titles>
CHEMBL3231_lig807

> <i_f3d_flags>
0

> <s_m_subgroup_title>
dock_pv

> <s_m_subgroupid>
dock_pv

> <b_m_subgroup_collapsed>
1

$$$$
CHEMBL3231_lig6
                    3D
 Schrodinger Suite 2021-1.
 44 46  0  0  1  0            999 V2000
   52.2181  102.7843   35.3115 C   0  0  0  0  0  0
   51.9952  101.4544   34.9392 C   0  0  0  0  0  0
   53.5565  103.4501   35.0139 C   0  0  0  0  0  0
   53.5430  104.1335   33.6241 C   0  0  1  0  0  0
   54.6947  105.1176   33.3503 C   0  0  0  0  0  0
   54.8411  106.1620   34.3552 N   0  0  0  0  0  0
   53.4776  103.1232   32.5546 N   0  0  0  0  0  0
   51.1752  103.5294   35.8728 C   0  0  0  0  0  0
   49.9091  102.9633   36.0218 C   0  0  0  0  0  0
   48.9000  103.6980   36.5441 F   0  0  0  0  0  0
   49.6840  101.6496   35.6090 C   0  0  0  0  0  0
   48.4489  101.1152   35.6910 F   0  0  0  0  0  0
   50.7286  100.8905   35.0837 C   0  0  0  0  0  0
   51.7279  101.5735   29.6942 C   0  0  0  0  0  0
   52.5712  101.9235   30.7370 C   0  0  0  0  0  0
   52.1052  100.3093   29.2426 C   0  0  0  0  0  0
   51.4145   99.5828   28.1857 C   0  0  0  0  0  0
   50.9127   98.3026   28.3037 N   0  0  0  0  0  0
   50.3474   98.8973   26.3675 C   0  0  0  0  0  0
   50.2579   97.9009   27.2066 N   0  0  0  0  0  0
   51.0186   99.9887   26.9117 C   0  0  0  0  0  0
   51.2574  101.5027   26.1449 Cl  0  0  0  0  0  0
   53.2210   99.9650   30.0111 C   0  0  0  0  0  0
   54.2661   98.5989   30.0112 Cl  0  0  0  0  0  0
   53.4921  100.9409   30.9177 O   0  0  0  0  0  0
   52.5375  103.0716   31.5952 C   0  0  0  0  0  0
   51.6430  103.9029   31.4686 O   0  0  0  0  0  0
   50.8551   97.4460   29.4851 C   0  0  0  0  0  0
   52.7913  100.8728   34.4958 H   0  0  0  0  0  0
   53.7590  104.1764   35.8022 H   0  0  0  0  0  0
   54.3647  102.7198   35.0805 H   0  0  0  0  0  0
   52.6389  104.7491   33.5962 H   0  0  0  0  0  0
   55.6425  104.5940   33.2165 H   0  0  0  0  0  0
   54.4432  105.6148   32.4116 H   0  0  0  0  0  0
   55.5346  106.8166   34.0200 H   0  0  0  0  0  0
   53.9807  106.6994   34.3280 H   0  0  0  0  0  0
   54.2421  102.4655   32.5033 H   0  0  0  0  0  0
   51.3341  104.5588   36.1603 H   0  0  0  0  0  0
   50.5492   99.8753   34.7646 H   0  0  0  0  0  0
   50.8983  102.1570   29.3227 H   0  0  0  0  0  0
   49.8993   98.8582   25.3857 H   0  0  0  0  0  0
   51.6001   97.7388   30.2214 H   0  0  0  0  0  0
   49.8718   97.5033   29.9400 H   0  0  0  0  0  0
   51.0232   96.4085   29.2113 H   0  0  0  0  0  0
  1  2  1  0  0  0
  1  8  2  0  0  0
  1  3  1  0  0  0
  2 13  2  0  0  0
  2 29  1  0  0  0
  3  4  1  0  0  0
  3 30  1  0  0  0
  3 31  1  0  0  0
  4  7  1  0  0  0
  4  5  1  0  0  0
  4 32  1  0  0  0
  5  6  1  0  0  0
  5 33  1  0  0  0
  5 34  1  0  0  0
  6 35  1  0  0  0
  6 36  1  0  0  0
  7 26  1  0  0  0
  7 37  1  0  0  0
  8  9  1  0  0  0
  8 38  1  0  0  0
  9 11  2  0  0  0
  9 10  1  0  0  0
 11 12  1  0  0  0
 11 13  1  0  0  0
 13 39  1  0  0  0
 14 15  2  0  0  0
 14 16  1  0  0  0
 14 40  1  0  0  0
 15 25  1  0  0  0
 15 26  1  0  0  0
 16 23  2  0  0  0
 16 17  1  0  0  0
 17 18  1  0  0  0
 17 21  2  0  0  0
 18 28  1  0  0  0
 18 20  1  0  0  0
 19 20  2  0  0  0
 19 21  1  0  0  0
 19 41  1  0  0  0
 21 22  1  0  0  0
 23 24  1  0  0  0
 23 25  1  0  0  0
 26 27  2  0  0  0
 28 42  1  0  0  0
 28 43  1  0  0  0
 28 44  1  0  0  0
M  END
> <s_m_entry_id>
28569

> <s_m_entry_name>
dock_pv.730

> <s_m_Source_Path>
/home/csk/Desktop/cluster/DUD-E-result/rock1

> <s_m_Source_File>
dock_pv.maegz

> <i_m_Source_File_Index>
730

> <chembl_id>
CHEMBL3137336

> <chembl_pref_name>
UPROSERTIB

> <i_lp_mmshare_version>
53161

> <r_lp_tautomer_probability>
1

> <s_lp_Force_Field>
OPLS_2005

> <r_lp_Energy>
20.017615

> <b_lp_Chiralities_Consistent>
1

> <s_lp_Variant>
CHEMBL3231_lig6-1

> <s_i_glide_gridfile>
glide-grid_2etr

> <i_i_glide_lignum>
6

> <i_i_glide_rotatable_bonds>
7

> <r_i_docking_score>
-7.02149018869059

> <r_i_glide_ligand_efficiency>
-0.25076750673895

> <r_i_glide_ligand_efficiency_sa>
-0.76147784462245

> <r_i_glide_ligand_efficiency_ln>
-1.62076609545994

> <r_i_glide_gscore>
-7.02149018869059

> <r_i_glide_lipo>
-2.49448201241226

> <r_i_glide_hbond>
-0.160260138424738

> <r_i_glide_metal>
0

> <r_i_glide_rewards>
-1.98041414697753

> <r_i_glide_evdw>
-38.3740501403809

> <r_i_glide_ecoul>
-6.25494575500488

> <r_i_glide_erotb>
0.539224477106643

> <r_i_glide_esite>
-0.0686139977129275

> <r_i_glide_emodel>
-58.15774832943

> <r_i_glide_energy>
-44.6289958953857

> <r_i_glide_einternal>
7.77954053878784

> <i_i_glide_confnum>
57

> <i_i_glide_posenum>
116

> <r_i_glide_eff_state_penalty>
0

> <s_user_duplicate_titles>
CHEMBL3231_lig6

> <i_f3d_flags>
0

> <s_m_subgroup_title>
dock_pv

> <s_m_subgroupid>
dock_pv

> <b_m_subgroup_collapsed>
1

$$$$
CHEMBL3231_lig928 
                    3D
 Schrodinger Suite 2021-1.
 42 45  0  0  1  0            999 V2000
   52.3175   99.4567   31.3538 N   0  0  0  0  0  0
   52.5048  100.1288   32.4458 C   0  0  0  0  0  0
   52.2727  101.4965   32.4635 N   0  0  0  0  0  0
   51.8385  102.3020   31.4436 C   0  0  0  0  0  0
   51.8984  100.1332   30.2456 C   0  0  0  0  0  0
   51.6437  101.5045   30.2406 C   0  0  0  0  0  0
   51.0440  102.0561   28.7125 S   0  0  0  0  0  0
   51.1400  100.4394   28.0505 C   0  0  0  0  0  0
   51.6427   99.5510   29.0051 C   0  0  0  0  0  0
   50.7103  100.1470   26.6808 C   0  0  0  0  0  0
   50.4655  101.0498   25.6597 C   0  0  0  0  0  0
   50.0512  100.3034   24.5925 N   0  0  0  0  0  0
   50.0395   99.0000   24.8458 N   0  0  0  0  0  0
   50.4129   98.8935   26.1012 C   0  0  0  0  0  0
   51.6424  103.5029   31.6111 O   0  0  0  0  0  0
   50.4391   97.5288   26.7314 C   0  0  0  0  0  0
   52.8981   99.4335   33.7757 C   0  0  2  0  0  0
   53.8850  100.2536   34.6513 C   0  0  0  0  0  0
   55.2419  100.6426   34.0208 C   0  0  0  0  0  0
   53.2426   98.0108   33.6652 N   0  0  2  0  0  0
   56.2065   99.5031   33.6151 C   0  0  0  0  0  0
   54.5235   97.6098   33.0921 C   0  0  0  0  0  0
   55.7763   98.0470   33.8687 C   0  0  0  0  0  0
   52.4389  101.9873   33.3275 H   0  0  0  0  0  0
   51.7994   98.4991   28.8397 H   0  0  0  0  0  0
   50.5274  102.1268   25.6115 H   0  0  0  0  0  0
   49.7629  100.6697   23.6928 H   0  0  0  0  0  0
   49.7578   97.5028   27.5814 H   0  0  0  0  0  0
   50.1523   96.7255   26.0515 H   0  0  0  0  0  0
   51.4254   97.2882   27.1107 H   0  0  0  0  0  0
   51.9785   99.4007   34.3603 H   0  0  0  0  0  0
   53.3896  101.1689   34.9773 H   0  0  0  0  0  0
   54.0725   99.7077   35.5775 H   0  0  0  0  0  0
   55.0677  101.2742   33.1478 H   0  0  0  0  0  0
   55.7659  101.2932   34.7257 H   0  0  0  0  0  0
   52.5136   97.5389   33.1457 H   0  0  0  0  0  0
   56.4404   99.6083   32.5544 H   0  0  0  0  0  0
   57.1611   99.6633   34.1179 H   0  0  0  0  0  0
   54.5754   98.0119   32.0787 H   0  0  0  0  0  0
   54.5327   96.5246   32.9797 H   0  0  0  0  0  0
   56.6072   97.3958   33.5898 H   0  0  0  0  0  0
   55.6164   97.9070   34.9383 H   0  0  0  0  0  0
  1  5  1  0  0  0
  1  2  2  0  0  0
  2  3  1  0  0  0
  2 17  1  0  0  0
  3  4  1  0  0  0
  3 24  1  0  0  0
  4  6  1  0  0  0
  4 15  2  0  0  0
  5  6  2  0  0  0
  5  9  1  0  0  0
  6  7  1  0  0  0
  7  8  1  0  0  0
  8  9  2  0  0  0
  8 10  1  0  0  0
  9 25  1  0  0  0
 10 11  2  0  0  0
 10 14  1  0  0  0
 11 12  1  0  0  0
 11 26  1  0  0  0
 12 13  1  0  0  0
 12 27  1  0  0  0
 13 14  2  0  0  0
 14 16  1  0  0  0
 16 28  1  0  0  0
 16 29  1  0  0  0
 16 30  1  0  0  0
 17 18  1  0  0  0
 17 20  1  0  0  0
 17 31  1  0  0  0
 18 19  1  0  0  0
 18 32  1  0  0  0
 18 33  1  0  0  0
 19 21  1  0  0  0
 19 34  1  0  0  0
 19 35  1  0  0  0
 20 22  1  0  0  0
 20 36  1  0  0  0
 21 23  1  0  0  0
 21 37  1  0  0  0
 21 38  1  0  0  0
 22 23  1  0  0  0
 22 39  1  0  0  0
 22 40  1  0  0  0
 23 41  1  0  0  0
 23 42  1  0  0  0
M  END
> <s_m_entry_id>
28570

> <s_m_entry_name>
dock_pv.731

> <s_m_Source_Path>
/home/csk/Desktop/cluster/DUD-E-result/rock1

> <s_m_Source_File>
dock_pv.maegz

> <i_m_Source_File_Index>
731

> <chembl_id>
CHEMBL4529213

> <chembl_pref_name>
None

> <i_lp_mmshare_version>
53161

> <r_lp_tautomer_probability>
0.5

> <s_lp_Force_Field>
OPLS_2005

> <r_lp_Energy>
31.53343

> <b_lp_Chiralities_Consistent>
1

> <s_lp_Variant>
CHEMBL3231_lig928 -1

> <s_i_glide_gridfile>
glide-grid_2etr

> <i_i_glide_lignum>
1331

> <i_i_glide_rotatable_bonds>
2

> <r_i_docking_score>
-7.02052066767225

> <r_i_glide_ligand_efficiency>
-0.305240029029228

> <r_i_glide_ligand_efficiency_sa>
-0.868062038577888

> <r_i_glide_ligand_efficiency_ln>
-1.69762555600502

> <r_i_glide_gscore>
-7.02052066767225

> <r_i_glide_lipo>
-1.99434457418604

> <r_i_glide_hbond>
-0.347678860090073

> <r_i_glide_metal>
0

> <r_i_glide_rewards>
-2.29861826912065

> <r_i_glide_evdw>
-38.7453994750977

> <r_i_glide_ecoul>
-4.46544694900513

> <r_i_glide_erotb>
0.242470915965845

> <r_i_glide_esite>
-0.0152628641356797

> <r_i_glide_emodel>
-61.3835732069758

> <r_i_glide_energy>
-43.2108464241028

> <r_i_glide_einternal>
0.172831937670708

> <i_i_glide_confnum>
69

> <i_i_glide_posenum>
52

> <r_i_glide_eff_state_penalty>
0

> <s_user_duplicate_titles>
CHEMBL3231_lig928 ,CHEMBL3231_lig928 

> <i_f3d_flags>
0

> <s_m_subgroup_title>
dock_pv

> <s_m_subgroupid>
dock_pv

> <b_m_subgroup_collapsed>
1

$$$$
CHEMBL3231_lig1385
                    3D
 Schrodinger Suite 2021-1.
 20 21  0  0  1  0            999 V2000
   52.1423  101.4314   30.5223 S   0  0  0  0  0  0
   50.6922   97.8231   27.4743 O   0  0  0  0  0  0
   50.0424   98.4372   24.8116 O   0  0  0  0  0  0
   49.6328  100.6196   24.4110 O   0  0  0  0  0  0
   51.2415  101.9011   27.9514 N   0  0  0  0  0  0
   52.0789   99.8086   31.0568 N   0  0  0  0  0  0
   51.3342   99.6478   28.8506 C   0  0  0  0  0  0
   51.5288  101.0197   28.9666 C   0  0  0  0  0  0
   50.8453   99.0360   27.5981 C   0  0  0  0  0  0
   50.5548  100.0304   26.5144 C   0  0  0  0  0  0
   51.6409   99.0295   30.0845 C   0  0  0  0  0  0
   50.7727  101.3558   26.7661 C   0  0  0  0  0  0
   50.0690   99.6004   25.2044 C   0  0  0  0  0  0
   51.5085   97.5772   30.4994 C   0  0  0  0  0  0
   49.2864  100.3031   23.5596 H   0  0  0  0  0  0
   51.4035  102.8924   28.0484 H   0  0  0  0  0  0
   50.5858  102.1149   26.0160 H   0  0  0  0  0  0
   51.1682   96.9162   29.7050 H   0  0  0  0  0  0
   52.4568   97.1690   30.8514 H   0  0  0  0  0  0
   50.7949   97.4618   31.3152 H   0  0  0  0  0  0
  1  6  1  0  0  0
  1  8  1  0  0  0
  2  9  2  0  0  0
  3 13  2  0  0  0
  4 13  1  0  0  0
  4 15  1  0  0  0
  5  8  1  0  0  0
  5 12  1  0  0  0
  5 16  1  0  0  0
  6 11  2  0  0  0
  7  8  2  0  0  0
  7  9  1  0  0  0
  7 11  1  0  0  0
  9 10  1  0  0  0
 10 12  2  0  0  0
 10 13  1  0  0  0
 11 14  1  0  0  0
 12 17  1  0  0  0
 14 18  1  0  0  0
 14 19  1  0  0  0
 14 20  1  0  0  0
M  END
> <s_m_entry_id>
28571

> <s_m_entry_name>
dock_pv.732

> <s_m_Source_Path>
/home/csk/Desktop/cluster/DUD-E-result/rock1

> <s_m_Source_File>
dock_pv.maegz

> <i_m_Source_File_Index>
732

> <chembl_id>
CHEMBL2002553

> <chembl_pref_name>
None

> <i_lp_mmshare_version>
53161

> <r_lp_tautomer_probability>
1

> <s_lp_Force_Field>
OPLS_2005

> <r_lp_Energy>
13.606613

> <b_lp_Chiralities_Consistent>
1

> <s_lp_Variant>
CHEMBL3231_lig1385-1

> <s_i_glide_gridfile>
glide-grid_2etr

> <i_i_glide_lignum>
1940

> <i_i_glide_rotatable_bonds>
2

> <r_i_docking_score>
-7.01220158109515

> <r_i_glide_ligand_efficiency>
-0.500871541506796

> <r_i_glide_ligand_efficiency_sa>
-1.2071716700462

> <r_i_glide_ligand_efficiency_ln>
-1.92692803271569

> <r_i_glide_gscore>
-7.01220158109515

> <r_i_glide_lipo>
-1.50449922379191

> <r_i_glide_hbond>
-0.263428905296664

> <r_i_glide_metal>
0

> <r_i_glide_rewards>
-2.9428580325397

> <r_i_glide_evdw>
-28.4966602325439

> <r_i_glide_ecoul>
-8.34862327575684

> <r_i_glide_erotb>
0.375711083523858

> <r_i_glide_esite>
0

> <r_i_glide_emodel>
-51.8979068764832

> <r_i_glide_energy>
-36.8452835083008

> <r_i_glide_einternal>
0.0338367894291878

> <i_i_glide_confnum>
1

> <i_i_glide_posenum>
24

> <r_i_glide_eff_state_penalty>
0

> <s_user_duplicate_titles>
CHEMBL3231_lig1385

> <i_f3d_flags>
0

> <s_m_subgroup_title>
dock_pv

> <s_m_subgroupid>
dock_pv

> <b_m_subgroup_collapsed>
1

$$$$
CHEMBL3231_lig1723
                    3D
 Schrodinger Suite 2021-1.
 41 43  0  0  1  0            999 V2000
   52.0451  100.9892   29.4796 S   0  0  0  0  0  0
   51.4163  103.5029   32.1838 O   0  0  0  0  0  0
   54.8419   97.9643   31.3445 O   0  0  0  0  0  0
   50.4438  102.5020   28.1482 N   0  0  0  0  0  0
   53.4741  102.7373   31.5538 N   0  0  0  0  0  0
   50.0432   98.3000   25.2109 N   0  0  0  0  0  0
   51.6979  102.5926   30.0745 C   0  0  0  0  0  0
   50.9635  101.2952   28.1581 C   0  0  0  0  0  0
   52.1800  103.0238   31.3468 C   0  0  0  0  0  0
   50.6680  100.2431   27.1407 C   0  0  0  0  0  0
   50.8219  103.2197   29.1878 C   0  0  0  0  0  0
   54.1437  102.6003   32.8468 C   0  0  1  0  0  0
   54.4924  101.1348   33.1559 C   0  0  0  0  0  0
   50.1509  100.6123   25.8944 C   0  0  0  0  0  0
   50.8709   98.8762   27.3982 C   0  0  0  0  0  0
   54.5917  100.1677   32.1418 C   0  0  0  0  0  0
   54.8134   98.8210   32.4274 C   0  0  0  0  0  0
   54.6556  100.7244   34.4838 C   0  0  0  0  0  0
   49.8573   99.6178   24.9687 C   0  0  0  0  0  0
   50.5455   97.9433   26.4163 C   0  0  0  0  0  0
   54.9746   98.4352   33.7675 C   0  0  0  0  0  0
   54.9018   99.3850   34.7863 C   0  0  0  0  0  0
   55.3835  103.5025   32.8837 C   0  0  0  0  0  0
   55.1109   96.5835   31.5612 C   0  0  0  0  0  0
   54.0595  102.5849   30.7463 H   0  0  0  0  0  0
   50.4308  104.2207   29.2838 H   0  0  0  0  0  0
   53.4688  102.9342   33.6415 H   0  0  0  0  0  0
   49.9692  101.6478   25.6428 H   0  0  0  0  0  0
   51.2606   98.5320   28.3442 H   0  0  0  0  0  0
   54.4967  100.4466   31.1058 H   0  0  0  0  0  0
   54.5887  101.4431   35.2879 H   0  0  0  0  0  0
   49.4498   99.8835   24.0110 H   0  0  0  0  0  0
   50.6852   96.8863   26.5864 H   0  0  0  0  0  0
   55.1595   97.4068   34.0338 H   0  0  0  0  0  0
   55.0289   99.0766   35.8133 H   0  0  0  0  0  0
   55.9519  103.3786   33.8060 H   0  0  0  0  0  0
   56.0443  103.2864   32.0445 H   0  0  0  0  0  0
   55.0981  104.5536   32.8135 H   0  0  0  0  0  0
   55.1889   96.0790   30.5984 H   0  0  0  0  0  0
   56.0539   96.4290   32.0852 H   0  0  0  0  0  0
   54.3073   96.1079   32.1225 H   0  0  0  0  0  0
  1  7  1  0  0  0
  1  8  1  0  0  0
  2  9  2  0  0  0
  3 17  1  0  0  0
  3 24  1  0  0  0
  4  8  2  0  0  0
  4 11  1  0  0  0
  5  9  1  0  0  0
  5 12  1  0  0  0
  5 25  1  0  0  0
  6 19  2  0  0  0
  6 20  1  0  0  0
  7  9  1  0  0  0
  7 11  2  0  0  0
  8 10  1  0  0  0
 10 14  2  0  0  0
 10 15  1  0  0  0
 11 26  1  0  0  0
 12 13  1  0  0  0
 12 23  1  0  0  0
 12 27  1  0  0  0
 13 16  2  0  0  0
 13 18  1  0  0  0
 14 19  1  0  0  0
 14 28  1  0  0  0
 15 20  2  0  0  0
 15 29  1  0  0  0
 16 17  1  0  0  0
 16 30  1  0  0  0
 17 21  2  0  0  0
 18 22  2  0  0  0
 18 31  1  0  0  0
 19 32  1  0  0  0
 20 33  1  0  0  0
 21 22  1  0  0  0
 21 34  1  0  0  0
 22 35  1  0  0  0
 23 36  1  0  0  0
 23 37  1  0  0  0
 23 38  1  0  0  0
 24 39  1  0  0  0
 24 40  1  0  0  0
 24 41  1  0  0  0
M  END
> <s_m_entry_id>
28572

> <s_m_entry_name>
dock_pv.733

> <s_m_Source_Path>
/home/csk/Desktop/cluster/DUD-E-result/rock1

> <s_m_Source_File>
dock_pv.maegz

> <i_m_Source_File_Index>
733

> <chembl_id>
CHEMBL1984633

> <chembl_pref_name>
None

> <i_lp_mmshare_version>
53161

> <r_lp_tautomer_probability>
1

> <s_lp_Force_Field>
OPLS_2005

> <r_lp_Energy>
12.381432

> <b_lp_Chiralities_Consistent>
1

> <s_lp_Variant>
CHEMBL3231_lig1723-2

> <s_i_glide_gridfile>
glide-grid_2etr

> <i_i_glide_lignum>
2458

> <i_i_glide_rotatable_bonds>
6

> <r_i_docking_score>
-7.01215138783225

> <r_i_glide_ligand_efficiency>
-0.292172974493011

> <r_i_glide_ligand_efficiency_sa>
-0.842772692943171

> <r_i_glide_ligand_efficiency_ln>
-1.67832959376885

> <r_i_glide_gscore>
-7.01215138783225

> <r_i_glide_lipo>
-2.11460873488237

> <r_i_glide_hbond>
-0.359079609405029

> <r_i_glide_metal>
0

> <r_i_glide_rewards>
-2.42561900894279

> <r_i_glide_evdw>
-41.0177040100098

> <r_i_glide_ecoul>
-5.31857776641846

> <r_i_glide_erotb>
0.821364435477754

> <r_i_glide_esite>
-0.0855366046165508

> <r_i_glide_emodel>
-59.3927996617549

> <r_i_glide_energy>
-46.3362817764282

> <r_i_glide_einternal>
15.0116443634033

> <i_i_glide_confnum>
36

> <i_i_glide_posenum>
386

> <r_i_glide_eff_state_penalty>
0

> <s_user_duplicate_titles>
CHEMBL3231_lig1723

> <i_f3d_flags>
0

> <s_m_subgroup_title>
dock_pv

> <s_m_subgroupid>
dock_pv

> <b_m_subgroup_collapsed>
1

$$$$
CHEMBL3231_lig1601
                    3D
 Schrodinger Suite 2021-1.
 34 37  0  0  1  0            999 V2000
   52.5027  103.5666   32.1281 C   0  0  0  0  0  0
   53.6431  104.3030   32.3107 N   0  0  0  0  0  0
   51.7680  103.4502   33.2044 N   0  0  0  0  0  0
   51.1235  101.3493   28.7886 C   0  0  0  0  0  0
   51.6430   99.1439   29.0161 N   0  0  0  0  0  0
   51.6363  100.3658   29.6324 C   0  0  0  0  0  0
   53.6597  104.7004   33.6270 C   0  0  0  0  0  0
   52.4659  104.1443   34.1611 C   0  0  0  0  0  0
   50.8176  100.6487   27.5618 C   0  0  0  0  0  0
   51.2659  103.5025   30.0124 N   0  0  0  0  0  0
   51.1206   99.2637   27.7524 C   0  0  0  0  0  0
   52.2159  103.0059   30.9114 N   0  0  0  0  0  0
   50.8478  102.7736   29.0513 C   0  0  0  0  0  0
   50.2873  101.0439   26.3197 C   0  0  0  0  0  0
   54.5480  105.4560   34.3965 C   0  0  0  0  0  0
   52.1499  104.3503   35.5119 C   0  0  0  0  0  0
   50.8700   98.2954   26.7777 C   0  0  0  0  0  0
   50.0409  100.0801   25.3439 C   0  0  0  0  0  0
   54.1996  105.6467   35.7373 C   0  0  0  0  0  0
   53.0335  105.1068   36.2846 C   0  0  0  0  0  0
   50.3144   98.7374   25.5801 C   0  0  0  0  0  0
   54.3075  104.5106   31.5769 H   0  0  0  0  0  0
   51.9598   98.3015   29.4748 H   0  0  0  0  0  0
   51.9651  100.4110   30.6609 H   0  0  0  0  0  0
   52.5765  102.0993   30.6539 H   0  0  0  0  0  0
   50.1730  103.1899   28.3099 H   0  0  0  0  0  0
   50.0477  102.0782   26.1242 H   0  0  0  0  0  0
   55.4370  105.8907   33.9646 H   0  0  0  0  0  0
   51.2502  103.9352   35.9416 H   0  0  0  0  0  0
   51.0818   97.2497   26.9446 H   0  0  0  0  0  0
   49.6151  100.3756   24.3951 H   0  0  0  0  0  0
   54.8438  106.2396   36.3686 H   0  0  0  0  0  0
   52.8096  105.2855   37.3261 H   0  0  0  0  0  0
   50.0937   98.0161   24.8112 H   0  0  0  0  0  0
  1  2  1  0  0  0
  1  3  2  0  0  0
  1 12  1  0  0  0
  2  7  1  0  0  0
  2 22  1  0  0  0
  3  8  1  0  0  0
  4 13  1  0  0  0
  4  6  2  0  0  0
  4  9  1  0  0  0
  5  6  1  0  0  0
  5 11  1  0  0  0
  5 23  1  0  0  0
  6 24  1  0  0  0
  7 15  2  0  0  0
  7  8  1  0  0  0
  8 16  2  0  0  0
  9 11  2  0  0  0
  9 14  1  0  0  0
 10 12  1  0  0  0
 10 13  2  3  0  0
 11 17  1  0  0  0
 12 25  1  0  0  0
 13 26  1  0  0  0
 14 18  2  0  0  0
 14 27  1  0  0  0
 15 19  1  0  0  0
 15 28  1  0  0  0
 16 20  1  0  0  0
 16 29  1  0  0  0
 17 21  2  0  0  0
 17 30  1  0  0  0
 18 21  1  0  0  0
 18 31  1  0  0  0
 19 20  2  0  0  0
 19 32  1  0  0  0
 20 33  1  0  0  0
 21 34  1  0  0  0
M  END
> <s_m_entry_id>
28573

> <s_m_entry_name>
dock_pv.734

> <s_m_Source_Path>
/home/csk/Desktop/cluster/DUD-E-result/rock1

> <s_m_Source_File>
dock_pv.maegz

> <i_m_Source_File_Index>
734

> <chembl_id>
CHEMBL535331

> <chembl_pref_name>
None

> <i_lp_mmshare_version>
53161

> <r_lp_tautomer_probability>
1

> <s_lp_Force_Field>
OPLS_2005

> <r_lp_Energy>
17.000609

> <b_lp_Chiralities_Consistent>
1

> <s_lp_Variant>
CHEMBL3231_lig1601-2

> <s_i_glide_gridfile>
glide-grid_2etr

> <i_i_glide_lignum>
2272

> <i_i_glide_rotatable_bonds>
3

> <r_i_docking_score>
-7.01035274686702

> <r_i_glide_ligand_efficiency>
-0.333826321279382

> <r_i_glide_ligand_efficiency_sa>
-0.921001507555388

> <r_i_glide_ligand_efficiency_ln>
-1.73329555091132

> <r_i_glide_gscore>
-7.01035274686702

> <r_i_glide_lipo>
-2.17526725242816

> <r_i_glide_hbond>
-0.307059159073412

> <r_i_glide_metal>
0

> <r_i_glide_rewards>
-2.17633440392663

> <r_i_glide_evdw>
-35.3818817138672

> <r_i_glide_ecoul>
-4.28959274291992

> <r_i_glide_erotb>
0.237115339219974

> <r_i_glide_esite>
-0.176274273527438

> <r_i_glide_emodel>
-55.6098656507811

> <r_i_glide_energy>
-39.6714744567871

> <r_i_glide_einternal>
4.08305072784424

> <i_i_glide_confnum>
2

> <i_i_glide_posenum>
391

> <r_i_glide_eff_state_penalty>
0

> <s_user_duplicate_titles>
CHEMBL3231_lig1601

> <i_f3d_flags>
0

> <s_m_subgroup_title>
dock_pv

> <s_m_subgroupid>
dock_pv

> <b_m_subgroup_collapsed>
1

$$$$
CHEMBL3231_lig815
                    3D
 Schrodinger Suite 2021-1.
 51 53  0  0  1  0            999 V2000
   50.3956  104.2064   27.9128 C   0  0  0  0  0  0
   50.4429  102.8137   27.6029 O   0  0  0  0  0  0
   51.0156  101.9183   28.4892 C   0  0  0  0  0  0
   51.5613  102.3338   29.7137 C   0  0  0  0  0  0
   52.1654  101.4352   30.5966 C   0  0  0  0  0  0
   52.1713  100.0760   30.2590 C   0  0  0  0  0  0
   51.6427   99.6460   29.0490 C   0  0  0  0  0  0
   51.0742  100.5512   28.1435 C   0  0  0  0  0  0
   50.5716   99.9973   26.8384 C   0  0  0  0  0  0
   50.0420  100.6684   25.7440 C   0  0  0  0  0  0
   49.7363   99.7176   24.8110 N   0  0  0  0  0  0
   50.0431   98.4832   25.2109 N   0  0  0  0  0  0
   50.5338   98.6510   26.4142 C   0  0  0  0  0  0
   52.8472  101.9593   31.8402 C   0  0  0  0  0  0
   52.6522  103.1143   32.2216 O   0  0  0  0  0  0
   53.7157  101.1109   32.4159 N   0  0  0  0  0  0
   54.9151  101.4009   33.2085 C   0  0  2  0  0  0
   55.5039  100.0932   33.8136 C   0  0  0  0  0  0
   55.6430   99.0042   32.8108 N   0  0  3  0  0  0
   54.4386   97.7334   32.6357 S   0  0  0  0  0  0
   53.1980   98.1942   33.2694 O   0  0  0  0  0  0
   54.4435   97.3130   31.2321 O   0  0  0  0  0  0
   55.1490   96.3338   33.6642 C   0  0  0  0  0  0
   54.7711  102.5420   34.2290 C   0  0  0  0  0  0
   55.1486  103.8399   33.8600 C   0  0  0  0  0  0
   55.0015  104.8959   34.7540 C   0  0  0  0  0  0
   54.5130  104.6513   36.0346 C   0  0  0  0  0  0
   54.1588  103.3610   36.4233 C   0  0  0  0  0  0
   54.2858  102.3073   35.5215 C   0  0  0  0  0  0
   50.0430  104.7547   27.0406 H   0  0  0  0  0  0
   49.7042  104.4018   28.7330 H   0  0  0  0  0  0
   51.3733  104.6164   28.1646 H   0  0  0  0  0  0
   51.5572  103.3786   29.9799 H   0  0  0  0  0  0
   52.6114   99.3330   30.9063 H   0  0  0  0  0  0
   51.7027   98.5921   28.8243 H   0  0  0  0  0  0
   49.8470  101.7122   25.5547 H   0  0  0  0  0  0
   49.3234   99.9027   23.9016 H   0  0  0  0  0  0
   50.8686   97.7941   26.9788 H   0  0  0  0  0  0
   53.7036  100.1705   32.0536 H   0  0  0  0  0  0
   55.6429  101.7354   32.4654 H   0  0  0  0  0  0
   56.4870  100.2838   34.2459 H   0  0  0  0  0  0
   54.8898   99.7167   34.6305 H   0  0  0  0  0  0
   56.4770   98.9677   32.2045 H   0  0  0  0  0  0
   54.4718   95.4830   33.6063 H   0  0  0  0  0  0
   56.1243   96.0669   33.2565 H   0  0  0  0  0  0
   55.2487   96.6683   34.6947 H   0  0  0  0  0  0
   55.5134  104.0405   32.8614 H   0  0  0  0  0  0
   55.2501  105.9008   34.4458 H   0  0  0  0  0  0
   54.3963  105.4703   36.7288 H   0  0  0  0  0  0
   53.7745  103.1778   37.4162 H   0  0  0  0  0  0
   53.9834  101.3183   35.8288 H   0  0  0  0  0  0
  1  2  1  0  0  0
  1 30  1  0  0  0
  1 31  1  0  0  0
  1 32  1  0  0  0
  2  3  1  0  0  0
  3  4  2  0  0  0
  3  8  1  0  0  0
  4  5  1  0  0  0
  4 33  1  0  0  0
  5  6  2  0  0  0
  5 14  1  0  0  0
  6  7  1  0  0  0
  6 34  1  0  0  0
  7  8  2  0  0  0
  7 35  1  0  0  0
  8  9  1  0  0  0
  9 10  2  0  0  0
  9 13  1  0  0  0
 10 11  1  0  0  0
 10 36  1  0  0  0
 11 12  1  0  0  0
 11 37  1  0  0  0
 12 13  2  0  0  0
 13 38  1  0  0  0
 14 15  2  0  0  0
 14 16  1  0  0  0
 16 17  1  0  0  0
 16 39  1  0  0  0
 17 18  1  0  0  0
 17 24  1  0  0  0
 17 40  1  0  0  0
 18 19  1  0  0  0
 18 41  1  0  0  0
 18 42  1  0  0  0
 19 20  1  0  0  0
 19 43  1  0  0  0
 20 21  2  0  0  0
 20 22  2  0  0  0
 20 23  1  0  0  0
 23 44  1  0  0  0
 23 45  1  0  0  0
 23 46  1  0  0  0
 24 25  2  0  0  0
 24 29  1  0  0  0
 25 26  1  0  0  0
 25 47  1  0  0  0
 26 27  2  0  0  0
 26 48  1  0  0  0
 27 28  1  0  0  0
 27 49  1  0  0  0
 28 29  2  0  0  0
 28 50  1  0  0  0
 29 51  1  0  0  0
M  END
> <s_m_entry_id>
28574

> <s_m_entry_name>
dock_pv.735

> <s_m_Source_Path>
/home/csk/Desktop/cluster/DUD-E-result/rock1

> <s_m_Source_File>
dock_pv.maegz

> <i_m_Source_File_Index>
735

> <chembl_id>
CHEMBL4107374

> <chembl_pref_name>
None

> <i_lp_mmshare_version>
53161

> <r_lp_tautomer_probability>
0.5

> <s_lp_Force_Field>
OPLS_2005

> <r_lp_Energy>
20.906339

> <b_lp_Chiralities_Consistent>
1

> <s_lp_Variant>
CHEMBL3231_lig815-1

> <s_i_glide_gridfile>
glide-grid_2etr

> <i_i_glide_lignum>
1143

> <i_i_glide_rotatable_bonds>
9

> <r_i_docking_score>
-7.0064409804024

> <r_i_glide_ligand_efficiency>
-0.241601413117324

> <r_i_glide_ligand_efficiency_sa>
-0.742276085796678

> <r_i_glide_ligand_efficiency_ln>
-1.6042973164985

> <r_i_glide_gscore>
-7.0064409804024

> <r_i_glide_lipo>
-1.89799233129304

> <r_i_glide_hbond>
-0.581836183650771

> <r_i_glide_metal>
0

> <r_i_glide_rewards>
-1.38949436829094

> <r_i_glide_evdw>
-45.0547676086426

> <r_i_glide_ecoul>
-7.79642486572266

> <r_i_glide_erotb>
0.482553021729894

> <r_i_glide_esite>
-0.197469008607015

> <r_i_glide_emodel>
-71.1344105306807

> <r_i_glide_energy>
-52.8511924743652

> <r_i_glide_einternal>
10.7660779953003

> <i_i_glide_confnum>
8

> <i_i_glide_posenum>
47

> <r_i_glide_eff_state_penalty>
0

> <s_user_duplicate_titles>
CHEMBL3231_lig815

> <i_f3d_flags>
0

> <s_m_subgroup_title>
dock_pv

> <s_m_subgroupid>
dock_pv

> <b_m_subgroup_collapsed>
1

$$$$
CHEMBL3231_lig1335
                    3D
 Schrodinger Suite 2021-1.
 62 66  0  0  1  0            999 V2000
   51.7151  103.1716   30.5426 O   0  0  0  0  0  0
   53.3846  103.1350   32.1092 N   0  0  0  0  0  0
   54.1060  101.1319   32.9999 N   0  0  0  0  0  0
   54.6839  103.0994   34.1502 N   0  0  0  0  0  0
   54.5825   96.3009   32.0165 N   0  0  0  0  0  0
   53.1362  101.9149   37.3443 N   0  0  0  0  0  0
   52.7793  101.0878   30.9973 C   0  0  0  0  0  0
   53.5254  100.4622   31.9651 C   0  0  0  0  0  0
   52.5811  102.5401   31.1584 C   0  0  0  0  0  0
   52.1113  100.3579   29.8495 C   0  0  0  0  0  0
   54.0762  102.4110   33.0561 C   0  0  0  0  0  0
   53.9109   99.0306   31.9881 C   0  0  0  0  0  0
   51.9575  100.9502   28.5841 C   0  0  0  0  0  0
   51.3246  100.2712   27.5056 C   0  0  0  0  0  0
   51.6423   99.0440   29.9985 C   0  0  0  0  0  0
   50.9043   98.9209   27.6868 C   0  0  0  0  0  0
   51.1093   98.3118   28.9410 C   0  0  0  0  0  0
   53.6386   98.2323   33.1110 C   0  0  0  0  0  0
   54.5350   98.4352   30.8845 C   0  0  0  0  0  0
   53.3256  104.6100   32.1901 C   0  0  0  0  0  0
   51.1002  100.8894   26.2499 C   0  0  0  0  0  0
   50.2743   98.2383   26.6177 C   0  0  0  0  0  0
   54.6066  102.5186   35.4930 C   0  0  0  0  0  0
   53.9878   96.8824   33.0848 C   0  0  0  0  0  0
   54.8436   97.0773   30.9359 C   0  0  0  0  0  0
   50.4592  100.2013   25.2227 C   0  0  0  0  0  0
   50.0469   98.8876   25.4069 C   0  0  0  0  0  0
   53.1523  102.5414   36.0347 C   0  0  2  0  0  0
   52.5290  103.9633   36.1231 C   0  0  0  0  0  0
   51.0056  104.0686   36.2508 C   0  0  0  0  0  0
   50.1720  102.9439   36.3092 C   0  0  0  0  0  0
   50.4367  105.3459   36.2687 C   0  0  0  0  0  0
   48.7907  103.1022   36.3734 C   0  0  0  0  0  0
   49.0547  105.5025   36.3328 C   0  0  0  0  0  0
   48.2354  104.3794   36.3852 C   0  0  0  0  0  0
   54.4502  104.0774   34.1832 H   0  0  0  0  0  0
   53.5489  100.9923   37.2877 H   0  0  0  0  0  0
   53.7085  102.4441   37.9866 H   0  0  0  0  0  0
   52.3106  101.9560   28.4111 H   0  0  0  0  0  0
   51.6872   98.5510   30.9555 H   0  0  0  0  0  0
   50.7871   97.2925   29.0987 H   0  0  0  0  0  0
   53.1645   98.6558   33.9833 H   0  0  0  0  0  0
   54.7761   99.0144   30.0039 H   0  0  0  0  0  0
   53.2459  105.0695   31.2110 H   0  0  0  0  0  0
   52.4772  104.9374   32.7932 H   0  0  0  0  0  0
   54.2264  105.0433   32.6240 H   0  0  0  0  0  0
   51.4235  101.9038   26.0929 H   0  0  0  0  0  0
   49.9552   97.2158   26.7552 H   0  0  0  0  0  0
   55.2687  103.0879   36.1487 H   0  0  0  0  0  0
   54.9954  101.4972   35.4732 H   0  0  0  0  0  0
   53.7949   96.2368   33.9284 H   0  0  0  0  0  0
   55.3451   96.5967   30.1075 H   0  0  0  0  0  0
   50.2813  100.6929   24.2782 H   0  0  0  0  0  0
   49.5575   98.3690   24.5993 H   0  0  0  0  0  0
   52.5454  101.9278   35.3659 H   0  0  0  0  0  0
   52.7644  104.5091   35.2092 H   0  0  0  0  0  0
   52.9977  104.5301   36.9280 H   0  0  0  0  0  0
   50.5743  101.9424   36.3034 H   0  0  0  0  0  0
   51.0656  106.2226   36.2179 H   0  0  0  0  0  0
   48.1456  102.2360   36.4107 H   0  0  0  0  0  0
   48.6197  106.4904   36.3342 H   0  0  0  0  0  0
   47.1623  104.4973   36.4324 H   0  0  0  0  0  0
  1  9  2  0  0  0
  2  9  1  0  0  0
  2 11  1  0  0  0
  2 20  1  0  0  0
  3  8  1  0  0  0
  3 11  2  0  0  0
  4 11  1  0  0  0
  4 23  1  0  0  0
  4 36  1  0  0  0
  5 24  2  0  0  0
  5 25  1  0  0  0
  6 28  1  0  0  0
  6 37  1  0  0  0
  6 38  1  0  0  0
  7  8  2  0  0  0
  7  9  1  0  0  0
  7 10  1  0  0  0
  8 12  1  0  0  0
 10 13  1  0  0  0
 10 15  2  0  0  0
 12 18  2  0  0  0
 12 19  1  0  0  0
 13 14  2  0  0  0
 13 39  1  0  0  0
 14 16  1  0  0  0
 14 21  1  0  0  0
 15 17  1  0  0  0
 15 40  1  0  0  0
 16 17  2  0  0  0
 16 22  1  0  0  0
 17 41  1  0  0  0
 18 24  1  0  0  0
 18 42  1  0  0  0
 19 25  2  0  0  0
 19 43  1  0  0  0
 20 44  1  0  0  0
 20 45  1  0  0  0
 20 46  1  0  0  0
 21 26  2  0  0  0
 21 47  1  0  0  0
 22 27  2  0  0  0
 22 48  1  0  0  0
 23 28  1  0  0  0
 23 49  1  0  0  0
 23 50  1  0  0  0
 24 51  1  0  0  0
 25 52  1  0  0  0
 26 27  1  0  0  0
 26 53  1  0  0  0
 27 54  1  0  0  0
 28 29  1  0  0  0
 28 55  1  0  0  0
 29 30  1  0  0  0
 29 56  1  0  0  0
 29 57  1  0  0  0
 30 31  2  0  0  0
 30 32  1  0  0  0
 31 33  1  0  0  0
 31 58  1  0  0  0
 32 34  2  0  0  0
 32 59  1  0  0  0
 33 35  2  0  0  0
 33 60  1  0  0  0
 34 35  1  0  0  0
 34 61  1  0  0  0
 35 62  1  0  0  0
M  END
> <s_m_entry_id>
28575

> <s_m_entry_name>
dock_pv.736

> <s_m_Source_Path>
/home/csk/Desktop/cluster/DUD-E-result/rock1

> <s_m_Source_File>
dock_pv.maegz

> <i_m_Source_File_Index>
736

> <chembl_id>
CHEMBL1990496

> <chembl_pref_name>
None

> <i_lp_mmshare_version>
53161

> <r_lp_tautomer_probability>
0.999692524845118

> <s_lp_Force_Field>
OPLS_2005

> <r_lp_Energy>
40.232654

> <b_lp_Chiralities_Consistent>
1

> <s_lp_Variant>
CHEMBL3231_lig1335-1

> <s_i_glide_gridfile>
glide-grid_2etr

> <i_i_glide_lignum>
1855

> <i_i_glide_rotatable_bonds>
7

> <r_i_docking_score>
-7.00619649593774

> <r_i_glide_ligand_efficiency>
-0.200177042741078

> <r_i_glide_ligand_efficiency_sa>
-0.654792379807518

> <r_i_glide_ligand_efficiency_ln>
-1.53801562501176

> <r_i_glide_gscore>
-7.00619649593774

> <r_i_glide_lipo>
-3.78084978093819

> <r_i_glide_hbond>
0

> <r_i_glide_metal>
0

> <r_i_glide_rewards>
-0.543292274697295

> <r_i_glide_evdw>
-53.752799987793

> <r_i_glide_ecoul>
-3.49817609786987

> <r_i_glide_erotb>
0.567148977340529

> <r_i_glide_esite>
-0.0368370035726578

> <r_i_glide_emodel>
-76.1512969574702

> <r_i_glide_energy>
-57.2509760856628

> <r_i_glide_einternal>
9.44064903259277

> <i_i_glide_confnum>
15

> <i_i_glide_posenum>
182

> <r_i_glide_eff_state_penalty>
0

> <s_user_duplicate_titles>
CHEMBL3231_lig1335

> <i_f3d_flags>
0

> <s_m_subgroup_title>
dock_pv

> <s_m_subgroupid>
dock_pv

> <b_m_subgroup_collapsed>
1

$$$$
CHEMBL3231_lig272
                    3D
 Schrodinger Suite 2021-1.
 56 60  0  0  1  0            999 V2000
   54.4368  100.3749   32.3290 C   0  0  0  0  0  0
   54.4723  101.6670   32.7599 N   0  0  0  0  0  0
   53.7911  102.5810   32.0345 C   0  0  0  0  0  0
   53.0276  102.3163   30.9498 N   0  0  0  0  0  0
   52.9332  101.0153   30.5461 C   0  0  0  0  0  0
   53.6221  100.0114   31.2464 C   0  0  0  0  0  0
   52.0987  100.7348   29.3227 C   0  0  0  0  0  0
   51.8844   99.4113   28.8842 C   0  0  0  0  0  0
   50.8184  101.5947   27.4112 C   0  0  0  0  0  0
   51.5424  101.7933   28.5830 C   0  0  0  0  0  0
   50.6503  100.2873   26.9461 C   0  0  0  0  0  0
   51.1799   99.2153   27.6917 C   0  0  0  0  0  0
   50.8420   98.0764   26.9845 N   0  0  0  0  0  0
   50.1671   98.3650   25.8533 N   0  0  0  0  0  0
   50.0431   99.6666   25.8155 C   0  0  0  0  0  0
   49.4232  100.3444   24.8109 N   0  0  0  0  0  0
   53.8775  103.9031   32.4466 N   0  0  0  0  0  0
   55.0460   99.4136   33.1339 N   0  0  0  0  0  0
   55.2431   97.9990   32.7624 C   0  0  0  0  0  0
   54.4040   97.0653   33.6581 C   0  0  0  0  0  0
   54.7822   97.2765   35.1354 C   0  0  0  0  0  0
   54.7543   98.7795   35.5274 C   0  0  1  0  0  0
   55.5624   99.6347   34.5020 C   0  0  0  0  0  0
   53.3070   99.2984   35.7585 C   0  0  0  0  0  0
   52.4426   98.4996   36.1219 O   0  0  0  0  0  0
   53.0764  100.6235   35.6079 N   0  0  0  0  0  0
   51.8605  101.3180   35.7412 C   0  0  0  0  0  0
   50.6110  100.7469   35.4560 C   0  0  0  0  0  0
   49.4491  101.5009   35.6079 C   0  0  0  0  0  0
   49.5352  102.8259   36.0284 C   0  0  0  0  0  0
   50.7740  103.4076   36.2893 C   0  0  0  0  0  0
   51.9370  102.6554   36.1379 C   0  0  0  0  0  0
   53.5453   98.9798   30.9602 H   0  0  0  0  0  0
   52.2691   98.5573   29.4149 H   0  0  0  0  0  0
   50.4202  102.4344   26.8602 H   0  0  0  0  0  0
   51.6920  102.8154   28.9011 H   0  0  0  0  0  0
   51.0548   97.1184   27.2226 H   0  0  0  0  0  0
   49.2410  101.3339   24.8854 H   0  0  0  0  0  0
   49.0933   99.9029   23.9556 H   0  0  0  0  0  0
   53.5925  104.6201   31.7952 H   0  0  0  0  0  0
   54.5980  104.1200   33.1158 H   0  0  0  0  0  0
   56.2995   97.7653   32.9057 H   0  0  0  0  0  0
   55.0704   97.8055   31.7038 H   0  0  0  0  0  0
   54.5781   96.0274   33.3731 H   0  0  0  0  0  0
   53.3404   97.2464   33.4946 H   0  0  0  0  0  0
   55.7842   96.8962   35.3416 H   0  0  0  0  0  0
   54.2013   96.6621   35.8269 H   0  0  0  0  0  0
   55.1891   98.9125   36.5190 H   0  0  0  0  0  0
   55.5751  100.6910   34.7677 H   0  0  0  0  0  0
   56.6058   99.3155   34.5050 H   0  0  0  0  0  0
   53.8845  101.1985   35.4190 H   0  0  0  0  0  0
   50.5329   99.7268   35.1141 H   0  0  0  0  0  0
   48.4855  101.0604   35.3977 H   0  0  0  0  0  0
   48.6315  103.4054   36.1473 H   0  0  0  0  0  0
   50.8338  104.4376   36.6068 H   0  0  0  0  0  0
   52.8943  103.1151   36.3425 H   0  0  0  0  0  0
  1 18  1  0  0  0
  1  6  1  0  0  0
  1  2  2  0  0  0
  2  3  1  0  0  0
  3 17  1  0  0  0
  3  4  2  0  0  0
  4  5  1  0  0  0
  5  7  1  0  0  0
  5  6  2  0  0  0
  6 33  1  0  0  0
  7  8  2  0  0  0
  7 10  1  0  0  0
  8 12  1  0  0  0
  8 34  1  0  0  0
  9 11  1  0  0  0
  9 10  2  0  0  0
  9 35  1  0  0  0
 10 36  1  0  0  0
 11 15  1  0  0  0
 11 12  2  0  0  0
 12 13  1  0  0  0
 13 14  1  0  0  0
 13 37  1  0  0  0
 14 15  2  0  0  0
 15 16  1  0  0  0
 16 38  1  0  0  0
 16 39  1  0  0  0
 17 40  1  0  0  0
 17 41  1  0  0  0
 18 19  1  0  0  0
 18 23  1  0  0  0
 19 20  1  0  0  0
 19 42  1  0  0  0
 19 43  1  0  0  0
 20 21  1  0  0  0
 20 44  1  0  0  0
 20 45  1  0  0  0
 21 22  1  0  0  0
 21 46  1  0  0  0
 21 47  1  0  0  0
 22 23  1  0  0  0
 22 24  1  0  0  0
 22 48  1  0  0  0
 23 49  1  0  0  0
 23 50  1  0  0  0
 24 25  2  0  0  0
 24 26  1  0  0  0
 26 27  1  0  0  0
 26 51  1  0  0  0
 27 28  2  0  0  0
 27 32  1  0  0  0
 28 29  1  0  0  0
 28 52  1  0  0  0
 29 30  2  0  0  0
 29 53  1  0  0  0
 30 31  1  0  0  0
 30 54  1  0  0  0
 31 32  2  0  0  0
 31 55  1  0  0  0
 32 56  1  0  0  0
M  END
> <s_m_entry_id>
28576

> <s_m_entry_name>
dock_pv.737

> <s_m_Source_Path>
/home/csk/Desktop/cluster/DUD-E-result/rock1

> <s_m_Source_File>
dock_pv.maegz

> <i_m_Source_File_Index>
737

> <chembl_id>
CHEMBL1765732

> <chembl_pref_name>
None

> <i_lp_mmshare_version>
53161

> <r_lp_tautomer_probability>
0.999999648617923

> <s_lp_Force_Field>
OPLS_2005

> <r_lp_Energy>
27.064805

> <b_lp_Chiralities_Consistent>
1

> <s_lp_Variant>
CHEMBL3231_lig272-1

> <s_i_glide_gridfile>
glide-grid_2etr

> <i_i_glide_lignum>
418

> <i_i_glide_rotatable_bonds>
5

> <r_i_docking_score>
-7.0045578447349

> <r_i_glide_ligand_efficiency>
-0.218892432647966

> <r_i_glide_ligand_efficiency_sa>
-0.694940154903691

> <r_i_glide_ligand_efficiency_ln>
-1.56851143847165

> <r_i_glide_gscore>
-7.0045578447349

> <r_i_glide_lipo>
-2.73367985823694

> <r_i_glide_hbond>
-0.520366799757511

> <r_i_glide_metal>
0

> <r_i_glide_rewards>
-0.77744583484515

> <r_i_glide_evdw>
-50.3046264648438

> <r_i_glide_ecoul>
-5.85373258590698

> <r_i_glide_erotb>
0.540952643869505

> <r_i_glide_esite>
-0.120726784636565

> <r_i_glide_emodel>
-78.4156621832833

> <r_i_glide_energy>
-56.1583590507507

> <r_i_glide_einternal>
2.94167256355286

> <i_i_glide_confnum>
45

> <i_i_glide_posenum>
201

> <r_i_glide_eff_state_penalty>
0

> <s_user_duplicate_titles>
CHEMBL3231_lig272

> <i_f3d_flags>
0

> <s_m_subgroup_title>
dock_pv

> <s_m_subgroupid>
dock_pv

> <b_m_subgroup_collapsed>
1

$$$$
CHEMBL3231_lig239
                    3D
 Schrodinger Suite 2021-1.
 43 45  0  0  1  0            999 V2000
   50.2237   98.6648   25.6099 N   0  0  0  0  0  0
   50.7759   97.9032   26.5810 C   0  0  0  0  0  0
   51.2266   98.4095   27.7984 C   0  0  0  0  0  0
   50.1087   99.9918   25.8381 C   0  0  0  0  0  0
   50.5474  100.6329   27.0349 C   0  0  0  0  0  0
   51.1143   99.8004   28.0476 C   0  0  0  0  0  0
   51.5160  100.3788   29.2794 C   0  0  0  0  0  0
   51.3489  101.7468   29.5103 C   0  0  0  0  0  0
   50.8359  102.5620   28.5042 C   0  0  0  0  0  0
   50.4430  102.0273   27.2815 C   0  0  0  0  0  0
   49.4950  100.7027   24.8110 N   0  0  0  0  0  0
   51.6558  102.3464   30.8744 C   0  0  0  0  0  0
   52.8997  103.1039   30.8605 N   0  0  2  0  0  0
   53.1396  103.9176   32.0533 C   0  0  0  0  0  0
   53.2724  103.1214   33.3754 C   0  0  0  0  0  0
   51.9612  102.7680   34.0795 C   0  0  0  0  0  0
   51.6117  101.4290   34.2820 C   0  0  0  0  0  0
   50.4371  101.1009   34.9574 C   0  0  0  0  0  0
   49.6037  102.1086   35.4410 C   0  0  0  0  0  0
   49.9387  103.4557   35.2559 C   0  0  0  0  0  0
   51.1227  103.7756   34.5729 C   0  0  0  0  0  0
   49.0190  104.5487   35.8027 C   0  0  0  0  0  0
   47.7384  104.2269   35.6120 F   0  0  0  0  0  0
   49.2286  104.6906   37.1120 F   0  0  0  0  0  0
   49.2380  105.7245   35.2105 F   0  0  0  0  0  0
   50.8427   96.8453   26.3720 H   0  0  0  0  0  0
   51.6429   97.7573   28.5515 H   0  0  0  0  0  0
   51.9208   99.7402   30.0517 H   0  0  0  0  0  0
   50.7171  103.6217   28.6765 H   0  0  0  0  0  0
   50.0424  102.6819   26.5224 H   0  0  0  0  0  0
   49.2810  101.6789   24.9409 H   0  0  0  0  0  0
   49.2418  100.2315   23.9475 H   0  0  0  0  0  0
   51.7351  101.5331   31.5946 H   0  0  0  0  0  0
   50.8209  102.9786   31.1788 H   0  0  0  0  0  0
   52.9985  103.6612   30.0226 H   0  0  0  0  0  0
   52.3343  104.6489   32.1339 H   0  0  0  0  0  0
   54.0385  104.5197   31.9061 H   0  0  0  0  0  0
   53.8495  103.7233   34.0783 H   0  0  0  0  0  0
   53.8815  102.2303   33.2122 H   0  0  0  0  0  0
   52.2542  100.6386   33.9207 H   0  0  0  0  0  0
   50.1750  100.0647   35.1115 H   0  0  0  0  0  0
   48.6989  101.8394   35.9687 H   0  0  0  0  0  0
   51.4085  104.8095   34.4368 H   0  0  0  0  0  0
  1  2  2  0  0  0
  1  4  1  0  0  0
  2  3  1  0  0  0
  2 26  1  0  0  0
  3  6  2  0  0  0
  3 27  1  0  0  0
  4  5  2  0  0  0
  4 11  1  0  0  0
  5  6  1  0  0  0
  5 10  1  0  0  0
  6  7  1  0  0  0
  7  8  2  0  0  0
  7 28  1  0  0  0
  8 12  1  0  0  0
  8  9  1  0  0  0
  9 10  2  0  0  0
  9 29  1  0  0  0
 10 30  1  0  0  0
 11 31  1  0  0  0
 11 32  1  0  0  0
 12 13  1  0  0  0
 12 33  1  0  0  0
 12 34  1  0  0  0
 13 14  1  0  0  0
 13 35  1  0  0  0
 14 15  1  0  0  0
 14 36  1  0  0  0
 14 37  1  0  0  0
 15 16  1  0  0  0
 15 38  1  0  0  0
 15 39  1  0  0  0
 16 17  2  0  0  0
 16 21  1  0  0  0
 17 18  1  0  0  0
 17 40  1  0  0  0
 18 19  2  0  0  0
 18 41  1  0  0  0
 19 20  1  0  0  0
 19 42  1  0  0  0
 20 21  2  0  0  0
 20 22  1  0  0  0
 21 43  1  0  0  0
 22 23  1  0  0  0
 22 24  1  0  0  0
 22 25  1  0  0  0
M  END
> <s_m_entry_id>
28578

> <s_m_entry_name>
dock_pv.739

> <s_m_Source_Path>
/home/csk/Desktop/cluster/DUD-E-result/rock1

> <s_m_Source_File>
dock_pv.maegz

> <i_m_Source_File_Index>
739

> <chembl_id>
CHEMBL1643363

> <chembl_pref_name>
None

> <i_lp_mmshare_version>
53161

> <r_lp_tautomer_probability>
1

> <s_lp_Force_Field>
OPLS_2005

> <r_lp_Energy>
15.638024

> <b_lp_Chiralities_Consistent>
1

> <s_lp_Variant>
CHEMBL3231_lig239-1

> <s_i_glide_gridfile>
glide-grid_2etr

> <i_i_glide_lignum>
383

> <i_i_glide_rotatable_bonds>
6

> <r_i_docking_score>
-7.00357492593595

> <r_i_glide_ligand_efficiency>
-0.280142997037438

> <r_i_glide_ligand_efficiency_sa>
-0.819143091694676

> <r_i_glide_ligand_efficiency_ln>
-1.66005713765106

> <r_i_glide_gscore>
-7.00357492593595

> <r_i_glide_lipo>
-2.95068919288

> <r_i_glide_hbond>
-0.32

> <r_i_glide_metal>
0

> <r_i_glide_rewards>
-1.90117564146901

> <r_i_glide_evdw>
-40.5519638061523

> <r_i_glide_ecoul>
-4.00363492965698

> <r_i_glide_erotb>
0.79643333816923

> <r_i_glide_esite>
0

> <r_i_glide_emodel>
-62.3099295298032

> <r_i_glide_energy>
-44.5555987358093

> <r_i_glide_einternal>
2.35289144515991

> <i_i_glide_confnum>
189

> <i_i_glide_posenum>
4

> <r_i_glide_eff_state_penalty>
0

> <s_user_duplicate_titles>
CHEMBL3231_lig239

> <i_f3d_flags>
0

> <s_m_subgroup_title>
dock_pv

> <s_m_subgroupid>
dock_pv

> <b_m_subgroup_collapsed>
1

$$$$
CHEMBL3231_lig888
                    3D
 Schrodinger Suite 2021-1.
 39 42  0  0  1  0            999 V2000
   53.3843  100.2105   31.0275 N   0  0  0  0  0  0
   53.7077  101.0317   31.9780 C   0  0  0  0  0  0
   53.1134  102.2787   32.0544 N   0  0  0  0  0  0
   52.1585  102.8126   31.2292 C   0  0  0  0  0  0
   52.4908  100.6381   30.0903 C   0  0  0  0  0  0
   51.8898  101.8957   30.1308 C   0  0  0  0  0  0
   50.8412  102.1720   28.7806 S   0  0  0  0  0  0
   51.2111  100.5929   28.1312 C   0  0  0  0  0  0
   52.0795   99.9037   28.9795 C   0  0  0  0  0  0
   50.6625  100.1413   26.8546 C   0  0  0  0  0  0
   50.2750  100.9234   25.7796 C   0  0  0  0  0  0
   49.8525  100.0571   24.8112 N   0  0  0  0  0  0
   49.9491   98.7839   25.1906 N   0  0  0  0  0  0
   50.4137   98.8231   26.4200 C   0  0  0  0  0  0
   51.6447  103.9018   31.4560 O   0  0  0  0  0  0
   50.6072   97.5284   27.1616 C   0  0  0  0  0  0
   54.7602  100.6954   33.0459 C   0  0  0  0  0  0
   55.2436   99.3084   33.0609 N   0  0  1  0  0  0
   56.5031   99.1285   33.7824 C   0  0  0  0  0  0
   56.6089   97.6255   34.0817 C   0  0  2  0  0  0
   55.1960   97.0899   33.8340 C   0  0  0  0  0  0
   54.3501   98.3543   33.7046 C   0  0  0  0  0  0
   56.9292   97.4655   35.3692 F   0  0  0  0  0  0
   53.3966  102.8910   32.8019 H   0  0  0  0  0  0
   52.4432   98.9069   28.8034 H   0  0  0  0  0  0
   50.2642  101.9892   25.6265 H   0  0  0  0  0  0
   49.4951  100.3149   23.8968 H   0  0  0  0  0  0
   51.6432   97.4076   27.4589 H   0  0  0  0  0  0
   50.0146   97.5030   28.0744 H   0  0  0  0  0  0
   50.3452   96.6580   26.5599 H   0  0  0  0  0  0
   55.6233  101.3414   32.8726 H   0  0  0  0  0  0
   54.3955  100.9652   34.0377 H   0  0  0  0  0  0
   57.3490   99.5012   33.2055 H   0  0  0  0  0  0
   56.5008   99.7215   34.6983 H   0  0  0  0  0  0
   57.3582   97.1249   33.4651 H   0  0  0  0  0  0
   54.8380   96.4635   34.6526 H   0  0  0  0  0  0
   55.1460   96.4863   32.9256 H   0  0  0  0  0  0
   53.9710   98.7233   34.6593 H   0  0  0  0  0  0
   53.4742   98.2066   33.0726 H   0  0  0  0  0  0
  1  5  1  0  0  0
  1  2  2  0  0  0
  2  3  1  0  0  0
  2 17  1  0  0  0
  3  4  1  0  0  0
  3 24  1  0  0  0
  4  6  1  0  0  0
  4 15  2  0  0  0
  5  6  2  0  0  0
  5  9  1  0  0  0
  6  7  1  0  0  0
  7  8  1  0  0  0
  8  9  2  0  0  0
  8 10  1  0  0  0
  9 25  1  0  0  0
 10 11  2  0  0  0
 10 14  1  0  0  0
 11 12  1  0  0  0
 11 26  1  0  0  0
 12 13  1  0  0  0
 12 27  1  0  0  0
 13 14  2  0  0  0
 14 16  1  0  0  0
 16 28  1  0  0  0
 16 29  1  0  0  0
 16 30  1  0  0  0
 17 18  1  0  0  0
 17 31  1  0  0  0
 17 32  1  0  0  0
 18 19  1  0  0  0
 18 22  1  0  0  0
 19 20  1  0  0  0
 19 33  1  0  0  0
 19 34  1  0  0  0
 20 21  1  0  0  0
 20 23  1  0  0  0
 20 35  1  0  0  0
 21 22  1  0  0  0
 21 36  1  0  0  0
 21 37  1  0  0  0
 22 38  1  0  0  0
 22 39  1  0  0  0
M  END
> <s_m_entry_id>
28579

> <s_m_entry_name>
dock_pv.740

> <s_m_Source_Path>
/home/csk/Desktop/cluster/DUD-E-result/rock1

> <s_m_Source_File>
dock_pv.maegz

> <i_m_Source_File_Index>
740

> <chembl_id>
CHEMBL4087760

> <chembl_pref_name>
None

> <i_lp_mmshare_version>
53161

> <r_lp_tautomer_probability>
0.5

> <s_lp_Force_Field>
OPLS_2005

> <r_lp_Energy>
39.728834

> <b_lp_Chiralities_Consistent>
1

> <s_lp_Variant>
CHEMBL3231_lig888-1

> <s_i_glide_gridfile>
glide-grid_2etr

> <i_i_glide_lignum>
1270

> <i_i_glide_rotatable_bonds>
3

> <r_i_docking_score>
-7.0028579481332

> <r_i_glide_ligand_efficiency>
-0.304472084701444

> <r_i_glide_ligand_efficiency_sa>
-0.865878107064019

> <r_i_glide_ligand_efficiency_ln>
-1.69335455026379

> <r_i_glide_gscore>
-7.0028579481332

> <r_i_glide_lipo>
-1.88315355129224

> <r_i_glide_hbond>
-0.48

> <r_i_glide_metal>
0

> <r_i_glide_rewards>
-2.38101243409091

> <r_i_glide_evdw>
-36.2762985229492

> <r_i_glide_ecoul>
-5.95124530792236

> <r_i_glide_erotb>
0.50870706528159

> <r_i_glide_esite>
-0.0608973056958255

> <r_i_glide_emodel>
-60.8944669321547

> <r_i_glide_energy>
-42.2275438308716

> <r_i_glide_einternal>
0.362047880887985

> <i_i_glide_confnum>
6

> <i_i_glide_posenum>
400

> <r_i_glide_eff_state_penalty>
0

> <s_user_duplicate_titles>
CHEMBL3231_lig888

> <i_f3d_flags>
0

> <s_m_subgroup_title>
dock_pv

> <s_m_subgroupid>
dock_pv

> <b_m_subgroup_collapsed>
1

$$$$
CHEMBL3231_lig513
                    3D
 Schrodinger Suite 2021-1.
 50 53  0  0  1  0            999 V2000
   54.2297  101.9698   31.7888 C   0  0  1  0  0  0
   52.8171  102.5937   31.9594 C   0  0  0  0  0  0
   52.6018  103.3296   33.0848 C   0  0  0  0  0  0
   53.6262  103.6380   33.9300 N   0  0  0  0  0  0
   54.9441  103.4801   33.6662 C   0  0  0  0  0  0
   55.2080  102.8224   32.5079 N   0  0  0  0  0  0
   55.8218  103.9036   34.4123 O   0  0  0  0  0  0
   51.2885  103.9209   33.5875 C   0  0  0  0  0  0
   51.8257  102.3739   30.9063 C   0  0  0  0  0  0
   52.0860  101.3268   30.0888 N   0  0  0  0  0  0
   50.8427  103.1032   30.7616 O   0  0  0  0  0  0
   51.4579  100.9884   28.8785 C   0  0  0  0  0  0
   51.4253   99.6372   28.5177 C   0  0  0  0  0  0
   50.4427  101.6480   26.7499 C   0  0  0  0  0  0
   50.9613  101.9641   28.0060 C   0  0  0  0  0  0
   50.3886  100.2956   26.4120 C   0  0  0  0  0  0
   50.8633   99.2816   27.2789 C   0  0  0  0  0  0
   50.6084   98.0716   26.5654 C   0  0  0  0  0  0
   50.0460   98.3034   25.4064 N   0  0  0  0  0  0
   49.9226   99.6370   25.2909 N   0  0  0  0  0  0
   54.3035  100.4839   32.1680 C   0  0  0  0  0  0
   53.7915  100.0322   33.3905 C   0  0  0  0  0  0
   53.8036   98.6720   33.7384 C   0  0  0  0  0  0
   54.3314   97.7514   32.8103 C   0  0  0  0  0  0
   54.8410   98.1961   31.5919 C   0  0  0  0  0  0
   54.8357   99.5508   31.2734 C   0  0  0  0  0  0
   54.3546   96.4199   33.0586 F   0  0  0  0  0  0
   53.2438   98.2570   35.0834 C   0  0  0  0  0  0
   53.6673   97.0849   35.5843 N   0  0  0  0  0  0
   52.4389   98.9797   35.6752 O   0  0  0  0  0  0
   53.2807   96.5201   36.8731 C   0  0  0  0  0  0
   54.5310  102.0128   30.7400 H   0  0  0  0  0  0
   53.4416  104.1656   34.7686 H   0  0  0  0  0  0
   56.1813  102.6173   32.3437 H   0  0  0  0  0  0
   51.2936  105.0025   33.4499 H   0  0  0  0  0  0
   50.4082  103.5018   33.1064 H   0  0  0  0  0  0
   51.1642  103.7214   34.6531 H   0  0  0  0  0  0
   52.7869  100.6772   30.4129 H   0  0  0  0  0  0
   51.8145   98.8773   29.1795 H   0  0  0  0  0  0
   50.0815  102.4188   26.0847 H   0  0  0  0  0  0
   51.0166  103.0082   28.2759 H   0  0  0  0  0  0
   50.8225   97.0622   26.8845 H   0  0  0  0  0  0
   49.5088  100.0407   24.4611 H   0  0  0  0  0  0
   53.3826  100.7564   34.0813 H   0  0  0  0  0  0
   55.2672   97.4860   30.8982 H   0  0  0  0  0  0
   55.2566   99.8687   30.3299 H   0  0  0  0  0  0
   54.2998   96.5372   35.0164 H   0  0  0  0  0  0
   52.8439   95.5313   36.7288 H   0  0  0  0  0  0
   52.5593   97.1350   37.4132 H   0  0  0  0  0  0
   54.1627   96.4095   37.5047 H   0  0  0  0  0  0
  1  2  1  0  0  0
  1  6  1  0  0  0
  1 21  1  0  0  0
  1 32  1  0  0  0
  2  3  2  0  0  0
  2  9  1  0  0  0
  3  4  1  0  0  0
  3  8  1  0  0  0
  4  5  1  0  0  0
  4 33  1  0  0  0
  5  6  1  0  0  0
  5  7  2  0  0  0
  6 34  1  0  0  0
  8 35  1  0  0  0
  8 36  1  0  0  0
  8 37  1  0  0  0
  9 10  1  0  0  0
  9 11  2  0  0  0
 10 12  1  0  0  0
 10 38  1  0  0  0
 12 13  2  0  0  0
 12 15  1  0  0  0
 13 17  1  0  0  0
 13 39  1  0  0  0
 14 16  1  0  0  0
 14 15  2  0  0  0
 14 40  1  0  0  0
 15 41  1  0  0  0
 16 17  2  0  0  0
 16 20  1  0  0  0
 17 18  1  0  0  0
 18 19  2  0  0  0
 18 42  1  0  0  0
 19 20  1  0  0  0
 20 43  1  0  0  0
 21 22  2  0  0  0
 21 26  1  0  0  0
 22 23  1  0  0  0
 22 44  1  0  0  0
 23 24  2  0  0  0
 23 28  1  0  0  0
 24 25  1  0  0  0
 24 27  1  0  0  0
 25 26  2  0  0  0
 25 45  1  0  0  0
 26 46  1  0  0  0
 28 29  1  0  0  0
 28 30  2  0  0  0
 29 31  1  0  0  0
 29 47  1  0  0  0
 31 48  1  0  0  0
 31 49  1  0  0  0
 31 50  1  0  0  0
M  END
> <s_m_entry_id>
28580

> <s_m_entry_name>
dock_pv.741

> <s_m_Source_Path>
/home/csk/Desktop/cluster/DUD-E-result/rock1

> <s_m_Source_File>
dock_pv.maegz

> <i_m_Source_File_Index>
741

> <chembl_id>
CHEMBL3810349

> <chembl_pref_name>
None

> <i_lp_mmshare_version>
53161

> <r_lp_tautomer_probability>
0.980392156860701

> <s_lp_Force_Field>
OPLS_2005

> <r_lp_Energy>
47.427258

> <b_lp_Chiralities_Consistent>
1

> <s_lp_Variant>
CHEMBL3231_lig513-2

> <s_i_glide_gridfile>
glide-grid_2etr

> <i_i_glide_lignum>
730

> <i_i_glide_rotatable_bonds>
6

> <r_i_docking_score>
-7.00247566597555

> <r_i_glide_ligand_efficiency>
-0.225886311805663

> <r_i_glide_ligand_efficiency_sa>
-0.709594888734112

> <r_i_glide_ligand_efficiency_ln>
-1.57927286278415

> <r_i_glide_gscore>
-7.00247566597555

> <r_i_glide_lipo>
-1.83633867026328

> <r_i_glide_hbond>
-0.278744948041311

> <r_i_glide_metal>
0

> <r_i_glide_rewards>
-1.65400334175031

> <r_i_glide_evdw>
-48.0256843566895

> <r_i_glide_ecoul>
-8.63649940490723

> <r_i_glide_erotb>
0.555118910562842

> <r_i_glide_esite>
-0.0917484879129365

> <r_i_glide_emodel>
-77.1479340809579

> <r_i_glide_energy>
-56.6621837615967

> <r_i_glide_einternal>
4.84438371658325

> <i_i_glide_confnum>
40

> <i_i_glide_posenum>
71

> <r_i_glide_eff_state_penalty>
0

> <s_user_duplicate_titles>
CHEMBL3231_lig513

> <i_f3d_flags>
0

> <s_m_subgroup_title>
dock_pv

> <s_m_subgroupid>
dock_pv

> <b_m_subgroup_collapsed>
1

$$$$
CHEMBL3231_lig303
                    3D
 Schrodinger Suite 2021-1.
 42 45  0  0  1  0            999 V2000
   53.0671   98.4195   32.9988 C   0  0  0  0  0  0
   52.8809   99.5097   33.7809 N   0  0  0  0  0  0
   52.3451  100.5955   33.1843 C   0  0  0  0  0  0
   51.9458  100.6805   31.8934 N   0  0  0  0  0  0
   52.0940   99.5657   31.1238 C   0  0  0  0  0  0
   52.6700   98.4048   31.6554 C   0  0  0  0  0  0
   51.6247   99.6308   29.6999 C   0  0  0  0  0  0
   51.2467   98.4485   29.0360 C   0  0  0  0  0  0
   51.0863  100.9492   27.7052 C   0  0  0  0  0  0
   51.5381  100.8589   29.0228 C   0  0  0  0  0  0
   50.7278   99.7744   27.0305 C   0  0  0  0  0  0
   50.8335   98.5402   27.7039 C   0  0  0  0  0  0
   50.4405   97.5880   26.7866 N   0  0  0  0  0  0
   50.0636   98.1305   25.6164 N   0  0  0  0  0  0
   50.2112   99.4228   25.7442 C   0  0  0  0  0  0
   49.8899  100.3105   24.7640 N   0  0  0  0  0  0
   52.1929  101.7234   33.9743 N   0  0  0  0  0  0
   53.6568   97.3137   33.6248 N   0  0  0  0  0  0
   54.0565   96.1212   32.8807 C   0  0  0  0  0  0
   55.2871   96.3392   31.9925 C   0  0  0  0  0  0
   55.9081   94.9509   31.8512 C   0  0  0  0  0  0
   55.6835   94.3134   33.2174 C   0  0  0  0  0  0
   54.3950   94.9257   33.7849 C   0  0  0  0  0  0
   52.8156   97.5321   31.0457 H   0  0  0  0  0  0
   51.2550   97.4931   29.5382 H   0  0  0  0  0  0
   51.0122  101.9040   27.2114 H   0  0  0  0  0  0
   51.8273  101.7700   29.5266 H   0  0  0  0  0  0
   50.4038   96.5880   26.9203 H   0  0  0  0  0  0
   50.0665  101.3001   24.8634 H   0  0  0  0  0  0
   49.4818  100.0139   23.8825 H   0  0  0  0  0  0
   51.9920  102.5959   33.5107 H   0  0  0  0  0  0
   52.6249  101.7040   34.8857 H   0  0  0  0  0  0
   53.9395   97.4002   34.5867 H   0  0  0  0  0  0
   53.2430   95.8042   32.2341 H   0  0  0  0  0  0
   55.0342   96.7524   31.0158 H   0  0  0  0  0  0
   55.9980   97.0238   32.4579 H   0  0  0  0  0  0
   55.4021   94.3771   31.0752 H   0  0  0  0  0  0
   56.9674   94.9989   31.5914 H   0  0  0  0  0  0
   55.6428   93.2257   33.1643 H   0  0  0  0  0  0
   56.5204   94.5684   33.8722 H   0  0  0  0  0  0
   54.5343   95.2122   34.8267 H   0  0  0  0  0  0
   53.5850   94.1946   33.7631 H   0  0  0  0  0  0
  1  6  1  0  0  0
  1  2  2  0  0  0
  1 18  1  0  0  0
  2  3  1  0  0  0
  3  4  2  0  0  0
  3 17  1  0  0  0
  4  5  1  0  0  0
  5  6  2  0  0  0
  5  7  1  0  0  0
  6 24  1  0  0  0
  7  8  2  0  0  0
  7 10  1  0  0  0
  8 12  1  0  0  0
  8 25  1  0  0  0
  9 11  1  0  0  0
  9 10  2  0  0  0
  9 26  1  0  0  0
 10 27  1  0  0  0
 11 12  2  0  0  0
 11 15  1  0  0  0
 12 13  1  0  0  0
 13 14  1  0  0  0
 13 28  1  0  0  0
 14 15  2  0  0  0
 15 16  1  0  0  0
 16 29  1  0  0  0
 16 30  1  0  0  0
 17 31  1  0  0  0
 17 32  1  0  0  0
 18 19  1  0  0  0
 18 33  1  0  0  0
 19 20  1  0  0  0
 19 23  1  0  0  0
 19 34  1  0  0  0
 20 21  1  0  0  0
 20 35  1  0  0  0
 20 36  1  0  0  0
 21 22  1  0  0  0
 21 37  1  0  0  0
 21 38  1  0  0  0
 22 23  1  0  0  0
 22 39  1  0  0  0
 22 40  1  0  0  0
 23 41  1  0  0  0
 23 42  1  0  0  0
M  END
> <s_m_entry_id>
28581

> <s_m_entry_name>
dock_pv.742

> <s_m_Source_Path>
/home/csk/Desktop/cluster/DUD-E-result/rock1

> <s_m_Source_File>
dock_pv.maegz

> <i_m_Source_File_Index>
742

> <chembl_id>
CHEMBL1765762

> <chembl_pref_name>
None

> <i_lp_mmshare_version>
53161

> <r_lp_tautomer_probability>
0.999999624730965

> <s_lp_Force_Field>
OPLS_2005

> <r_lp_Energy>
19.297187

> <b_lp_Chiralities_Consistent>
1

> <s_lp_Variant>
CHEMBL3231_lig303-1

> <s_i_glide_gridfile>
glide-grid_2etr

> <i_i_glide_lignum>
451

> <i_i_glide_rotatable_bonds>
3

> <r_i_docking_score>
-7.00204778657291

> <r_i_glide_ligand_efficiency>
-0.304436860285779

> <r_i_glide_ligand_efficiency_sa>
-0.86577793351153

> <r_i_glide_ligand_efficiency_ln>
-1.69315864585237

> <r_i_glide_gscore>
-7.00204778657291

> <r_i_glide_lipo>
-2.11176068670136

> <r_i_glide_hbond>
-0.346959813125196

> <r_i_glide_metal>
0

> <r_i_glide_rewards>
-2.42578123250898

> <r_i_glide_evdw>
-40.5806312561035

> <r_i_glide_ecoul>
-3.2291533946991

> <r_i_glide_erotb>
0.406250335001256

> <r_i_glide_esite>
-0.0103918172285836

> <r_i_glide_emodel>
-60.8068799423137

> <r_i_glide_energy>
-43.8097846508026

> <r_i_glide_einternal>
3.09756422042847

> <i_i_glide_confnum>
30

> <i_i_glide_posenum>
293

> <r_i_glide_eff_state_penalty>
0

> <s_user_duplicate_titles>
CHEMBL3231_lig303

> <i_f3d_flags>
0

> <s_m_subgroup_title>
dock_pv

> <s_m_subgroupid>
dock_pv

> <b_m_subgroup_collapsed>
1

$$$$
CHEMBL3231_lig1843
                    3D
 Schrodinger Suite 2021-1.
 34 36  0  0  1  0            999 V2000
   49.6405  101.5029   35.3755 S   0  0  0  0  0  0
   50.8431  103.1030   31.5185 O   0  0  0  0  0  0
   51.6431   98.3766   29.0891 O   0  0  0  0  0  0
   49.6432   98.8377   24.8109 O   0  0  0  0  0  0
   50.7310  101.9699   34.2020 N   0  0  0  0  0  0
   49.7639  102.8019   36.4127 N   0  0  0  0  0  0
   52.7409  103.6551   32.6595 N   0  0  0  0  0  0
   52.9028  102.9662   30.5307 N   0  0  0  0  0  0
   52.5934  102.3191   29.3501 N   0  0  0  0  0  0
   51.2136  103.1702   34.6101 C   0  0  0  0  0  0
   50.6956  103.6049   35.8514 C   0  0  0  0  0  0
   52.1736  103.9480   33.9131 C   0  0  0  0  0  0
   51.1362  104.7931   36.4480 C   0  0  0  0  0  0
   52.6322  105.1028   34.5545 C   0  0  0  0  0  0
   52.1212  105.5232   35.7832 C   0  0  0  0  0  0
   52.0695  103.2433   31.5675 C   0  0  0  0  0  0
   51.3201  100.6155   28.1874 C   0  0  0  0  0  0
   51.2288   99.2133   28.0838 C   0  0  0  0  0  0
   50.2014   99.4202   25.9097 C   0  0  0  0  0  0
   50.6785   98.6253   26.9459 C   0  0  0  0  0  0
   50.8291  101.3970   27.1315 C   0  0  0  0  0  0
   51.8545  101.2716   29.3823 C   0  0  0  0  0  0
   50.2738  100.8053   26.0005 C   0  0  0  0  0  0
   52.1191   98.8327   29.7865 H   0  0  0  0  0  0
   49.3239   99.4816   24.1692 H   0  0  0  0  0  0
   53.6828  103.9897   32.5193 H   0  0  0  0  0  0
   53.7410  103.5269   30.4670 H   0  0  0  0  0  0
   50.7432  105.1279   37.3965 H   0  0  0  0  0  0
   53.3761  105.7213   34.0707 H   0  0  0  0  0  0
   52.4928  106.4380   36.2216 H   0  0  0  0  0  0
   50.6088   97.5491   26.8763 H   0  0  0  0  0  0
   50.8431  102.4759   27.1929 H   0  0  0  0  0  0
   51.5583  100.8032   30.3188 H   0  0  0  0  0  0
   49.8851  101.4299   25.2111 H   0  0  0  0  0  0
  1  5  1  0  0  0
  1  6  1  0  0  0
  2 16  2  0  0  0
  3 18  1  0  0  0
  3 24  1  0  0  0
  4 19  1  0  0  0
  4 25  1  0  0  0
  5 10  2  0  0  0
  6 11  2  0  0  0
  7 12  1  0  0  0
  7 16  1  0  0  0
  7 26  1  0  0  0
  8  9  1  0  0  0
  8 16  1  0  0  0
  8 27  1  0  0  0
  9 22  2  3  0  0
 10 11  1  0  0  0
 10 12  1  0  0  0
 11 13  1  0  0  0
 12 14  2  0  0  0
 13 15  2  0  0  0
 13 28  1  0  0  0
 14 15  1  0  0  0
 14 29  1  0  0  0
 15 30  1  0  0  0
 17 18  1  0  0  0
 17 21  2  0  0  0
 17 22  1  0  0  0
 18 20  2  0  0  0
 19 20  1  0  0  0
 19 23  2  0  0  0
 20 31  1  0  0  0
 21 23  1  0  0  0
 21 32  1  0  0  0
 22 33  1  0  0  0
 23 34  1  0  0  0
M  END
> <s_m_entry_id>
28583

> <s_m_entry_name>
dock_pv.744

> <s_m_Source_Path>
/home/csk/Desktop/cluster/DUD-E-result/rock1

> <s_m_Source_File>
dock_pv.maegz

> <i_m_Source_File_Index>
744

> <chembl_id>
CHEMBL1999811

> <chembl_pref_name>
None

> <i_lp_mmshare_version>
53161

> <r_lp_tautomer_probability>
1

> <s_lp_Force_Field>
OPLS_2005

> <r_lp_Energy>
18.544179

> <b_lp_Chiralities_Consistent>
1

> <s_lp_Variant>
CHEMBL3231_lig1843-1

> <s_i_glide_gridfile>
glide-grid_2etr

> <i_i_glide_lignum>
2662

> <i_i_glide_rotatable_bonds>
7

> <r_i_docking_score>
-7.00097269728422

> <r_i_glide_ligand_efficiency>
-0.304390117273227

> <r_i_glide_ligand_efficiency_sa>
-0.865645002601734

> <r_i_glide_ligand_efficiency_ln>
-1.69289867951399

> <r_i_glide_gscore>
-7.00097269728422

> <r_i_glide_lipo>
-2.21556576457007

> <r_i_glide_hbond>
-0.428908157343854

> <r_i_glide_metal>
0

> <r_i_glide_rewards>
-1.60088826041339

> <r_i_glide_evdw>
-38.1696014404297

> <r_i_glide_ecoul>
-9.51560211181641

> <r_i_glide_erotb>
0.69309420323805

> <r_i_glide_esite>
-0.112884329401011

> <r_i_glide_emodel>
-64.823242738258

> <r_i_glide_energy>
-47.6852035522461

> <r_i_glide_einternal>
8.27839088439941

> <i_i_glide_confnum>
2

> <i_i_glide_posenum>
175

> <r_i_glide_eff_state_penalty>
0

> <s_user_duplicate_titles>
CHEMBL3231_lig1843

> <i_f3d_flags>
0

> <s_m_subgroup_title>
dock_pv

> <s_m_subgroupid>
dock_pv

> <b_m_subgroup_collapsed>
1

$$$$
CHEMBL3231_lig1899
                    3D
 Schrodinger Suite 2021-1.
 41 43  0  0  1  0            999 V2000
   49.6421  100.2873   25.7523 Cl  0  0  0  0  0  0
   55.0543  100.7991   33.8027 O   0  0  0  0  0  0
   52.5395  102.1014   30.5603 O   0  0  0  0  0  0
   50.8449   97.6048   29.9102 O   0  0  0  0  0  0
   55.6284  103.5556   32.8585 O   0  0  0  0  0  0
   52.9471  104.6983   33.1038 O   0  0  0  0  0  0
   53.7659   99.2174   32.5674 N   0  0  0  0  0  0
   52.1777   99.4320   30.1846 N   0  0  0  0  0  0
   52.4559   97.5073   31.4255 N   0  0  0  0  0  0
   55.4068   97.1476   33.5171 N   0  0  0  0  0  0
   57.6082   98.7048   35.5463 N   0  0  0  0  0  0
   54.8205   99.4891   33.3983 C   0  0  0  0  0  0
   51.6266  100.3255   29.2452 C   0  0  0  0  0  0
   53.5323   97.9125   32.2286 C   0  0  0  0  0  0
   55.6325   98.4389   33.8628 C   0  0  0  0  0  0
   51.7415  101.7006   29.5112 C   0  0  0  0  0  0
   51.7731   98.1754   30.4747 C   0  0  0  0  0  0
   54.3491   96.8924   32.7131 C   0  0  0  0  0  0
   50.9740   99.8976   28.0766 C   0  0  0  0  0  0
   51.1336  102.6206   28.6473 C   0  0  0  0  0  0
   50.4005  100.8233   27.2088 C   0  0  0  0  0  0
   54.4755  102.8244   32.4758 C   0  0  2  0  0  0
   53.3619  103.8368   32.0386 C   0  0  1  0  0  0
   54.0785  101.8401   33.6081 C   0  0  0  0  0  0
   50.4553  102.1817   27.5100 C   0  0  0  0  0  0
   52.1136  103.1415   31.4387 C   0  0  0  0  0  0
   56.7350   98.5994   34.7956 C   0  0  0  0  0  0
   55.8181  104.2050   32.1685 H   0  0  0  0  0  0
   52.9149  105.6290   32.8108 H   0  0  0  0  0  0
   52.8761   99.8278   30.8012 H   0  0  0  0  0  0
   52.1968   96.5349   31.5284 H   0  0  0  0  0  0
   54.1825   95.8548   32.4614 H   0  0  0  0  0  0
   50.9140   98.8492   27.8260 H   0  0  0  0  0  0
   51.2381  103.6823   28.8092 H   0  0  0  0  0  0
   54.7751  102.2327   31.6090 H   0  0  0  0  0  0
   53.7842  104.4659   31.2532 H   0  0  0  0  0  0
   53.9956  102.3919   34.5455 H   0  0  0  0  0  0
   53.0786  101.4399   33.4429 H   0  0  0  0  0  0
   50.0386  102.9037   26.8243 H   0  0  0  0  0  0
   51.5181  102.6757   32.2246 H   0  0  0  0  0  0
   51.4712  103.8836   30.9662 H   0  0  0  0  0  0
  1 21  1  0  0  0
  2 12  1  0  0  0
  2 24  1  0  0  0
  3 16  1  0  0  0
  3 26  1  0  0  0
  4 17  2  0  0  0
  5 22  1  0  0  0
  5 28  1  0  0  0
  6 23  1  0  0  0
  6 29  1  0  0  0
  7 12  2  0  0  0
  7 14  1  0  0  0
  8 13  1  0  0  0
  8 17  1  0  0  0
  8 30  1  0  0  0
  9 14  1  0  0  0
  9 17  1  0  0  0
  9 31  1  0  0  0
 10 15  2  0  0  0
 10 18  1  0  0  0
 11 27  3  0  0  0
 12 15  1  0  0  0
 13 16  1  0  0  0
 13 19  2  0  0  0
 14 18  2  0  0  0
 15 27  1  0  0  0
 16 20  2  0  0  0
 18 32  1  0  0  0
 19 21  1  0  0  0
 19 33  1  0  0  0
 20 25  1  0  0  0
 20 34  1  0  0  0
 21 25  2  0  0  0
 22 23  1  0  0  0
 22 24  1  0  0  0
 22 35  1  0  0  0
 23 26  1  0  0  0
 23 36  1  0  0  0
 24 37  1  0  0  0
 24 38  1  0  0  0
 25 39  1  0  0  0
 26 40  1  0  0  0
 26 41  1  0  0  0
M  END
> <s_m_entry_id>
28587

> <s_m_entry_name>
dock_pv.748

> <s_m_Source_Path>
/home/csk/Desktop/cluster/DUD-E-result/rock1

> <s_m_Source_File>
dock_pv.maegz

> <i_m_Source_File_Index>
748

> <chembl_id>
CHEMBL1980802

> <chembl_pref_name>
None

> <i_lp_mmshare_version>
53161

> <r_lp_tautomer_probability>
1

> <s_lp_Force_Field>
OPLS_2005

> <r_lp_Energy>
42.021379

> <b_lp_Chiralities_Consistent>
1

> <s_lp_Variant>
CHEMBL3231_lig1899-3

> <s_i_glide_gridfile>
glide-grid_2etr

> <i_i_glide_lignum>
2758

> <i_i_glide_rotatable_bonds>
2

> <r_i_docking_score>
-6.9936710050349

> <r_i_glide_ligand_efficiency>
-0.25902485203833

> <r_i_glide_ligand_efficiency_sa>
-0.777074555261285

> <r_i_glide_ligand_efficiency_ln>
-1.62801131029445

> <r_i_glide_gscore>
-6.9936710050349

> <r_i_glide_lipo>
-1.39035891485611

> <r_i_glide_hbond>
-0.288

> <r_i_glide_metal>
0

> <r_i_glide_rewards>
-1.89786700903833

> <r_i_glide_evdw>
-38.0338668823242

> <r_i_glide_ecoul>
-9.85128688812256

> <r_i_glide_erotb>
0

> <r_i_glide_esite>
-0.0380587038058652

> <r_i_glide_emodel>
-66.4086829056316

> <r_i_glide_energy>
-47.8851537704468

> <r_i_glide_einternal>
0.601284801959991

> <i_i_glide_confnum>
1

> <i_i_glide_posenum>
23

> <r_i_glide_eff_state_penalty>
0

> <s_user_duplicate_titles>
CHEMBL3231_lig1899

> <i_f3d_flags>
0

> <s_m_subgroup_title>
dock_pv

> <s_m_subgroupid>
dock_pv

> <b_m_subgroup_collapsed>
1

$$$$
CHEMBL3231_lig615
                    3D
 Schrodinger Suite 2021-1.
 47 49  0  0  1  0            999 V2000
   50.4414  103.9456   28.1833 C   0  0  0  0  0  0
   50.4687  102.5707   27.8116 O   0  0  0  0  0  0
   51.0768  101.6386   28.6377 C   0  0  0  0  0  0
   51.6039  101.9787   29.8971 C   0  0  0  0  0  0
   52.1510  101.0100   30.7491 C   0  0  0  0  0  0
   52.1925   99.6834   30.3191 C   0  0  0  0  0  0
   51.7100   99.3365   29.0615 C   0  0  0  0  0  0
   51.1454  100.2953   28.2086 C   0  0  0  0  0  0
   50.6306   99.8210   26.8752 C   0  0  0  0  0  0
   50.4444   98.4940   26.4322 C   0  0  0  0  0  0
   49.9754   98.3997   25.2109 N   0  0  0  0  0  0
   49.8377   99.6651   24.8145 N   0  0  0  0  0  0
   50.2185  100.5628   25.7726 C   0  0  0  0  0  0
   52.6346  101.3703   32.1300 C   0  0  0  0  0  0
   52.4091  100.6292   33.0884 O   0  0  0  0  0  0
   53.2885  102.5413   32.2377 N   0  0  0  0  0  0
   53.6983  103.1649   33.5031 C   0  0  1  0  0  0
   54.8039  104.2013   33.2243 C   0  0  0  0  0  0
   52.4841  103.7576   34.2889 C   0  0  2  0  0  0
   51.7826  104.7029   33.4923 O   0  0  0  0  0  0
   52.8408  104.2765   35.6856 C   0  0  0  0  0  0
   53.0291  103.3575   36.7240 C   0  0  0  0  0  0
   53.3497  103.8024   38.0040 C   0  0  0  0  0  0
   53.4848  105.1678   38.2468 C   0  0  0  0  0  0
   53.3068  106.0916   37.2192 C   0  0  0  0  0  0
   52.9867  105.6475   35.9386 C   0  0  0  0  0  0
   50.0433  104.5336   27.3564 H   0  0  0  0  0  0
   49.7917  104.1033   29.0433 H   0  0  0  0  0  0
   51.4349  104.3325   28.4111 H   0  0  0  0  0  0
   51.5549  102.9971   30.2488 H   0  0  0  0  0  0
   52.6039   98.9100   30.9553 H   0  0  0  0  0  0
   51.7793   98.3011   28.7667 H   0  0  0  0  0  0
   50.6478   97.5983   27.0011 H   0  0  0  0  0  0
   49.4728   99.9047   23.8976 H   0  0  0  0  0  0
   50.1588  101.6259   25.5958 H   0  0  0  0  0  0
   53.5922  102.9985   31.3913 H   0  0  0  0  0  0
   54.1548  102.3862   34.1214 H   0  0  0  0  0  0
   55.1511  104.6662   34.1466 H   0  0  0  0  0  0
   55.6757  103.7458   32.7497 H   0  0  0  0  0  0
   54.4428  105.0103   32.5886 H   0  0  0  0  0  0
   51.7600  102.9568   34.4472 H   0  0  0  0  0  0
   52.4197  105.3610   33.1771 H   0  0  0  0  0  0
   52.9276  102.2964   36.5401 H   0  0  0  0  0  0
   53.4971  103.0913   38.8040 H   0  0  0  0  0  0
   53.7360  105.5139   39.2392 H   0  0  0  0  0  0
   53.4165  107.1490   37.4130 H   0  0  0  0  0  0
   52.8522  106.3728   35.1486 H   0  0  0  0  0  0
  1  2  1  0  0  0
  1 27  1  0  0  0
  1 28  1  0  0  0
  1 29  1  0  0  0
  2  3  1  0  0  0
  3  4  2  0  0  0
  3  8  1  0  0  0
  4  5  1  0  0  0
  4 30  1  0  0  0
  5  6  2  0  0  0
  5 14  1  0  0  0
  6  7  1  0  0  0
  6 31  1  0  0  0
  7  8  2  0  0  0
  7 32  1  0  0  0
  8  9  1  0  0  0
  9 10  1  0  0  0
  9 13  2  0  0  0
 10 11  2  0  0  0
 10 33  1  0  0  0
 11 12  1  0  0  0
 12 13  1  0  0  0
 12 34  1  0  0  0
 13 35  1  0  0  0
 14 15  2  0  0  0
 14 16  1  0  0  0
 16 17  1  0  0  0
 16 36  1  0  0  0
 17 18  1  0  0  0
 17 19  1  0  0  0
 17 37  1  0  0  0
 18 38  1  0  0  0
 18 39  1  0  0  0
 18 40  1  0  0  0
 19 20  1  0  0  0
 19 21  1  0  0  0
 19 41  1  0  0  0
 20 42  1  0  0  0
 21 22  2  0  0  0
 21 26  1  0  0  0
 22 23  1  0  0  0
 22 43  1  0  0  0
 23 24  2  0  0  0
 23 44  1  0  0  0
 24 25  1  0  0  0
 24 45  1  0  0  0
 25 26  2  0  0  0
 25 46  1  0  0  0
 26 47  1  0  0  0
M  END
> <s_m_entry_id>
28588

> <s_m_entry_name>
dock_pv.749

> <s_m_Source_Path>
/home/csk/Desktop/cluster/DUD-E-result/rock1

> <s_m_Source_File>
dock_pv.maegz

> <i_m_Source_File_Index>
749

> <chembl_id>
CHEMBL3902021

> <chembl_pref_name>
None

> <i_lp_mmshare_version>
53161

> <r_lp_tautomer_probability>
0.5

> <s_lp_Force_Field>
OPLS_2005

> <r_lp_Energy>
22.193103

> <b_lp_Chiralities_Consistent>
1

> <s_lp_Variant>
CHEMBL3231_lig615-1

> <s_i_glide_gridfile>
glide-grid_2etr

> <i_i_glide_lignum>
901

> <i_i_glide_rotatable_bonds>
8

> <r_i_docking_score>
-6.99238956718109

> <r_i_glide_ligand_efficiency>
-0.268938060276196

> <r_i_glide_ligand_efficiency_sa>
-0.796727945348063

> <r_i_glide_ligand_efficiency_ln>
-1.64213974595092

> <r_i_glide_gscore>
-6.99238956718109

> <r_i_glide_lipo>
-1.86838556348148

> <r_i_glide_hbond>
-0.576725438972339

> <r_i_glide_metal>
0

> <r_i_glide_rewards>
-1.91838496177378

> <r_i_glide_evdw>
-37.3675765991211

> <r_i_glide_ecoul>
-8.42086982727051

> <r_i_glide_erotb>
0.540596123200386

> <r_i_glide_esite>
-0.0379804221072473

> <r_i_glide_emodel>
-64.7739342062237

> <r_i_glide_energy>
-45.7884464263916

> <r_i_glide_einternal>
4.44686031341553

> <i_i_glide_confnum>
45

> <i_i_glide_posenum>
33

> <r_i_glide_eff_state_penalty>
0

> <s_user_duplicate_titles>
CHEMBL3231_lig615

> <i_f3d_flags>
0

> <s_m_subgroup_title>
dock_pv

> <s_m_subgroupid>
dock_pv

> <b_m_subgroup_collapsed>
1

$$$$
CHEMBL3231_lig1160
                    3D
 Schrodinger Suite 2021-1.
 29 31  0  0  1  0            999 V2000
   49.2473   97.6262   26.4112 F   0  0  0  0  0  0
   51.2427   97.5031   25.6340 F   0  0  0  0  0  0
   49.8192   98.8109   24.6997 F   0  0  0  0  0  0
   52.7816   99.9270   29.7269 O   0  0  0  0  0  0
   51.0326  103.6418   29.6060 O   0  0  0  0  0  0
   52.4396  104.0969   32.0127 O   0  0  0  0  0  0
   51.3088  101.5078   28.6303 C   0  0  0  0  0  0
   51.8670  100.2319   28.7532 C   0  0  0  0  0  0
   52.6104  102.1395   30.6649 C   0  0  0  0  0  0
   51.6092  102.5514   29.6536 C   0  0  0  0  0  0
   53.1330  100.8816   30.6252 C   0  0  0  0  0  0
   50.6363   99.4537   26.8209 C   0  0  0  0  0  0
   51.5164   99.2082   27.8782 C   0  0  0  0  0  0
   53.0695  103.0873   31.6998 C   0  0  0  0  0  0
   50.4599  101.7621   27.5456 C   0  0  0  0  0  0
   50.2333   98.3318   25.8695 C   0  0  0  0  0  0
   50.1461  100.7500   26.6374 C   0  0  0  0  0  0
   54.2199  100.3321   31.5471 C   0  0  0  0  0  0
   54.4014  102.7514   32.3852 C   0  0  0  0  0  0
   54.4646  101.2581   32.7576 C   0  0  0  0  0  0
   51.9340   98.2250   28.0276 H   0  0  0  0  0  0
   50.0448  102.7494   27.3927 H   0  0  0  0  0  0
   49.5058  100.9753   25.7978 H   0  0  0  0  0  0
   55.1280  100.1692   30.9618 H   0  0  0  0  0  0
   53.9493   99.3358   31.9012 H   0  0  0  0  0  0
   54.5352  103.3988   33.2523 H   0  0  0  0  0  0
   55.1965  103.0012   31.6806 H   0  0  0  0  0  0
   55.4335  101.0281   33.2044 H   0  0  0  0  0  0
   53.7214  101.0469   33.5304 H   0  0  0  0  0  0
  1 16  1  0  0  0
  2 16  1  0  0  0
  3 16  1  0  0  0
  4  8  1  0  0  0
  4 11  1  0  0  0
  5 10  2  0  0  0
  6 14  2  0  0  0
  7  8  1  0  0  0
  7 10  1  0  0  0
  7 15  2  0  0  0
  8 13  2  0  0  0
  9 10  1  0  0  0
  9 11  2  0  0  0
  9 14  1  0  0  0
 11 18  1  0  0  0
 12 13  1  0  0  0
 12 16  1  0  0  0
 12 17  2  0  0  0
 13 21  1  0  0  0
 14 19  1  0  0  0
 15 17  1  0  0  0
 15 22  1  0  0  0
 17 23  1  0  0  0
 18 20  1  0  0  0
 18 24  1  0  0  0
 18 25  1  0  0  0
 19 20  1  0  0  0
 19 26  1  0  0  0
 19 27  1  0  0  0
 20 28  1  0  0  0
 20 29  1  0  0  0
M  END
> <s_m_entry_id>
28589

> <s_m_entry_name>
dock_pv.750

> <s_m_Source_Path>
/home/csk/Desktop/cluster/DUD-E-result/rock1

> <s_m_Source_File>
dock_pv.maegz

> <i_m_Source_File_Index>
750

> <chembl_id>
CHEMBL2006493

> <chembl_pref_name>
None

> <i_lp_mmshare_version>
53161

> <r_lp_tautomer_probability>
0.99995

> <s_lp_Force_Field>
OPLS_2005

> <r_lp_Energy>
11.175998

> <b_lp_Chiralities_Consistent>
1

> <s_lp_Variant>
CHEMBL3231_lig1160-1

> <s_i_glide_gridfile>
glide-grid_2etr

> <i_i_glide_lignum>
1607

> <i_i_glide_rotatable_bonds>
1

> <r_i_docking_score>
-6.98807200081252

> <r_i_glide_ligand_efficiency>
-0.349403600040626

> <r_i_glide_ligand_efficiency_sa>
-0.948427286304878

> <r_i_glide_ligand_efficiency_ln>
-1.74888393976331

> <r_i_glide_gscore>
-6.98807200081252

> <r_i_glide_lipo>
-1.83388175065333

> <r_i_glide_hbond>
-0.0367243790788912

> <r_i_glide_metal>
0

> <r_i_glide_rewards>
-2.90984525747427

> <r_i_glide_evdw>
-28.8866386413574

> <r_i_glide_ecoul>
-4.84225606918335

> <r_i_glide_erotb>
0

> <r_i_glide_esite>
-0.036950271160658

> <r_i_glide_emodel>
-47.7075068021319

> <r_i_glide_energy>
-33.7288947105408

> <r_i_glide_einternal>
0.151328310370445

> <i_i_glide_confnum>
1

> <i_i_glide_posenum>
146

> <r_i_glide_eff_state_penalty>
0

> <s_user_duplicate_titles>
CHEMBL3231_lig1160

> <i_f3d_flags>
0

> <s_m_subgroup_title>
dock_pv

> <s_m_subgroupid>
dock_pv

> <b_m_subgroup_collapsed>
1

$$$$
CHEMBL3231_lig1447
                    3D
 Schrodinger Suite 2021-1.
 40 43  0  0  1  0            999 V2000
   54.0728   99.6412   31.7672 N   0  0  0  0  0  0
   52.5998  100.9398   30.8238 N   0  0  0  0  0  0
   53.5200  100.8558   31.8536 N   0  0  0  0  0  0
   49.8634   99.0103   25.2840 N   0  0  0  0  0  0
   50.0450  100.2445   24.7938 N   0  0  0  0  0  0
   51.8083   99.5800   28.9129 C   0  0  0  0  0  0
   52.6208   99.8030   30.1394 C   0  0  0  0  0  0
   51.0177  100.3684   26.7793 C   0  0  0  0  0  0
   50.4586   99.0850   26.5139 C   0  0  0  0  0  0
   51.6740  100.6206   27.9901 C   0  0  0  0  0  0
   53.5360   98.9367   30.7215 C   0  0  0  0  0  0
   51.2430   98.3286   28.6561 C   0  0  0  0  0  0
   50.5636   98.0690   27.4670 C   0  0  0  0  0  0
   54.7966   97.9592   33.4461 C   0  0  0  0  0  0
   55.1360   99.2313   32.6725 C   0  0  0  0  0  0
   50.7393  101.1031   25.6089 C   0  0  0  0  0  0
   53.9495   97.9741   34.5708 C   0  0  0  0  0  0
   55.3303   96.7416   33.0038 C   0  0  0  0  0  0
   53.6428   96.7734   35.2182 C   0  0  0  0  0  0
   54.1502   95.5603   34.7514 C   0  0  0  0  0  0
   55.0044   95.5486   33.6474 C   0  0  0  0  0  0
   53.3458   99.2677   35.1021 C   0  0  0  0  0  0
   53.7563   94.2592   35.4209 C   0  0  0  0  0  0
   49.6950  100.4903   23.8746 H   0  0  0  0  0  0
   52.1214  101.5852   28.1834 H   0  0  0  0  0  0
   53.8761   97.9395   30.4805 H   0  0  0  0  0  0
   51.3436   97.5348   29.3827 H   0  0  0  0  0  0
   50.1370   97.1032   27.2710 H   0  0  0  0  0  0
   55.3723  100.0421   33.3628 H   0  0  0  0  0  0
   56.0426   99.1017   32.0815 H   0  0  0  0  0  0
   50.9734  102.1082   25.3012 H   0  0  0  0  0  0
   55.9906   96.7135   32.1474 H   0  0  0  0  0  0
   52.9896   96.7774   36.0794 H   0  0  0  0  0  0
   55.4147   94.6169   33.2839 H   0  0  0  0  0  0
   54.1332   99.9743   35.3614 H   0  0  0  0  0  0
   52.7191   99.7337   34.3419 H   0  0  0  0  0  0
   52.7385   99.1041   35.9927 H   0  0  0  0  0  0
   54.5659   93.9028   36.0582 H   0  0  0  0  0  0
   52.8437   94.3624   36.0078 H   0  0  0  0  0  0
   53.5533   93.5025   34.6630 H   0  0  0  0  0  0
  1  3  1  0  0  0
  1 11  1  0  0  0
  1 15  1  0  0  0
  2  3  2  0  0  0
  2  7  1  0  0  0
  4  5  1  0  0  0
  4  9  2  0  0  0
  5 24  1  0  0  0
  5 16  1  0  0  0
  6 12  1  0  0  0
  6  7  1  0  0  0
  6 10  2  0  0  0
  7 11  2  0  0  0
  8 10  1  0  0  0
  8  9  1  0  0  0
  8 16  2  0  0  0
  9 13  1  0  0  0
 10 25  1  0  0  0
 11 26  1  0  0  0
 12 13  2  0  0  0
 12 27  1  0  0  0
 13 28  1  0  0  0
 14 15  1  0  0  0
 14 17  1  0  0  0
 14 18  2  0  0  0
 15 29  1  0  0  0
 15 30  1  0  0  0
 16 31  1  0  0  0
 17 19  2  0  0  0
 17 22  1  0  0  0
 18 21  1  0  0  0
 18 32  1  0  0  0
 19 20  1  0  0  0
 19 33  1  0  0  0
 20 21  2  0  0  0
 20 23  1  0  0  0
 21 34  1  0  0  0
 22 35  1  0  0  0
 22 36  1  0  0  0
 22 37  1  0  0  0
 23 38  1  0  0  0
 23 39  1  0  0  0
 23 40  1  0  0  0
M  END
> <s_m_entry_id>
28590

> <s_m_entry_name>
dock_pv.751

> <s_m_Source_Path>
/home/csk/Desktop/cluster/DUD-E-result/rock1

> <s_m_Source_File>
dock_pv.maegz

> <i_m_Source_File_Index>
751

> <chembl_id>
CHEMBL1984432

> <chembl_pref_name>
None

> <i_lp_mmshare_version>
53161

> <r_lp_tautomer_probability>
0.0196078431372549

> <s_lp_Force_Field>
OPLS_2005

> <r_lp_Energy>
27.030049

> <b_lp_Chiralities_Consistent>
1

> <s_lp_Variant>
CHEMBL3231_lig1447-2

> <s_i_glide_gridfile>
glide-grid_2etr

> <i_i_glide_lignum>
2034

> <i_i_glide_rotatable_bonds>
3

> <r_i_docking_score>
-6.98280157533188

> <r_i_glide_ligand_efficiency>
-0.30360006849269

> <r_i_glide_ligand_efficiency_sa>
-0.863398208964642

> <r_i_glide_ligand_efficiency_ln>
-1.68850473745929

> <r_i_glide_gscore>
-6.98280157533188

> <r_i_glide_lipo>
-2.375459958336

> <r_i_glide_hbond>
-0.216489506172016

> <r_i_glide_metal>
0

> <r_i_glide_rewards>
-2.56571990909091

> <r_i_glide_evdw>
-36.7908248901367

> <r_i_glide_ecoul>
-3.45683765411377

> <r_i_glide_erotb>
0.600666603326994

> <r_i_glide_esite>
-0.0677319124360412

> <r_i_glide_emodel>
-56.0232245869754

> <r_i_glide_energy>
-40.2476625442505

> <r_i_glide_einternal>
3.36425614356995

> <i_i_glide_confnum>
3

> <i_i_glide_posenum>
364

> <r_i_glide_eff_state_penalty>
0

> <s_user_duplicate_titles>
CHEMBL3231_lig1447

> <i_f3d_flags>
0

> <s_m_subgroup_title>
dock_pv

> <s_m_subgroupid>
dock_pv

> <b_m_subgroup_collapsed>
1

$$$$
CHEMBL3231_lig26
                    3D
 Schrodinger Suite 2021-1.
 27 29  0  0  1  0            999 V2000
   51.8263   99.1209   29.2516 C   0  0  0  0  0  0
   51.2425   98.1180   28.6420 N   0  0  0  0  0  0
   52.3728   98.9875   30.5889 C   0  0  0  0  0  0
   51.8686  100.2766   28.4864 N   0  0  0  0  0  0
   53.7054   98.9785   31.0042 C   0  0  0  0  0  0
   50.9063   98.6092   27.4155 C   0  0  0  0  0  0
   53.7717   98.8212   32.2990 N   0  0  0  0  0  0
   51.2444   99.9754   27.2889 C   0  0  0  0  0  0
   51.5818   98.8043   31.6112 N   0  0  0  0  0  0
   52.4435   98.7157   32.7005 O   0  0  0  0  0  0
   50.0427   98.6443   25.1779 N   0  0  0  0  0  0
   54.8430   99.0990   30.2658 N   0  0  0  0  0  0
   50.9532  100.6973   26.1237 C   0  0  0  0  0  0
   52.4403  101.5696   28.8543 C   0  0  0  0  0  0
   50.3067   97.9732   26.3245 C   0  0  0  0  0  0
   50.3440   99.9653   25.1014 C   0  0  0  0  0  0
   51.3347  102.5881   29.1804 C   0  0  0  0  0  0
   54.8301   99.2536   29.2701 H   0  0  0  0  0  0
   55.7578   99.0072   30.6965 H   0  0  0  0  0  0
   51.1931  101.7431   26.0084 H   0  0  0  0  0  0
   53.1119  101.4491   29.7080 H   0  0  0  0  0  0
   53.0486  101.9110   28.0155 H   0  0  0  0  0  0
   50.0441   96.9287   26.3642 H   0  0  0  0  0  0
   50.0867  100.4458   24.1680 H   0  0  0  0  0  0
   51.7654  103.5569   29.4396 H   0  0  0  0  0  0
   50.6679  102.7464   28.3285 H   0  0  0  0  0  0
   50.7260  102.2590   30.0247 H   0  0  0  0  0  0
  1  2  2  0  0  0
  1  3  1  0  0  0
  1  4  1  0  0  0
  2  6  1  0  0  0
  3  5  1  0  0  0
  3  9  2  0  0  0
  4  8  1  0  0  0
  4 14  1  0  0  0
  5  7  2  0  0  0
  5 12  1  0  0  0
  6 15  2  0  0  0
  6  8  1  0  0  0
  7 10  1  0  0  0
  8 13  2  0  0  0
  9 10  1  0  0  0
 11 15  1  0  0  0
 11 16  2  0  0  0
 12 18  1  0  0  0
 12 19  1  0  0  0
 13 16  1  0  0  0
 13 20  1  0  0  0
 14 17  1  0  0  0
 14 21  1  0  0  0
 14 22  1  0  0  0
 15 23  1  0  0  0
 16 24  1  0  0  0
 17 25  1  0  0  0
 17 26  1  0  0  0
 17 27  1  0  0  0
M  END
> <s_m_entry_id>
28591

> <s_m_entry_name>
dock_pv.752

> <s_m_Source_Path>
/home/csk/Desktop/cluster/DUD-E-result/rock1

> <s_m_Source_File>
dock_pv.maegz

> <i_m_Source_File_Index>
752

> <chembl_id>
CHEMBL189657

> <chembl_pref_name>
None

> <i_lp_mmshare_version>
53161

> <r_lp_tautomer_probability>
1

> <s_lp_Force_Field>
OPLS_2005

> <r_lp_Energy>
19.794253

> <b_lp_Chiralities_Consistent>
1

> <s_lp_Variant>
CHEMBL3231_lig26-1

> <s_i_glide_gridfile>
glide-grid_2etr

> <i_i_glide_lignum>
26

> <i_i_glide_rotatable_bonds>
2

> <r_i_docking_score>
-6.98183933110923

> <r_i_glide_ligand_efficiency>
-0.410696431241719

> <r_i_glide_ligand_efficiency_sa>
-1.05601617200356

> <r_i_glide_ligand_efficiency_ln>
-1.82140640356876

> <r_i_glide_gscore>
-6.98183933110923

> <r_i_glide_lipo>
-1.93249344864189

> <r_i_glide_hbond>
-0.106090819707556

> <r_i_glide_metal>
0

> <r_i_glide_rewards>
-3.16587040935969

> <r_i_glide_evdw>
-33.5735092163086

> <r_i_glide_ecoul>
-2.20070266723633

> <r_i_glide_erotb>
0.322255584633499

> <r_i_glide_esite>
-0.0908593771327116

> <r_i_glide_emodel>
-48.9979497832223

> <r_i_glide_energy>
-35.7742118835449

> <r_i_glide_einternal>
3.87256455421448

> <i_i_glide_confnum>
2

> <i_i_glide_posenum>
386

> <r_i_glide_eff_state_penalty>
0

> <s_user_duplicate_titles>
CHEMBL3231_lig26,314797

> <i_f3d_flags>
0

> <s_m_subgroup_title>
dock_pv

> <s_m_subgroupid>
dock_pv

> <b_m_subgroup_collapsed>
1

$$$$
CHEMBL3231_lig184
                    3D
 Schrodinger Suite 2021-1.
 48 51  0  0  1  0            999 V2000
   54.4839  100.8584   33.4982 C   0  0  0  0  0  0
   53.7031  100.4758   32.3393 C   0  0  0  0  0  0
   53.0659   99.3527   32.1275 N   0  0  0  0  0  0
   53.5169  101.6730   31.0611 S   0  0  0  0  0  0
   52.5959  100.4934   30.1360 C   0  0  0  0  0  0
   52.4658   99.3163   30.9128 C   0  0  0  0  0  0
   51.7632   98.2169   30.4097 C   0  0  0  0  0  0
   51.2430   98.3029   29.1191 C   0  0  0  0  0  0
   51.3788   99.4572   28.3372 C   0  0  0  0  0  0
   52.0449  100.5783   28.8482 C   0  0  0  0  0  0
   50.8253   99.4760   26.9494 C   0  0  0  0  0  0
   50.5048   98.3773   26.1307 C   0  0  0  0  0  0
   50.0430   98.7163   24.9506 N   0  0  0  0  0  0
   50.0423  100.0488   24.9683 N   0  0  0  0  0  0
   50.5086  100.5662   26.1473 C   0  0  0  0  0  0
   55.4287   99.9789   33.9499 N   0  0  0  0  0  0
   54.2593  101.9409   34.0483 O   0  0  0  0  0  0
   55.8826   98.7803   33.2095 C   0  0  0  0  0  0
   55.2292   97.4356   33.5419 C   0  0  0  0  0  0
   55.6632   96.3066   32.8406 C   0  0  0  0  0  0
   55.0993   95.0420   33.0705 C   0  0  0  0  0  0
   54.0849   94.9241   34.0202 C   0  0  0  0  0  0
   53.6429   96.0400   34.7288 C   0  0  0  0  0  0
   54.2050   97.2928   34.4857 C   0  0  0  0  0  0
   55.4775   93.8900   32.4108 O   0  0  0  0  0  0
   56.6185   93.9275   31.5578 C   0  0  0  0  0  0
   56.1888  100.2533   35.1845 C   0  0  0  0  0  0
   55.3797  100.1243   36.4872 C   0  0  0  0  0  0
   51.6566   97.3111   30.9913 H   0  0  0  0  0  0
   50.7197   97.4442   28.7251 H   0  0  0  0  0  0
   52.1652  101.4733   28.2565 H   0  0  0  0  0  0
   50.6224   97.3373   26.3978 H   0  0  0  0  0  0
   49.7158  100.5902   24.1778 H   0  0  0  0  0  0
   50.5648  101.6331   26.3057 H   0  0  0  0  0  0
   56.9610   98.6695   33.3372 H   0  0  0  0  0  0
   55.7556   98.9440   32.1381 H   0  0  0  0  0  0
   56.4430   96.4284   32.1038 H   0  0  0  0  0  0
   53.6375   93.9585   34.2055 H   0  0  0  0  0  0
   52.8457   95.9330   35.4507 H   0  0  0  0  0  0
   53.8270   98.1502   35.0201 H   0  0  0  0  0  0
   56.8457   92.9186   31.2144 H   0  0  0  0  0  0
   56.4393   94.5459   30.6760 H   0  0  0  0  0  0
   57.5031   94.2967   32.0802 H   0  0  0  0  0  0
   57.0501   99.5863   35.2515 H   0  0  0  0  0  0
   56.6158  101.2570   35.1248 H   0  0  0  0  0  0
   55.9983  100.4049   37.3400 H   0  0  0  0  0  0
   54.5058  100.7757   36.4928 H   0  0  0  0  0  0
   55.0545   99.0989   36.6582 H   0  0  0  0  0  0
  1 16  1  0  0  0
  1 17  2  0  0  0
  1  2  1  0  0  0
  2  4  1  0  0  0
  2  3  2  0  0  0
  3  6  1  0  0  0
  4  5  1  0  0  0
  5 10  1  0  0  0
  5  6  2  0  0  0
  6  7  1  0  0  0
  7  8  2  0  0  0
  7 29  1  0  0  0
  8  9  1  0  0  0
  8 30  1  0  0  0
  9 10  2  0  0  0
  9 11  1  0  0  0
 10 31  1  0  0  0
 11 15  2  0  0  0
 11 12  1  0  0  0
 12 32  1  0  0  0
 12 13  2  0  0  0
 13 14  1  0  0  0
 14 33  1  0  0  0
 14 15  1  0  0  0
 15 34  1  0  0  0
 16 18  1  0  0  0
 16 27  1  0  0  0
 18 19  1  0  0  0
 18 35  1  0  0  0
 18 36  1  0  0  0
 19 20  2  0  0  0
 19 24  1  0  0  0
 20 21  1  0  0  0
 20 37  1  0  0  0
 21 22  2  0  0  0
 21 25  1  0  0  0
 22 23  1  0  0  0
 22 38  1  0  0  0
 23 24  2  0  0  0
 23 39  1  0  0  0
 24 40  1  0  0  0
 25 26  1  0  0  0
 26 41  1  0  0  0
 26 42  1  0  0  0
 26 43  1  0  0  0
 27 28  1  0  0  0
 27 44  1  0  0  0
 27 45  1  0  0  0
 28 46  1  0  0  0
 28 47  1  0  0  0
 28 48  1  0  0  0
M  END
> <s_m_entry_id>
28592

> <s_m_entry_name>
dock_pv.753

> <s_m_Source_Path>
/home/csk/Desktop/cluster/DUD-E-result/rock1

> <s_m_Source_File>
dock_pv.maegz

> <i_m_Source_File_Index>
753

> <chembl_id>
CHEMBL1081196

> <chembl_pref_name>
None

> <i_lp_mmshare_version>
53161

> <r_lp_tautomer_probability>
0.5

> <s_lp_Force_Field>
OPLS_2005

> <r_lp_Energy>
32.154725

> <b_lp_Chiralities_Consistent>
1

> <s_lp_Variant>
CHEMBL3231_lig184-1

> <s_i_glide_gridfile>
glide-grid_2etr

> <i_i_glide_lignum>
312

> <i_i_glide_rotatable_bonds>
7

> <r_i_docking_score>
-6.97675651203675

> <r_i_glide_ligand_efficiency>
-0.249169875429884

> <r_i_glide_ligand_efficiency_sa>
-0.756626495013607

> <r_i_glide_ligand_efficiency_ln>
-1.61044024945041

> <r_i_glide_gscore>
-6.97675651203675

> <r_i_glide_lipo>
-2.29438726310197

> <r_i_glide_hbond>
-0.42916936554822

> <r_i_glide_metal>
0

> <r_i_glide_rewards>
-1.71483662209158

> <r_i_glide_evdw>
-46.3862380981445

> <r_i_glide_ecoul>
-5.39289617538452

> <r_i_glide_erotb>
0.633781711340067

> <r_i_glide_esite>
-0.0438986414201566

> <r_i_glide_emodel>
-68.9011618234858

> <r_i_glide_energy>
-51.7791342735291

> <r_i_glide_einternal>
11.0048589706421

> <i_i_glide_confnum>
25

> <i_i_glide_posenum>
142

> <r_i_glide_eff_state_penalty>
0

> <s_user_duplicate_titles>
CHEMBL3231_lig184,612103

> <i_f3d_flags>
0

> <s_m_subgroup_title>
dock_pv

> <s_m_subgroupid>
dock_pv

> <b_m_subgroup_collapsed>
1

$$$$
CHEMBL3231_lig1383
                    3D
 Schrodinger Suite 2021-1.
 47 50  0  0  1  0            999 V2000
   52.3868  104.2999   31.9069 O   0  0  0  0  0  0
   55.2444  102.6432   34.5965 O   0  0  0  0  0  0
   55.6431   95.1699   31.6643 O   0  0  0  0  0  0
   53.6463  100.3909   31.5184 N   0  0  0  0  0  0
   54.3554  104.5856   33.8632 N   0  0  0  0  0  0
   50.0430   98.3045   25.2105 N   0  0  0  0  0  0
   55.0707  105.3192   34.8147 N   0  0  0  0  0  0
   52.7659  100.9299   30.5409 C   0  0  0  0  0  0
   52.3796  102.2847   30.6528 C   0  0  0  0  0  0
   52.8529  103.1672   31.7777 C   0  0  0  0  0  0
   53.8622  102.5436   32.6790 C   0  0  0  0  0  0
   54.0604   99.0332   31.5486 C   0  0  0  0  0  0
   54.1690  101.2323   32.4911 C   0  0  0  0  0  0
   52.2538  100.1592   29.4867 C   0  0  0  0  0  0
   51.3858  100.6939   28.5287 C   0  0  0  0  0  0
   51.4988  102.8142   29.7000 C   0  0  0  0  0  0
   53.8201   98.2009   32.6674 C   0  0  0  0  0  0
   54.5453  103.2470   33.7716 C   0  0  0  0  0  0
   51.0061  102.0319   28.6626 C   0  0  0  0  0  0
   54.7720   98.5066   30.4620 C   0  0  0  0  0  0
   50.9027   99.8670   27.3854 C   0  0  0  0  0  0
   54.3263   96.8943   32.6862 C   0  0  0  0  0  0
   55.0620   96.4058   31.6110 C   0  0  0  0  0  0
   55.2426   97.1932   30.4814 C   0  0  0  0  0  0
   50.5846  100.4556   26.1494 C   0  0  0  0  0  0
   50.7763   98.4727   27.4968 C   0  0  0  0  0  0
   53.0033   98.6753   33.8647 C   0  0  0  0  0  0
   50.1542   99.6497   25.0981 C   0  0  0  0  0  0
   50.3603   97.7325   26.3931 C   0  0  0  0  0  0
   56.4994   95.1796   31.2259 H   0  0  0  0  0  0
   54.0621  105.1324   33.0589 H   0  0  0  0  0  0
   54.4525  105.4530   35.6053 H   0  0  0  0  0  0
   55.8188  104.7047   35.1219 H   0  0  0  0  0  0
   54.9146  100.7482   33.1138 H   0  0  0  0  0  0
   52.5390   99.1237   29.3984 H   0  0  0  0  0  0
   51.1898  103.8489   29.7439 H   0  0  0  0  0  0
   50.3227  102.4859   27.9582 H   0  0  0  0  0  0
   54.9893   99.1323   29.6085 H   0  0  0  0  0  0
   54.1727   96.2577   33.5463 H   0  0  0  0  0  0
   55.7945   96.8085   29.6385 H   0  0  0  0  0  0
   50.6730  101.5212   25.9918 H   0  0  0  0  0  0
   50.9992   97.9507   28.4166 H   0  0  0  0  0  0
   53.6018   99.3109   34.5153 H   0  0  0  0  0  0
   52.1349   99.2479   33.5339 H   0  0  0  0  0  0
   52.6258   97.8385   34.4520 H   0  0  0  0  0  0
   49.8973  100.0771   24.1399 H   0  0  0  0  0  0
   50.2736   96.6570   26.4302 H   0  0  0  0  0  0
  1 10  2  0  0  0
  2 18  2  0  0  0
  3 23  1  0  0  0
  3 30  1  0  0  0
  4  8  1  0  0  0
  4 12  1  0  0  0
  4 13  1  0  0  0
  5  7  1  0  0  0
  5 18  1  0  0  0
  5 31  1  0  0  0
  6 28  2  0  0  0
  6 29  1  0  0  0
  7 32  1  0  0  0
  7 33  1  0  0  0
  8  9  1  0  0  0
  8 14  2  0  0  0
  9 10  1  0  0  0
  9 16  2  0  0  0
 10 11  1  0  0  0
 11 13  2  0  0  0
 11 18  1  0  0  0
 12 17  1  0  0  0
 12 20  2  0  0  0
 13 34  1  0  0  0
 14 15  1  0  0  0
 14 35  1  0  0  0
 15 19  2  0  0  0
 15 21  1  0  0  0
 16 19  1  0  0  0
 16 36  1  0  0  0
 17 22  2  0  0  0
 17 27  1  0  0  0
 19 37  1  0  0  0
 20 24  1  0  0  0
 20 38  1  0  0  0
 21 25  2  0  0  0
 21 26  1  0  0  0
 22 23  1  0  0  0
 22 39  1  0  0  0
 23 24  2  0  0  0
 24 40  1  0  0  0
 25 28  1  0  0  0
 25 41  1  0  0  0
 26 29  2  0  0  0
 26 42  1  0  0  0
 27 43  1  0  0  0
 27 44  1  0  0  0
 27 45  1  0  0  0
 28 46  1  0  0  0
 29 47  1  0  0  0
M  END
> <s_m_entry_id>
28593

> <s_m_entry_name>
dock_pv.754

> <s_m_Source_Path>
/home/csk/Desktop/cluster/DUD-E-result/rock1

> <s_m_Source_File>
dock_pv.maegz

> <i_m_Source_File_Index>
754

> <chembl_id>
CHEMBL2000894

> <chembl_pref_name>
None

> <i_lp_mmshare_version>
53161

> <r_lp_tautomer_probability>
1

> <s_lp_Force_Field>
OPLS_2005

> <r_lp_Energy>
35.018155

> <b_lp_Chiralities_Consistent>
1

> <s_lp_Variant>
CHEMBL3231_lig1383-1

> <s_i_glide_gridfile>
glide-grid_2etr

> <i_i_glide_lignum>
1938

> <i_i_glide_rotatable_bonds>
5

> <r_i_docking_score>
-6.97639064990033

> <r_i_glide_ligand_efficiency>
-0.240565194824149

> <r_i_glide_ligand_efficiency_sa>
-0.739092494903047

> <r_i_glide_ligand_efficiency_ln>
-1.59741655282416

> <r_i_glide_gscore>
-6.97639064990033

> <r_i_glide_lipo>
-2.1439461428077

> <r_i_glide_hbond>
-0.235758587304228

> <r_i_glide_metal>
0

> <r_i_glide_rewards>
-2.18348329204259

> <r_i_glide_evdw>
-45.9232978820801

> <r_i_glide_ecoul>
-2.91263437271118

> <r_i_glide_erotb>
0.3910659099641

> <r_i_glide_esite>
-0.0712084876992356

> <r_i_glide_emodel>
-66.2218013756505

> <r_i_glide_energy>
-48.8359322547913

> <r_i_glide_einternal>
5.27271747589111

> <i_i_glide_confnum>
3

> <i_i_glide_posenum>
48

> <r_i_glide_eff_state_penalty>
0

> <s_user_duplicate_titles>
CHEMBL3231_lig1383

> <i_f3d_flags>
0

> <s_m_subgroup_title>
dock_pv

> <s_m_subgroupid>
dock_pv

> <b_m_subgroup_collapsed>
1

$$$$
CHEMBL3231_lig465
                    3D
 Schrodinger Suite 2021-1.
 51 55  0  0  1  0            999 V2000
   53.0905  100.3617   33.3019 N   0  0  0  0  0  0
   52.5353   99.0037   33.4038 C   0  0  0  0  0  0
   53.0106   97.9046   32.4244 C   0  0  0  0  0  0
   54.4869  100.3863   33.7608 C   0  0  0  0  0  0
   54.5258   97.6903   32.2917 C   0  0  0  0  0  0
   55.5849   99.8634   32.8111 C   0  0  0  0  0  0
   55.2429   98.8618   31.8119 N   0  0  1  0  0  0
   51.1586   98.4187   27.7829 C   0  0  0  0  0  0
   51.6274   99.1702   28.8086 N   0  0  0  0  0  0
   51.4871  100.5279   28.7841 C   0  0  0  0  0  0
   50.8348  101.1883   27.7305 C   0  0  0  0  0  0
   50.1115   98.3900   25.5228 N   0  0  0  0  0  0
   50.5661   98.9985   26.6598 C   0  0  0  0  0  0
   50.3786  100.4144   26.6518 C   0  0  0  0  0  0
   49.6905  100.6448   25.4381 C   0  0  0  0  0  0
   49.6429   99.4281   24.8113 N   0  0  0  0  0  0
   52.0592  101.2789   29.9494 C   0  0  0  0  0  0
   52.2430  100.5878   31.1064 N   0  0  0  0  0  0
   52.7859  101.1983   32.1998 C   0  0  0  0  0  0
   53.0802  102.5865   32.1417 C   0  0  0  0  0  0
   52.9243  103.2785   30.9768 N   0  0  0  0  0  0
   52.4309  102.6254   29.8945 C   0  0  0  0  0  0
   53.4759  103.3651   33.2465 N   0  0  0  0  0  0
   52.9316  103.2969   34.6067 C   0  0  0  0  0  0
   53.8321  104.1478   35.4947 C   0  0  0  0  0  0
   54.2696  105.2488   34.5527 C   0  0  0  0  0  0
   54.3682  104.5266   33.2110 C   0  0  0  0  0  0
   52.5420   98.6780   34.4444 H   0  0  0  0  0  0
   51.4717   99.1212   33.2040 H   0  0  0  0  0  0
   52.6067   96.9675   32.8083 H   0  0  0  0  0  0
   52.5350   97.9805   31.4461 H   0  0  0  0  0  0
   54.7564  101.4136   33.9872 H   0  0  0  0  0  0
   54.5618   99.9139   34.7409 H   0  0  0  0  0  0
   54.9519   97.3504   33.2385 H   0  0  0  0  0  0
   54.6898   96.8948   31.5636 H   0  0  0  0  0  0
   56.0449  100.7040   32.2943 H   0  0  0  0  0  0
   56.3771   99.4223   33.4180 H   0  0  0  0  0  0
   56.1370   98.5555   31.4074 H   0  0  0  0  0  0
   51.2446   97.3495   27.8699 H   0  0  0  0  0  0
   50.6903  102.2559   27.7334 H   0  0  0  0  0  0
   49.2313   99.3096   23.8878 H   0  0  0  0  0  0
   49.2444  101.5029   24.9651 H   0  0  0  0  0  0
   52.3432  103.2064   28.9894 H   0  0  0  0  0  0
   51.8996  103.6468   34.6195 H   0  0  0  0  0  0
   52.9245  102.2724   34.9735 H   0  0  0  0  0  0
   53.3061  104.5311   36.3702 H   0  0  0  0  0  0
   54.6746  103.5573   35.8571 H   0  0  0  0  0  0
   55.2173  105.6997   34.8455 H   0  0  0  0  0  0
   53.5304  106.0491   34.4957 H   0  0  0  0  0  0
   55.3957  104.2275   33.0006 H   0  0  0  0  0  0
   54.0425  105.2150   32.4300 H   0  0  0  0  0  0
  1  2  1  0  0  0
  1  4  1  0  0  0
  1 19  1  0  0  0
  2  3  1  0  0  0
  2 28  1  0  0  0
  2 29  1  0  0  0
  3  5  1  0  0  0
  3 30  1  0  0  0
  3 31  1  0  0  0
  4  6  1  0  0  0
  4 32  1  0  0  0
  4 33  1  0  0  0
  5  7  1  0  0  0
  5 34  1  0  0  0
  5 35  1  0  0  0
  6  7  1  0  0  0
  6 36  1  0  0  0
  6 37  1  0  0  0
  7 38  1  0  0  0
  8 39  1  0  0  0
  8  9  2  0  0  0
  8 13  1  0  0  0
  9 10  1  0  0  0
 10 17  1  0  0  0
 10 11  2  0  0  0
 11 40  1  0  0  0
 11 14  1  0  0  0
 12 16  1  0  0  0
 12 13  2  0  0  0
 13 14  1  0  0  0
 14 15  2  0  0  0
 15 42  1  0  0  0
 15 16  1  0  0  0
 16 41  1  0  0  0
 17 18  2  0  0  0
 17 22  1  0  0  0
 18 19  1  0  0  0
 19 20  2  0  0  0
 20 21  1  0  0  0
 20 23  1  0  0  0
 21 22  2  0  0  0
 22 43  1  0  0  0
 23 24  1  0  0  0
 23 27  1  0  0  0
 24 25  1  0  0  0
 24 44  1  0  0  0
 24 45  1  0  0  0
 25 26  1  0  0  0
 25 46  1  0  0  0
 25 47  1  0  0  0
 26 27  1  0  0  0
 26 48  1  0  0  0
 26 49  1  0  0  0
 27 50  1  0  0  0
 27 51  1  0  0  0
M  END
> <s_m_entry_id>
28594

> <s_m_entry_name>
dock_pv.755

> <s_m_Source_Path>
/home/csk/Desktop/cluster/DUD-E-result/rock1

> <s_m_Source_File>
dock_pv.maegz

> <i_m_Source_File_Index>
755

> <chembl_id>
CHEMBL3238166

> <chembl_pref_name>
None

> <i_lp_mmshare_version>
53161

> <r_lp_tautomer_probability>
0.0448800538560646

> <s_lp_Force_Field>
OPLS_2005

> <r_lp_Energy>
87.026349

> <b_lp_Chiralities_Consistent>
1

> <s_lp_Variant>
CHEMBL3231_lig465-2

> <s_i_glide_gridfile>
glide-grid_2etr

> <i_i_glide_lignum>
655

> <i_i_glide_rotatable_bonds>
3

> <r_i_docking_score>
-6.97553532935773

> <r_i_glide_ligand_efficiency>
-0.258353160346583

> <r_i_glide_ligand_efficiency_sa>
-0.775059480188258

> <r_i_glide_ligand_efficiency_ln>
-1.62378962398678

> <r_i_glide_gscore>
-6.97553532935773

> <r_i_glide_lipo>
-1.81295343215704

> <r_i_glide_hbond>
-0.456

> <r_i_glide_metal>
0

> <r_i_glide_rewards>
-2.16088853030303

> <r_i_glide_evdw>
-41.127613067627

> <r_i_glide_ecoul>
-5.97335767745972

> <r_i_glide_erotb>
0.434225995184281

> <r_i_glide_esite>
-0.0275350570816311

> <r_i_glide_emodel>
-64.9168210865993

> <r_i_glide_energy>
-47.1009707450867

> <r_i_glide_einternal>
3.87328720092773

> <i_i_glide_confnum>
310

> <i_i_glide_posenum>
312

> <r_i_glide_eff_state_penalty>
0

> <s_user_duplicate_titles>
CHEMBL3231_lig465

> <i_f3d_flags>
0

> <s_m_subgroup_title>
dock_pv

> <s_m_subgroupid>
dock_pv

> <b_m_subgroup_collapsed>
1

$$$$
CHEMBL3231_lig1989
                    3D
 Schrodinger Suite 2021-1.
 50 53  0  0  1  0            999 V2000
   52.0430  104.3029   31.7881 O   0  0  0  0  0  0
   53.6270  104.6207   33.9485 O   0  0  0  0  0  0
   55.2450  103.0565   34.2963 O   0  0  0  0  0  0
   55.6429   95.2856   31.6622 O   0  0  0  0  0  0
   53.5078  100.4553   31.5207 N   0  0  0  0  0  0
   50.0430   98.0692   25.2110 N   0  0  0  0  0  0
   52.6018  100.9225   30.5256 C   0  0  0  0  0  0
   52.1451  102.2565   30.5986 C   0  0  0  0  0  0
   52.5566  103.1871   31.7042 C   0  0  0  0  0  0
   53.5868  102.6392   32.6187 C   0  0  0  0  0  0
   53.9854   99.1205   31.5724 C   0  0  0  0  0  0
   53.9858  101.3495   32.4737 C   0  0  0  0  0  0
   52.1379  100.1048   29.4834 C   0  0  0  0  0  0
   51.2670  100.5772   28.4932 C   0  0  0  0  0  0
   51.2577  102.7234   29.6189 C   0  0  0  0  0  0
   53.7862   98.2882   32.6992 C   0  0  0  0  0  0
   54.2405  103.4348   33.6879 C   0  0  0  0  0  0
   50.8246  101.8994   28.5899 C   0  0  0  0  0  0
   54.6939   98.6084   30.4757 C   0  0  0  0  0  0
   50.8410   99.7051   27.3596 C   0  0  0  0  0  0
   54.3239   96.9931   32.7102 C   0  0  0  0  0  0
   55.0403   96.5140   31.6173 C   0  0  0  0  0  0
   55.1805   97.3032   30.4840 C   0  0  0  0  0  0
   50.4532  100.2576   26.1257 C   0  0  0  0  0  0
   50.8251   98.3035   27.4775 C   0  0  0  0  0  0
   52.9706   98.7414   33.9062 C   0  0  0  0  0  0
   50.0504   99.4171   25.0916 C   0  0  0  0  0  0
   50.4425   97.5289   26.3845 C   0  0  0  0  0  0
   54.1751  105.5985   34.8231 C   0  0  0  0  0  0
   55.2446  106.4310   34.1020 C   0  0  0  0  0  0
   56.4949   95.3020   31.2113 H   0  0  0  0  0  0
   54.7659  100.9345   33.1059 H   0  0  0  0  0  0
   52.4697   99.0831   29.4246 H   0  0  0  0  0  0
   50.8977  103.7413   29.6304 H   0  0  0  0  0  0
   50.1378  102.3104   27.8641 H   0  0  0  0  0  0
   54.8788   99.2298   29.6110 H   0  0  0  0  0  0
   54.2029   96.3566   33.5747 H   0  0  0  0  0  0
   55.7129   96.9263   29.6243 H   0  0  0  0  0  0
   50.4656  101.3226   25.9532 H   0  0  0  0  0  0
   51.1025   97.8061   28.3937 H   0  0  0  0  0  0
   52.6844   97.9036   34.5427 H   0  0  0  0  0  0
   53.5335   99.4554   34.5079 H   0  0  0  0  0  0
   52.0484   99.2253   33.5785 H   0  0  0  0  0  0
   49.7414   99.8208   24.1374 H   0  0  0  0  0  0
   50.4427   96.4501   26.4328 H   0  0  0  0  0  0
   54.5808  105.1338   35.7233 H   0  0  0  0  0  0
   53.3666  106.2550   35.1456 H   0  0  0  0  0  0
   55.6716  107.1886   34.7591 H   0  0  0  0  0  0
   54.8431  106.9438   33.2292 H   0  0  0  0  0  0
   56.0430  105.7879   33.7411 H   0  0  0  0  0  0
  1  9  2  0  0  0
  2 17  1  0  0  0
  2 29  1  0  0  0
  3 17  2  0  0  0
  4 22  1  0  0  0
  4 31  1  0  0  0
  5  7  1  0  0  0
  5 11  1  0  0  0
  5 12  1  0  0  0
  6 27  2  0  0  0
  6 28  1  0  0  0
  7  8  1  0  0  0
  7 13  2  0  0  0
  8  9  1  0  0  0
  8 15  2  0  0  0
  9 10  1  0  0  0
 10 12  2  0  0  0
 10 17  1  0  0  0
 11 16  1  0  0  0
 11 19  2  0  0  0
 12 32  1  0  0  0
 13 14  1  0  0  0
 13 33  1  0  0  0
 14 18  2  0  0  0
 14 20  1  0  0  0
 15 18  1  0  0  0
 15 34  1  0  0  0
 16 21  2  0  0  0
 16 26  1  0  0  0
 18 35  1  0  0  0
 19 23  1  0  0  0
 19 36  1  0  0  0
 20 24  2  0  0  0
 20 25  1  0  0  0
 21 22  1  0  0  0
 21 37  1  0  0  0
 22 23  2  0  0  0
 23 38  1  0  0  0
 24 27  1  0  0  0
 24 39  1  0  0  0
 25 28  2  0  0  0
 25 40  1  0  0  0
 26 41  1  0  0  0
 26 42  1  0  0  0
 26 43  1  0  0  0
 27 44  1  0  0  0
 28 45  1  0  0  0
 29 30  1  0  0  0
 29 46  1  0  0  0
 29 47  1  0  0  0
 30 48  1  0  0  0
 30 49  1  0  0  0
 30 50  1  0  0  0
M  END
> <s_m_entry_id>
28595

> <s_m_entry_name>
dock_pv.756

> <s_m_Source_Path>
/home/csk/Desktop/cluster/DUD-E-result/rock1

> <s_m_Source_File>
dock_pv.maegz

> <i_m_Source_File_Index>
756

> <chembl_id>
CHEMBL1996780

> <chembl_pref_name>
None

> <i_lp_mmshare_version>
53161

> <r_lp_tautomer_probability>
1

> <s_lp_Force_Field>
OPLS_2005

> <r_lp_Energy>
31.36502

> <b_lp_Chiralities_Consistent>
1

> <s_lp_Variant>
CHEMBL3231_lig1989-1

> <s_i_glide_gridfile>
glide-grid_2etr

> <i_i_glide_lignum>
2894

> <i_i_glide_rotatable_bonds>
6

> <r_i_docking_score>
-6.97450493318875

> <r_i_glide_ligand_efficiency>
-0.232483497772958

> <r_i_glide_ligand_efficiency_sa>
-0.722380280559002

> <r_i_glide_ligand_efficiency_ln>
-1.58468351413832

> <r_i_glide_gscore>
-6.97450493318875

> <r_i_glide_lipo>
-2.17180571689851

> <r_i_glide_hbond>
-0.404596410718229

> <r_i_glide_metal>
0

> <r_i_glide_rewards>
-2.09401774658117

> <r_i_glide_evdw>
-45.2720718383789

> <r_i_glide_ecoul>
-3.35384821891785

> <r_i_glide_erotb>
0.489060705149502

> <r_i_glide_esite>
-0.0264649393837218

> <r_i_glide_emodel>
-66.8176841384498

> <r_i_glide_energy>
-48.6259200572968

> <r_i_glide_einternal>
3.2728910446167

> <i_i_glide_confnum>
37

> <i_i_glide_posenum>
183

> <r_i_glide_eff_state_penalty>
0

> <s_user_duplicate_titles>
CHEMBL3231_lig1989

> <i_f3d_flags>
0

> <s_m_subgroup_title>
dock_pv

> <s_m_subgroupid>
dock_pv

> <b_m_subgroup_collapsed>
1

$$$$
CHEMBL3231_lig1602
                    3D
 Schrodinger Suite 2021-1.
 39 42  0  0  1  0            999 V2000
   52.0504  101.0889   29.5221 S   0  0  0  0  0  0
   51.6113   97.5066   30.8114 O   0  0  0  0  0  0
   50.6662  103.0195   34.3218 O   0  0  0  0  0  0
   51.6431  103.8986   31.2109 O   0  0  0  0  0  0
   50.5182   98.6698   25.9903 O   0  0  0  0  0  0
   52.3180   99.5776   31.5752 N   0  0  0  0  0  0
   53.2418   97.9148   32.9994 N   0  0  0  0  0  0
   53.7166  103.9026   32.0535 N   0  0  0  0  0  0
   54.1344   99.4634   36.0640 N   0  0  0  0  0  0
   52.2978  100.9175   31.2613 C   0  0  0  0  0  0
   52.4797  101.9158   32.1700 C   0  0  0  0  0  0
   52.5613  101.5905   33.6752 C   0  0  2  0  0  0
   52.8402   99.2281   32.8298 C   0  0  0  0  0  0
   53.0628  100.1429   33.8111 C   0  0  0  0  0  0
   51.8171   98.7119   30.6395 C   0  0  0  0  0  0
   51.5300   99.4136   29.4102 C   0  0  0  0  0  0
   51.2099  101.7717   34.3597 C   0  0  0  0  0  0
   52.5632  103.3044   31.7675 C   0  0  0  0  0  0
   50.9365   98.7959   28.3660 C   0  0  0  0  0  0
   53.6770   99.7728   35.0482 C   0  0  0  0  0  0
   50.3701  100.9424   35.0931 C   0  0  0  0  0  0
   50.5179   99.4147   27.1277 C   0  0  0  0  0  0
   49.5024  102.9814   35.0202 C   0  0  0  0  0  0
   49.2809  101.7074   35.5056 C   0  0  0  0  0  0
   50.0409  100.6856   26.8301 C   0  0  0  0  0  0
   50.0431   99.4594   24.9938 C   0  0  0  0  0  0
   49.6905  100.6960   25.4850 C   0  0  0  0  0  0
   53.7393   97.6141   33.8258 H   0  0  0  0  0  0
   53.0211   97.2137   32.3015 H   0  0  0  0  0  0
   54.4879  103.3782   32.4360 H   0  0  0  0  0  0
   53.8529  104.8749   31.8067 H   0  0  0  0  0  0
   53.2728  102.2395   34.1895 H   0  0  0  0  0  0
   50.7183   97.7367   28.4085 H   0  0  0  0  0  0
   50.5469   99.9032   35.3114 H   0  0  0  0  0  0
   48.9556  103.9092   35.0985 H   0  0  0  0  0  0
   48.4430  101.3811   36.1009 H   0  0  0  0  0  0
   49.9298  101.5012   27.5281 H   0  0  0  0  0  0
   49.9905   99.0283   24.0112 H   0  0  0  0  0  0
   49.2428  101.5029   24.9306 H   0  0  0  0  0  0
  1 10  1  0  0  0
  1 16  1  0  0  0
  2 15  2  0  0  0
  3 17  1  0  0  0
  3 23  1  0  0  0
  4 18  2  0  0  0
  5 22  1  0  0  0
  5 26  1  0  0  0
  6 10  1  0  0  0
  6 13  1  0  0  0
  6 15  1  0  0  0
  7 13  1  0  0  0
  7 28  1  0  0  0
  7 29  1  0  0  0
  8 18  1  0  0  0
  8 30  1  0  0  0
  8 31  1  0  0  0
  9 20  3  0  0  0
 10 11  2  0  0  0
 11 12  1  0  0  0
 11 18  1  0  0  0
 12 14  1  0  0  0
 12 17  1  0  0  0
 12 32  1  0  0  0
 13 14  2  0  0  0
 14 20  1  0  0  0
 15 16  1  0  0  0
 16 19  2  3  0  0
 17 21  2  0  0  0
 19 22  1  0  0  0
 19 33  1  0  0  0
 21 24  1  0  0  0
 21 34  1  0  0  0
 22 25  2  0  0  0
 23 24  2  0  0  0
 23 35  1  0  0  0
 24 36  1  0  0  0
 25 27  1  0  0  0
 25 37  1  0  0  0
 26 27  2  0  0  0
 26 38  1  0  0  0
 27 39  1  0  0  0
M  END
> <s_m_entry_id>
28596

> <s_m_entry_name>
dock_pv.757

> <s_m_Source_Path>
/home/csk/Desktop/cluster/DUD-E-result/rock1

> <s_m_Source_File>
dock_pv.maegz

> <i_m_Source_File_Index>
757

> <chembl_id>
CHEMBL1989805

> <chembl_pref_name>
None

> <i_lp_mmshare_version>
53161

> <r_lp_tautomer_probability>
0.99999989980001

> <s_lp_Force_Field>
OPLS_2005

> <r_lp_Energy>
20.219507

> <b_lp_Chiralities_Consistent>
1

> <s_lp_Variant>
CHEMBL3231_lig1602-2

> <s_i_glide_gridfile>
glide-grid_2etr

> <i_i_glide_lignum>
2274

> <i_i_glide_rotatable_bonds>
3

> <r_i_docking_score>
-6.97403703963158

> <r_i_glide_ligand_efficiency>
-0.258297668134503

> <r_i_glide_ligand_efficiency_sa>
-0.774893003552202

> <r_i_glide_ligand_efficiency_ln>
-1.62344084683977

> <r_i_glide_gscore>
-6.97403703963158

> <r_i_glide_lipo>
-2.78287199759872

> <r_i_glide_hbond>
-0.173777834265823

> <r_i_glide_metal>
0

> <r_i_glide_rewards>
-1.38168541150364

> <r_i_glide_evdw>
-39.1975021362305

> <r_i_glide_ecoul>
-4.54074621200562

> <r_i_glide_erotb>
0.134080929267619

> <r_i_glide_esite>
-0.128795686918649

> <r_i_glide_emodel>
-59.6584315637525

> <r_i_glide_energy>
-43.7382483482361

> <r_i_glide_einternal>
4.65191555023193

> <i_i_glide_confnum>
2

> <i_i_glide_posenum>
5

> <r_i_glide_eff_state_penalty>
0

> <s_user_duplicate_titles>
CHEMBL3231_lig1602

> <i_f3d_flags>
0

> <s_m_subgroup_title>
dock_pv

> <s_m_subgroupid>
dock_pv

> <b_m_subgroup_collapsed>
1

$$$$
CHEMBL3231_lig306
                    3D
 Schrodinger Suite 2021-1.
 40 43  0  0  1  0            999 V2000
   53.2465   98.0640   33.2025 C   0  0  0  0  0  0
   52.9886   98.7149   31.9985 C   0  0  0  0  0  0
   52.0669  100.6380   33.1375 C   0  0  0  0  0  0
   51.7809   99.8199   29.4825 C   0  0  0  0  0  0
   52.8958   98.7041   34.3971 C   0  0  0  0  0  0
   52.3872   99.9820   31.9376 C   0  0  0  0  0  0
   52.3089  100.0060   34.3636 C   0  0  0  0  0  0
   52.0413  100.6008   30.6175 C   0  0  0  0  0  0
   51.3162  100.4570   28.3223 C   0  0  0  0  0  0
   52.9503   98.4006   35.7785 C   0  0  0  0  0  0
   51.4387  102.4909   29.4199 C   0  0  0  0  0  0
   50.8916  100.4027   25.8372 C   0  0  0  0  0  0
   51.1717   98.3029   26.9919 C   0  0  0  0  0  0
   49.8017   99.7518   24.9815 C   0  0  0  0  0  0
   50.1220   97.6762   26.0541 C   0  0  0  0  0  0
   51.8706  101.9547   30.5840 N   0  0  0  0  0  0
   51.1597  101.8085   28.2916 N   0  0  0  0  0  0
   52.4446   99.5012   36.4146 N   0  0  0  0  0  0
   52.0281  100.4926   35.6112 N   0  0  0  0  0  0
   50.9922   99.7565   27.1594 N   0  0  0  0  0  0
   53.3902   97.2742   36.4113 N   0  0  0  0  0  0
   51.2446  103.8613   29.3733 N   0  0  0  0  0  0
   50.0438   98.3625   24.8136 O   0  0  0  0  0  0
   53.6982   97.0826   33.2090 H   0  0  0  0  0  0
   53.2730   98.2011   31.0930 H   0  0  0  0  0  0
   51.6040  101.6129   33.1265 H   0  0  0  0  0  0
   51.8932   98.7512   29.5286 H   0  0  0  0  0  0
   50.6371  101.4592   25.9263 H   0  0  0  0  0  0
   51.8558  100.3606   25.3295 H   0  0  0  0  0  0
   52.1786   98.0896   26.6378 H   0  0  0  0  0  0
   51.0557   97.7845   27.9414 H   0  0  0  0  0  0
   49.7692  100.2352   24.0104 H   0  0  0  0  0  0
   48.8383   99.9150   25.4505 H   0  0  0  0  0  0
   50.4013   96.6404   25.8566 H   0  0  0  0  0  0
   49.1431   97.6519   26.5336 H   0  0  0  0  0  0
   52.3467   99.5607   37.4182 H   0  0  0  0  0  0
   53.9930   96.6216   35.9299 H   0  0  0  0  0  0
   53.3508   97.1733   37.4158 H   0  0  0  0  0  0
   51.8266  104.3679   30.0229 H   0  0  0  0  0  0
   51.1121  104.2216   28.4409 H   0  0  0  0  0  0
  1  2  2  0  0  0
  1  5  1  0  0  0
  1 24  1  0  0  0
  2  6  1  0  0  0
  2 25  1  0  0  0
  3  6  2  0  0  0
  3  7  1  0  0  0
  3 26  1  0  0  0
  4  8  2  0  0  0
  4  9  1  0  0  0
  4 27  1  0  0  0
  5  7  1  0  0  0
  5 10  2  0  0  0
  6  8  1  0  0  0
  7 19  2  0  0  0
  8 16  1  0  0  0
  9 17  2  0  0  0
  9 20  1  0  0  0
 10 18  1  0  0  0
 10 21  1  0  0  0
 11 22  1  0  0  0
 11 16  2  0  0  0
 11 17  1  0  0  0
 12 20  1  0  0  0
 12 14  1  0  0  0
 12 28  1  0  0  0
 12 29  1  0  0  0
 13 15  1  0  0  0
 13 20  1  0  0  0
 13 30  1  0  0  0
 13 31  1  0  0  0
 14 23  1  0  0  0
 14 32  1  0  0  0
 14 33  1  0  0  0
 15 23  1  0  0  0
 15 34  1  0  0  0
 15 35  1  0  0  0
 18 19  1  0  0  0
 18 36  1  0  0  0
 21 37  1  0  0  0
 21 38  1  0  0  0
 22 39  1  0  0  0
 22 40  1  0  0  0
M  END
> <s_m_entry_id>
28597

> <s_m_entry_name>
dock_pv.758

> <s_m_Source_Path>
/home/csk/Desktop/cluster/DUD-E-result/rock1

> <s_m_Source_File>
dock_pv.maegz

> <i_m_Source_File_Index>
758

> <chembl_id>
CHEMBL1614772

> <chembl_pref_name>
None

> <i_lp_mmshare_version>
53161

> <r_lp_tautomer_probability>
0.999999648617923

> <s_lp_Force_Field>
OPLS_2005

> <r_lp_Energy>
33.849719

> <b_lp_Chiralities_Consistent>
1

> <s_lp_Variant>
CHEMBL3231_lig306-1

> <s_i_glide_gridfile>
glide-grid_2etr

> <i_i_glide_lignum>
454

> <i_i_glide_rotatable_bonds>
2

> <r_i_docking_score>
-6.96917619034601

> <r_i_glide_ligand_efficiency>
-0.303007660449827

> <r_i_glide_ligand_efficiency_sa>
-0.861713479294705

> <r_i_glide_ligand_efficiency_ln>
-1.68520999582155

> <r_i_glide_gscore>
-6.96917619034601

> <r_i_glide_lipo>
-1.79611664531787

> <r_i_glide_hbond>
-0.383597452043155

> <r_i_glide_metal>
0

> <r_i_glide_rewards>
-2.35953701646944

> <r_i_glide_evdw>
-38.1212577819824

> <r_i_glide_ecoul>
-5.91559076309204

> <r_i_glide_erotb>
0.382609591451766

> <r_i_glide_esite>
-0.0191331644043859

> <r_i_glide_emodel>
-62.2966096678946

> <r_i_glide_energy>
-44.0368485450745

> <r_i_glide_einternal>
0.435462862253189

> <i_i_glide_confnum>
2

> <i_i_glide_posenum>
317

> <r_i_glide_eff_state_penalty>
0

> <s_user_duplicate_titles>
CHEMBL3231_lig306

> <i_f3d_flags>
0

> <s_m_subgroup_title>
dock_pv

> <s_m_subgroupid>
dock_pv

> <b_m_subgroup_collapsed>
1

$$$$
CHEMBL3231_lig9
                    3D
 Schrodinger Suite 2021-1.
 43 46  0  0  1  0            999 V2000
   50.3168   99.7089   26.0679 C   0  0  0  0  0  0
   50.8361   99.9903   27.3637 C   0  0  0  0  0  0
   50.0836  100.9141   25.4570 N   0  0  0  0  0  0
   50.1132   98.4957   25.5474 N   0  0  0  0  0  0
   50.9078   97.6156   27.6812 N   0  0  0  0  0  0
   51.1484   98.8672   28.1455 C   0  0  0  0  0  0
   51.7667   98.9930   29.4929 C   0  0  0  0  0  0
   52.5591  100.0369   29.9331 C   0  0  0  0  0  0
   52.9342   99.7552   31.2192 N   0  0  0  0  0  0
   51.7510   98.1231   30.5946 C   0  0  0  0  0  0
   52.4488   98.5671   31.6182 N   0  0  0  0  0  0
   50.8898  101.4132   27.5040 C   0  0  0  0  0  0
   50.4430  101.9297   26.3127 C   0  0  0  0  0  0
   53.8473  100.5303   32.0831 C   0  0  0  0  0  0
   53.5902  100.5019   33.6101 C   0  0  0  0  0  0
   54.9395   99.8721   33.7460 N   0  0  2  0  0  0
   55.2434   99.9043   32.2856 C   0  0  0  0  0  0
   51.7048  103.3232   31.4990 N   0  0  0  0  0  0
   52.7087  102.7459   31.5493 C   0  0  0  0  0  0
   53.9834  102.0054   31.6084 C   0  0  0  0  0  0
   50.4415   97.5031   26.4110 C   0  0  0  0  0  0
   57.2327   98.4660   34.7358 C   0  0  0  0  0  0
   57.7586   97.3548   35.6532 C   0  0  0  0  0  0
   55.3490   98.5697   34.8524 S   0  0  0  0  0  0
   54.7642   97.3395   34.3084 O   0  0  0  0  0  0
   54.9808   99.0180   36.1997 O   0  0  0  0  0  0
   49.7193  101.0674   24.5275 H   0  0  0  0  0  0
   52.8997  100.9284   29.4317 H   0  0  0  0  0  0
   51.2440   97.1693   30.6372 H   0  0  0  0  0  0
   51.2146  101.9951   28.3540 H   0  0  0  0  0  0
   50.3426  102.9601   26.0109 H   0  0  0  0  0  0
   52.7608   99.8386   33.8618 H   0  0  0  0  0  0
   53.5091  101.4926   34.0592 H   0  0  0  0  0  0
   56.0622  100.5691   32.0110 H   0  0  0  0  0  0
   55.3057   98.9191   31.8190 H   0  0  0  0  0  0
   54.6446  102.5652   32.2701 H   0  0  0  0  0  0
   54.4405  102.0541   30.6196 H   0  0  0  0  0  0
   50.3699   96.5002   26.0218 H   0  0  0  0  0  0
   57.6402   99.4427   34.9998 H   0  0  0  0  0  0
   57.4832   98.2778   33.6907 H   0  0  0  0  0  0
   58.8428   97.2842   35.5974 H   0  0  0  0  0  0
   57.3491   96.3847   35.3702 H   0  0  0  0  0  0
   57.4888   97.5396   36.6936 H   0  0  0  0  0  0
  1  2  2  0  0  0
  1  4  1  0  0  0
  1  3  1  0  0  0
  2  6  1  0  0  0
  2 12  1  0  0  0
  3 13  1  0  0  0
  3 27  1  0  0  0
  4 21  2  0  0  0
  5  6  2  0  0  0
  5 21  1  0  0  0
  6  7  1  0  0  0
  7  8  2  0  0  0
  7 10  1  0  0  0
  8  9  1  0  0  0
  8 28  1  0  0  0
  9 11  1  0  0  0
  9 14  1  0  0  0
 10 11  2  0  0  0
 10 29  1  0  0  0
 12 13  2  0  0  0
 12 30  1  0  0  0
 13 31  1  0  0  0
 14 15  1  0  0  0
 14 17  1  0  0  0
 14 20  1  0  0  0
 15 16  1  0  0  0
 15 32  1  0  0  0
 15 33  1  0  0  0
 16 17  1  0  0  0
 16 24  1  0  0  0
 17 34  1  0  0  0
 17 35  1  0  0  0
 18 19  3  0  0  0
 19 20  1  0  0  0
 20 36  1  0  0  0
 20 37  1  0  0  0
 21 38  1  0  0  0
 22 23  1  0  0  0
 22 24  1  0  0  0
 22 39  1  0  0  0
 22 40  1  0  0  0
 23 41  1  0  0  0
 23 42  1  0  0  0
 23 43  1  0  0  0
 24 25  2  0  0  0
 24 26  2  0  0  0
M  END
> <s_m_entry_id>
28598

> <s_m_entry_name>
dock_pv.759

> <s_m_Source_Path>
/home/csk/Desktop/cluster/DUD-E-result/rock1

> <s_m_Source_File>
dock_pv.maegz

> <i_m_Source_File_Index>
759

> <chembl_id>
CHEMBL2105759

> <chembl_pref_name>
BARICITINIB

> <i_lp_mmshare_version>
53161

> <r_lp_tautomer_probability>
0.999998369746258

> <s_lp_Force_Field>
OPLS_2005

> <r_lp_Energy>
13.614113

> <b_lp_Chiralities_Consistent>
1

> <s_lp_Variant>
CHEMBL3231_lig9-1

> <s_i_glide_gridfile>
glide-grid_2etr

> <i_i_glide_lignum>
9

> <i_i_glide_rotatable_bonds>
5

> <r_i_docking_score>
-6.96449417711295

> <r_i_glide_ligand_efficiency>
-0.26786516065819

> <r_i_glide_ligand_efficiency_sa>
-0.793549484451377

> <r_i_glide_ligand_efficiency_ln>
-1.63558860512566

> <r_i_glide_gscore>
-6.96449417711295

> <r_i_glide_lipo>
-1.4740696117438

> <r_i_glide_hbond>
-0.0704032534351644

> <r_i_glide_metal>
0

> <r_i_glide_rewards>
-2.86836293939394

> <r_i_glide_evdw>
-38.5053062438965

> <r_i_glide_ecoul>
-7.1859073638916

> <r_i_glide_erotb>
0.559702463501872

> <r_i_glide_esite>
-0.108209419263349

> <r_i_glide_emodel>
-64.1664291473459

> <r_i_glide_energy>
-45.6912136077881

> <r_i_glide_einternal>
2.61759614944458

> <i_i_glide_confnum>
35

> <i_i_glide_posenum>
332

> <r_i_glide_eff_state_penalty>
0

> <s_user_duplicate_titles>
CHEMBL3231_lig9

> <i_f3d_flags>
0

> <s_m_subgroup_title>
dock_pv

> <s_m_subgroupid>
dock_pv

> <b_m_subgroup_collapsed>
1

$$$$
CHEMBL3231_lig709
                    3D
 Schrodinger Suite 2021-1.
 46 48  0  0  1  0            999 V2000
   56.1530   98.8114   33.6132 C   0  0  0  0  0  0
   55.6432  100.1238   33.8080 O   0  0  0  0  0  0
   55.6434  100.7031   35.0376 C   0  0  0  0  0  0
   56.0020  100.1152   36.0612 O   0  0  0  0  0  0
   55.1520  102.1266   35.0141 C   0  0  0  0  0  0
   54.5979  102.6777   33.8446 C   0  0  0  0  0  0
   54.0899  103.9821   33.8201 C   0  0  0  0  0  0
   53.3899  104.5688   32.5920 C   0  0  0  0  0  0
   52.9894  103.6407   31.5303 N   0  0  0  0  0  0
   52.0584  102.6791   31.6490 C   0  0  0  0  0  0
   51.4478  102.4362   32.6897 O   0  0  0  0  0  0
   51.7555  101.9195   30.3901 C   0  0  0  0  0  0
   51.4712  102.6050   29.2092 C   0  0  0  0  0  0
   51.0909  101.9031   28.0730 C   0  0  0  0  0  0
   51.0107  100.5066   28.0701 C   0  0  0  0  0  0
   51.3316   99.7980   29.2462 C   0  0  0  0  0  0
   51.2427   98.4151   29.2311 O   0  0  0  0  0  0
   51.4261   97.6726   30.4337 C   0  0  0  0  0  0
   51.6955  100.5210   30.3982 C   0  0  0  0  0  0
   50.5374   99.8635   26.7979 C   0  0  0  0  0  0
   49.9207  100.4853   25.7165 C   0  0  0  0  0  0
   49.6430   99.5055   24.8106 N   0  0  0  0  0  0
   50.0425   98.3019   25.2122 N   0  0  0  0  0  0
   50.5832   98.5164   26.3890 C   0  0  0  0  0  0
   54.1768  104.7663   34.9722 C   0  0  0  0  0  0
   54.7501  104.2501   36.1305 C   0  0  0  0  0  0
   55.2287  102.9406   36.1607 C   0  0  0  0  0  0
   55.7608  102.4921   37.3219 F   0  0  0  0  0  0
   56.0420   98.5259   32.5670 H   0  0  0  0  0  0
   57.2130   98.7659   33.8627 H   0  0  0  0  0  0
   55.6171   98.0841   34.2230 H   0  0  0  0  0  0
   54.5331  102.0847   32.9435 H   0  0  0  0  0  0
   54.0430  105.3242   32.1543 H   0  0  0  0  0  0
   52.4977  105.1020   32.9290 H   0  0  0  0  0  0
   53.5480  103.6667   30.6883 H   0  0  0  0  0  0
   51.5093  103.6845   29.1683 H   0  0  0  0  0  0
   50.8426  102.4704   27.1911 H   0  0  0  0  0  0
   51.2432   96.6157   30.2343 H   0  0  0  0  0  0
   52.4446   97.7674   30.8130 H   0  0  0  0  0  0
   50.7226   97.9792   31.2089 H   0  0  0  0  0  0
   51.9214  100.0062   31.3203 H   0  0  0  0  0  0
   49.6444  101.5089   25.5151 H   0  0  0  0  0  0
   49.1977   99.6567   23.9096 H   0  0  0  0  0  0
   51.0064   97.6982   26.9524 H   0  0  0  0  0  0
   53.7883  105.7764   34.9727 H   0  0  0  0  0  0
   54.8086  104.8611   37.0200 H   0  0  0  0  0  0
  1  2  1  0  0  0
  1 29  1  0  0  0
  1 30  1  0  0  0
  1 31  1  0  0  0
  2  3  1  0  0  0
  3  4  2  0  0  0
  3  5  1  0  0  0
  5  6  2  0  0  0
  5 27  1  0  0  0
  6  7  1  0  0  0
  6 32  1  0  0  0
  7  8  1  0  0  0
  7 25  2  0  0  0
  8  9  1  0  0  0
  8 33  1  0  0  0
  8 34  1  0  0  0
  9 10  1  0  0  0
  9 35  1  0  0  0
 10 11  2  0  0  0
 10 12  1  0  0  0
 12 13  2  0  0  0
 12 19  1  0  0  0
 13 14  1  0  0  0
 13 36  1  0  0  0
 14 15  2  0  0  0
 14 37  1  0  0  0
 15 16  1  0  0  0
 15 20  1  0  0  0
 16 17  1  0  0  0
 16 19  2  0  0  0
 17 18  1  0  0  0
 18 38  1  0  0  0
 18 39  1  0  0  0
 18 40  1  0  0  0
 19 41  1  0  0  0
 20 21  2  0  0  0
 20 24  1  0  0  0
 21 22  1  0  0  0
 21 42  1  0  0  0
 22 23  1  0  0  0
 22 43  1  0  0  0
 23 24  2  0  0  0
 24 44  1  0  0  0
 25 26  1  0  0  0
 25 45  1  0  0  0
 26 27  2  0  0  0
 26 46  1  0  0  0
 27 28  1  0  0  0
M  END
> <s_m_entry_id>
28599

> <s_m_entry_name>
dock_pv.760

> <s_m_Source_Path>
/home/csk/Desktop/cluster/DUD-E-result/rock1

> <s_m_Source_File>
dock_pv.maegz

> <i_m_Source_File_Index>
760

> <chembl_id>
CHEMBL3928198

> <chembl_pref_name>
None

> <i_lp_mmshare_version>
53161

> <r_lp_tautomer_probability>
0.5

> <s_lp_Force_Field>
OPLS_2005

> <r_lp_Energy>
25.689843

> <b_lp_Chiralities_Consistent>
1

> <s_lp_Variant>
CHEMBL3231_lig709-1

> <s_i_glide_gridfile>
glide-grid_2etr

> <i_i_glide_lignum>
1008

> <i_i_glide_rotatable_bonds>
8

> <r_i_docking_score>
-6.96284600429522

> <r_i_glide_ligand_efficiency>
-0.248673071581972

> <r_i_glide_ligand_efficiency_sa>
-0.755117905929528

> <r_i_glide_ligand_efficiency_ln>
-1.60722929583341

> <r_i_glide_gscore>
-6.96284600429522

> <r_i_glide_lipo>
-1.89540574456477

> <r_i_glide_hbond>
-0.53527175973967

> <r_i_glide_metal>
0

> <r_i_glide_rewards>
-1.75769128674299

> <r_i_glide_evdw>
-40.8634223937988

> <r_i_glide_ecoul>
-7.73237180709839

> <r_i_glide_erotb>
0.555279213866091

> <r_i_glide_esite>
-0.126729536359185

> <r_i_glide_emodel>
-67.0481454720224

> <r_i_glide_energy>
-48.5957942008972

> <r_i_glide_einternal>
3.95377278327942

> <i_i_glide_confnum>
12

> <i_i_glide_posenum>
90

> <r_i_glide_eff_state_penalty>
0

> <s_user_duplicate_titles>
CHEMBL3231_lig709

> <i_f3d_flags>
0

> <s_m_subgroup_title>
dock_pv

> <s_m_subgroupid>
dock_pv

> <b_m_subgroup_collapsed>
1

$$$$
CHEMBL3231_lig2081
                    3D
 Schrodinger Suite 2021-1.
 39 41  0  0  1  0            999 V2000
   51.3501  101.0289   28.2422 C   0  0  0  0  0  0
   52.4054  100.7370   29.1166 C   0  0  0  0  0  0
   52.6934  101.7612   30.0104 C   0  0  0  0  0  0
   51.6440  103.1163   29.7918 S   0  0  0  0  0  0
   50.8437  102.3037   28.4865 C   0  0  0  0  0  0
   53.6566  101.8301   30.9951 N   0  0  0  0  0  0
   54.0846  100.7661   31.7063 C   0  0  0  0  0  0
   55.1032  101.0598   32.8174 C   0  0  0  0  0  0
   53.6889   99.6101   31.5396 O   0  0  0  0  0  0
   54.6537  100.5917   34.2053 C   0  0  0  0  0  0
   53.3317  100.7616   34.6448 C   0  0  0  0  0  0
   52.9311  100.3355   35.9209 C   0  0  0  0  0  0
   53.8842   99.7695   36.7687 C   0  0  0  0  0  0
   55.2088   99.6245   36.3560 C   0  0  0  0  0  0
   55.5924  100.0375   35.0808 C   0  0  0  0  0  0
   50.8704  100.0919   27.1958 C   0  0  0  0  0  0
   50.8672   98.7113   27.4360 C   0  0  0  0  0  0
   50.4453   97.8549   26.4223 C   0  0  0  0  0  0
   50.0423   98.3023   25.2107 N   0  0  0  0  0  0
   50.0428   99.6403   24.9873 C   0  0  0  0  0  0
   50.4422  100.5652   25.9501 C   0  0  0  0  0  0
   51.6429  100.4360   36.4073 O   0  0  0  0  0  0
   50.6096  100.9154   35.5544 C   0  0  0  0  0  0
   52.9560   99.8079   29.0904 H   0  0  0  0  0  0
   50.0425  102.7991   27.9593 H   0  0  0  0  0  0
   53.9367  102.7505   31.3001 H   0  0  0  0  0  0
   55.3245  102.1266   32.8710 H   0  0  0  0  0  0
   56.0398  100.5727   32.5380 H   0  0  0  0  0  0
   52.6162  101.2148   33.9772 H   0  0  0  0  0  0
   53.5909   99.4400   37.7549 H   0  0  0  0  0  0
   55.9398   99.1898   37.0225 H   0  0  0  0  0  0
   56.6236   99.9214   34.7748 H   0  0  0  0  0  0
   51.1884   98.3068   28.3852 H   0  0  0  0  0  0
   50.4417   96.7843   26.5682 H   0  0  0  0  0  0
   49.7145   99.9675   24.0113 H   0  0  0  0  0  0
   50.4359  101.6212   25.7235 H   0  0  0  0  0  0
   49.6581  100.8800   36.0847 H   0  0  0  0  0  0
   50.7847  101.9504   35.2588 H   0  0  0  0  0  0
   50.5092  100.2985   34.6598 H   0  0  0  0  0  0
  1  2  1  0  0  0
  1  5  2  0  0  0
  1 16  1  0  0  0
  2  3  2  0  0  0
  2 24  1  0  0  0
  3  4  1  0  0  0
  3  6  1  0  0  0
  4  5  1  0  0  0
  5 25  1  0  0  0
  6  7  1  0  0  0
  6 26  1  0  0  0
  7  8  1  0  0  0
  7  9  2  0  0  0
  8 10  1  0  0  0
  8 27  1  0  0  0
  8 28  1  0  0  0
 10 11  2  0  0  0
 10 15  1  0  0  0
 11 12  1  0  0  0
 11 29  1  0  0  0
 12 13  2  0  0  0
 12 22  1  0  0  0
 13 14  1  0  0  0
 13 30  1  0  0  0
 14 15  2  0  0  0
 14 31  1  0  0  0
 15 32  1  0  0  0
 16 17  2  0  0  0
 16 21  1  0  0  0
 17 18  1  0  0  0
 17 33  1  0  0  0
 18 19  2  0  0  0
 18 34  1  0  0  0
 19 20  1  0  0  0
 20 21  2  0  0  0
 20 35  1  0  0  0
 21 36  1  0  0  0
 22 23  1  0  0  0
 23 37  1  0  0  0
 23 38  1  0  0  0
 23 39  1  0  0  0
M  END
> <s_m_entry_id>
28600

> <s_m_entry_name>
dock_pv.761

> <s_m_Source_Path>
/home/csk/Desktop/cluster/DUD-E-result/rock1

> <s_m_Source_File>
dock_pv.maegz

> <i_m_Source_File_Index>
761

> <chembl_id>
CHEMBL3581132

> <chembl_pref_name>
None

> <i_lp_mmshare_version>
53161

> <r_lp_tautomer_probability>
1

> <s_lp_Force_Field>
OPLS_2005

> <r_lp_Energy>
16.519687

> <b_lp_Chiralities_Consistent>
1

> <s_lp_Variant>
CHEMBL3231_lig2081-1

> <s_i_glide_gridfile>
glide-grid_2etr

> <i_i_glide_lignum>
3008

> <i_i_glide_rotatable_bonds>
6

> <r_i_docking_score>
-6.96255002859266

> <r_i_glide_ligand_efficiency>
-0.302719566460551

> <r_i_glide_ligand_efficiency_sa>
-0.860894178312365

> <r_i_glide_ligand_efficiency_ln>
-1.68360772982688

> <r_i_glide_gscore>
-6.96255002859266

> <r_i_glide_lipo>
-2.49482085763922

> <r_i_glide_hbond>
-0.236494339297163

> <r_i_glide_metal>
0

> <r_i_glide_rewards>
-2.55553864703526

> <r_i_glide_evdw>
-39.4312858581543

> <r_i_glide_ecoul>
-3.43848657608032

> <r_i_glide_erotb>
0.889784774420498

> <r_i_glide_esite>
-0.0781436797217531

> <r_i_glide_emodel>
-59.5486139322988

> <r_i_glide_energy>
-42.8697724342346

> <r_i_glide_einternal>
4.5176215171814

> <i_i_glide_confnum>
46

> <i_i_glide_posenum>
121

> <r_i_glide_eff_state_penalty>
0

> <s_user_duplicate_titles>
CHEMBL3231_lig2081

> <i_f3d_flags>
0

> <s_m_subgroup_title>
dock_pv

> <s_m_subgroupid>
dock_pv

> <b_m_subgroup_collapsed>
1

$$$$
CHEMBL3231_lig940
                    3D
 Schrodinger Suite 2021-1.
 42 44  0  0  1  0            999 V2000
   51.6617  100.3102   33.9009 O   0  0  0  0  0  0
   50.0814  106.6620   34.4111 O   0  0  0  0  0  0
   52.8922  102.0988   33.2640 N   0  0  0  0  0  0
   50.0402   98.8554   24.9235 N   0  0  0  0  0  0
   51.4292   99.8701   28.8930 C   0  0  0  0  0  0
   52.0438  100.5807   31.5572 C   0  0  0  0  0  0
   50.9677   99.5267   27.5096 C   0  0  0  0  0  0
   52.1914  100.9789   33.0100 C   0  0  0  0  0  0
   51.9295  101.1431   29.1989 C   0  0  0  0  0  0
   51.3298   98.9340   29.9318 C   0  0  0  0  0  0
   52.2241  101.5007   30.5128 C   0  0  0  0  0  0
   51.6431   99.2787   31.2405 C   0  0  0  0  0  0
   51.7305  103.4505   35.0280 C   0  0  0  0  0  0
   50.5111  100.5133   26.6167 C   0  0  0  0  0  0
   50.9310   98.1954   27.0663 C   0  0  0  0  0  0
   53.0035  102.7371   34.5765 C   0  0  0  0  0  0
   50.3067  105.4249   34.9811 C   0  0  0  0  0  0
   51.4258  104.7214   34.5299 C   0  0  0  0  0  0
   50.8965  102.8774   35.9934 C   0  0  0  0  0  0
   50.0645  100.1422   25.3460 C   0  0  0  0  0  0
   50.4575   97.9024   25.7900 C   0  0  0  0  0  0
   49.4769  104.8344   35.9479 C   0  0  0  0  0  0
   49.7696  103.5642   36.4458 C   0  0  0  0  0  0
   49.2675  107.6012   35.0995 C   0  0  0  0  0  0
   53.3695  102.5503   32.4978 H   0  0  0  0  0  0
   52.0626  101.8841   28.4249 H   0  0  0  0  0  0
   50.9568   97.9370   29.7531 H   0  0  0  0  0  0
   52.5543  102.5117   30.7025 H   0  0  0  0  0  0
   51.5129   98.5333   32.0112 H   0  0  0  0  0  0
   50.4847  101.5552   26.8972 H   0  0  0  0  0  0
   51.2620   97.3825   27.6932 H   0  0  0  0  0  0
   53.8082  103.4720   34.5241 H   0  0  0  0  0  0
   53.3212  102.0115   35.3286 H   0  0  0  0  0  0
   52.0721  105.1827   33.7955 H   0  0  0  0  0  0
   51.1183  101.8968   36.3910 H   0  0  0  0  0  0
   49.7060  100.8800   24.6426 H   0  0  0  0  0  0
   50.4433   96.8802   25.4421 H   0  0  0  0  0  0
   48.5963  105.3397   36.3124 H   0  0  0  0  0  0
   49.1239  103.1108   37.1843 H   0  0  0  0  0  0
   49.2438  108.5338   34.5363 H   0  0  0  0  0  0
   48.2403  107.2605   35.2161 H   0  0  0  0  0  0
   49.6860  107.8245   36.0794 H   0  0  0  0  0  0
  1  8  2  0  0  0
  2 17  1  0  0  0
  2 24  1  0  0  0
  3  8  1  0  0  0
  3 16  1  0  0  0
  3 25  1  0  0  0
  4 20  2  0  0  0
  4 21  1  0  0  0
  5  7  1  0  0  0
  5  9  2  0  0  0
  5 10  1  0  0  0
  6  8  1  0  0  0
  6 11  2  0  0  0
  6 12  1  0  0  0
  7 14  2  0  0  0
  7 15  1  0  0  0
  9 11  1  0  0  0
  9 26  1  0  0  0
 10 12  2  0  0  0
 10 27  1  0  0  0
 11 28  1  0  0  0
 12 29  1  0  0  0
 13 16  1  0  0  0
 13 18  2  0  0  0
 13 19  1  0  0  0
 14 20  1  0  0  0
 14 30  1  0  0  0
 15 21  2  0  0  0
 15 31  1  0  0  0
 16 32  1  0  0  0
 16 33  1  0  0  0
 17 18  1  0  0  0
 17 22  2  0  0  0
 18 34  1  0  0  0
 19 23  2  0  0  0
 19 35  1  0  0  0
 20 36  1  0  0  0
 21 37  1  0  0  0
 22 23  1  0  0  0
 22 38  1  0  0  0
 23 39  1  0  0  0
 24 40  1  0  0  0
 24 41  1  0  0  0
 24 42  1  0  0  0
M  END
> <s_m_entry_id>
28601

> <s_m_entry_name>
dock_pv.762

> <s_m_Source_Path>
/home/csk/Desktop/cluster/DUD-E-result/rock1

> <s_m_Source_File>
dock_pv.maegz

> <i_m_Source_File_Index>
762

> <chembl_id>
CHEMBL2006299

> <chembl_pref_name>
None

> <i_lp_mmshare_version>
53161

> <r_lp_tautomer_probability>
1

> <s_lp_Force_Field>
OPLS_2005

> <r_lp_Energy>
17.384419

> <b_lp_Chiralities_Consistent>
1

> <s_lp_Variant>
CHEMBL3231_lig940-1

> <s_i_glide_gridfile>
glide-grid_2etr

> <i_i_glide_lignum>
1354

> <i_i_glide_rotatable_bonds>
6

> <r_i_docking_score>
-6.96200702874058

> <r_i_glide_ligand_efficiency>
-0.290083626197524

> <r_i_glide_ligand_efficiency_sa>
-0.836745969586781

> <r_i_glide_ligand_efficiency_ln>
-1.66632774766351

> <r_i_glide_gscore>
-6.96200702874058

> <r_i_glide_lipo>
-2.68811999388299

> <r_i_glide_hbond>
-0.236228962214631

> <r_i_glide_metal>
0

> <r_i_glide_rewards>
-2.60836399244442

> <r_i_glide_evdw>
-38.5339317321777

> <r_i_glide_ecoul>
-2.73884057998657

> <r_i_glide_erotb>
0.919698610005527

> <r_i_glide_esite>
-0.0114700165971906

> <r_i_glide_emodel>
-58.3971549583573

> <r_i_glide_energy>
-41.2727723121643

> <r_i_glide_einternal>
6.72004508972168

> <i_i_glide_confnum>
41

> <i_i_glide_posenum>
213

> <r_i_glide_eff_state_penalty>
0

> <s_user_duplicate_titles>
CHEMBL3231_lig940

> <i_f3d_flags>
0

> <s_m_subgroup_title>
dock_pv

> <s_m_subgroupid>
dock_pv

> <b_m_subgroup_collapsed>
1

$$$$
CHEMBL3231_lig1242
                    3D
 Schrodinger Suite 2021-1.
 30 32  0  0  1  0            999 V2000
   52.4529   98.3221   30.0212 Cl  0  0  0  0  0  0
   50.0795   98.2817   25.2393 Cl  0  0  0  0  0  0
   52.0430   99.1031   34.6849 Cl  0  0  0  0  0  0
   51.6444  103.7559   31.0172 O   0  0  0  0  0  0
   50.1888  104.6102   28.8108 O   0  0  0  0  0  0
   54.4429  102.3910   30.4432 O   0  0  0  0  0  0
   50.4430  102.6223   27.8577 N   0  0  0  0  0  0
   51.7221  101.5597   30.0712 C   0  0  0  0  0  0
   51.3941  100.6448   28.9109 C   0  0  0  0  0  0
   50.7470  101.2625   27.8164 C   0  0  0  0  0  0
   51.3461  102.8741   30.0165 C   0  0  0  0  0  0
   52.5358  101.1431   31.2497 C   0  0  0  0  0  0
   51.6467   99.2547   28.8103 C   0  0  0  0  0  0
   50.6277  103.4638   28.8858 C   0  0  0  0  0  0
   50.3512  100.5452   26.6902 C   0  0  0  0  0  0
   53.8681  101.5732   31.3800 C   0  0  0  0  0  0
   50.5935   99.1808   26.6212 C   0  0  0  0  0  0
   51.2426   98.5462   27.6746 C   0  0  0  0  0  0
   51.9771  100.3751   32.2840 C   0  0  0  0  0  0
   52.7372  100.0241   33.4030 C   0  0  0  0  0  0
   54.6246  101.2067   32.4893 C   0  0  0  0  0  0
   54.0650  100.4304   33.4984 C   0  0  0  0  0  0
   52.4062  103.4296   31.5084 H   0  0  0  0  0  0
   55.4094  102.2863   30.4110 H   0  0  0  0  0  0
   49.9513  103.0513   27.0893 H   0  0  0  0  0  0
   49.8466  101.0363   25.8705 H   0  0  0  0  0  0
   51.4337   97.4861   27.6117 H   0  0  0  0  0  0
   50.9510  100.0448   32.2222 H   0  0  0  0  0  0
   55.6430  101.5431   32.5806 H   0  0  0  0  0  0
   54.6590  100.1581   34.3592 H   0  0  0  0  0  0
  1 13  1  0  0  0
  2 17  1  0  0  0
  3 20  1  0  0  0
  4 11  1  0  0  0
  4 23  1  0  0  0
  5 14  2  0  0  0
  6 16  1  0  0  0
  6 24  1  0  0  0
  7 10  1  0  0  0
  7 14  1  0  0  0
  7 25  1  0  0  0
  8  9  1  0  0  0
  8 11  2  0  0  0
  8 12  1  0  0  0
  9 10  1  0  0  0
  9 13  2  0  0  0
 10 15  2  0  0  0
 11 14  1  0  0  0
 12 16  1  0  0  0
 12 19  2  0  0  0
 13 18  1  0  0  0
 15 17  1  0  0  0
 15 26  1  0  0  0
 16 21  2  0  0  0
 17 18  2  0  0  0
 18 27  1  0  0  0
 19 20  1  0  0  0
 19 28  1  0  0  0
 20 22  2  0  0  0
 21 22  1  0  0  0
 21 29  1  0  0  0
 22 30  1  0  0  0
M  END
> <s_m_entry_id>
28602

> <s_m_entry_name>
dock_pv.763

> <s_m_Source_Path>
/home/csk/Desktop/cluster/DUD-E-result/rock1

> <s_m_Source_File>
dock_pv.maegz

> <i_m_Source_File_Index>
763

> <chembl_id>
CHEMBL1974803

> <chembl_pref_name>
None

> <i_lp_mmshare_version>
53161

> <r_lp_tautomer_probability>
0.999999999997365

> <s_lp_Force_Field>
OPLS_2005

> <r_lp_Energy>
28.202805

> <b_lp_Chiralities_Consistent>
1

> <s_lp_Variant>
CHEMBL3231_lig1242-1

> <s_i_glide_gridfile>
glide-grid_2etr

> <i_i_glide_lignum>
1722

> <i_i_glide_rotatable_bonds>
3

> <r_i_docking_score>
-6.96064414284692

> <r_i_glide_ligand_efficiency>
-0.316392915583951

> <r_i_glide_ligand_efficiency_sa>
-0.88654539249351

> <r_i_glide_ligand_efficiency_ln>
-1.70143532417586

> <r_i_glide_gscore>
-6.96064414284692

> <r_i_glide_lipo>
-2.28153313691505

> <r_i_glide_hbond>
0

> <r_i_glide_metal>
0

> <r_i_glide_rewards>
-1.46948243939394

> <r_i_glide_evdw>
-32.1041221618652

> <r_i_glide_ecoul>
-11.6993455886841

> <r_i_glide_erotb>
0.150479379857943

> <r_i_glide_esite>
0

> <r_i_glide_emodel>
-61.4447027070729

> <r_i_glide_energy>
-43.8034677505493

> <r_i_glide_einternal>
1.64718425273895

> <i_i_glide_confnum>
2

> <i_i_glide_posenum>
218

> <r_i_glide_eff_state_penalty>
0

> <s_user_duplicate_titles>
CHEMBL3231_lig1242

> <i_f3d_flags>
0

> <s_m_subgroup_title>
dock_pv

> <s_m_subgroupid>
dock_pv

> <b_m_subgroup_collapsed>
1

$$$$
CHEMBL3231_lig726
                    3D
 Schrodinger Suite 2021-1.
 43 45  0  0  1  0            999 V2000
   53.5484  103.1941   34.7741 C   0  0  0  0  0  0
   52.5209  103.8515   33.8285 C   0  0  1  0  0  0
   52.3829  103.1840   32.5228 N   0  0  0  0  0  0
   52.1478  101.8790   32.2672 C   0  0  0  0  0  0
   52.1371  101.0098   33.1394 O   0  0  0  0  0  0
   51.8595  101.5145   30.8266 C   0  0  0  0  0  0
   52.0371  100.1983   30.3875 C   0  0  0  0  0  0
   51.6559   99.8200   29.1031 C   0  0  0  0  0  0
   51.0900  100.7383   28.2100 C   0  0  0  0  0  0
   50.9603  102.0854   28.6163 C   0  0  0  0  0  0
   50.4337  103.0027   27.7239 O   0  0  0  0  0  0
   50.4649  104.4014   28.0122 C   0  0  0  0  0  0
   50.4425  105.1023   26.8797 F   0  0  0  0  0  0
   49.4639  104.7756   28.8011 F   0  0  0  0  0  0
   51.3367  102.4478   29.9221 C   0  0  0  0  0  0
   50.6167  100.2172   26.8728 C   0  0  0  0  0  0
   50.5385   98.8804   26.4205 C   0  0  0  0  0  0
   50.0433   98.7447   25.2112 N   0  0  0  0  0  0
   49.7974   99.9942   24.8212 N   0  0  0  0  0  0
   50.1177  100.9169   25.7798 C   0  0  0  0  0  0
   51.1898  104.1559   34.5361 C   0  0  0  0  0  0
   50.8398  105.4847   34.8112 C   0  0  0  0  0  0
   49.6493  105.7777   35.4738 C   0  0  0  0  0  0
   48.8067  104.7411   35.8709 C   0  0  0  0  0  0
   49.1477  103.4153   35.6148 C   0  0  0  0  0  0
   50.3378  103.1230   34.9529 C   0  0  0  0  0  0
   53.7743  103.8453   35.6180 H   0  0  0  0  0  0
   53.1849  102.2508   35.1802 H   0  0  0  0  0  0
   54.4868  102.9900   34.2566 H   0  0  0  0  0  0
   52.9636  104.8136   33.5589 H   0  0  0  0  0  0
   52.4870  103.7889   31.7240 H   0  0  0  0  0  0
   52.4418   99.4473   31.0522 H   0  0  0  0  0  0
   51.7912   98.7868   28.8235 H   0  0  0  0  0  0
   51.4060  104.7026   28.4744 H   0  0  0  0  0  0
   51.1853  103.4589   30.2600 H   0  0  0  0  0  0
   50.8281   98.0055   26.9818 H   0  0  0  0  0  0
   49.3981  100.2040   23.9115 H   0  0  0  0  0  0
   49.9503  101.9692   25.6117 H   0  0  0  0  0  0
   51.4903  106.2967   34.5121 H   0  0  0  0  0  0
   49.3847  106.8040   35.6830 H   0  0  0  0  0  0
   47.8841  104.9658   36.3855 H   0  0  0  0  0  0
   48.4937  102.6163   35.9328 H   0  0  0  0  0  0
   50.5937  102.0895   34.7762 H   0  0  0  0  0  0
  1  2  1  0  0  0
  1 27  1  0  0  0
  1 28  1  0  0  0
  1 29  1  0  0  0
  2  3  1  0  0  0
  2 21  1  0  0  0
  2 30  1  0  0  0
  3  4  1  0  0  0
  3 31  1  0  0  0
  4  5  2  0  0  0
  4  6  1  0  0  0
  6  7  2  0  0  0
  6 15  1  0  0  0
  7  8  1  0  0  0
  7 32  1  0  0  0
  8  9  2  0  0  0
  8 33  1  0  0  0
  9 10  1  0  0  0
  9 16  1  0  0  0
 10 11  1  0  0  0
 10 15  2  0  0  0
 11 12  1  0  0  0
 12 13  1  0  0  0
 12 14  1  0  0  0
 12 34  1  0  0  0
 15 35  1  0  0  0
 16 17  1  0  0  0
 16 20  2  0  0  0
 17 18  2  0  0  0
 17 36  1  0  0  0
 18 19  1  0  0  0
 19 20  1  0  0  0
 19 37  1  0  0  0
 20 38  1  0  0  0
 21 22  2  0  0  0
 21 26  1  0  0  0
 22 23  1  0  0  0
 22 39  1  0  0  0
 23 24  2  0  0  0
 23 40  1  0  0  0
 24 25  1  0  0  0
 24 41  1  0  0  0
 25 26  2  0  0  0
 25 42  1  0  0  0
 26 43  1  0  0  0
M  END
> <s_m_entry_id>
28603

> <s_m_entry_name>
dock_pv.764

> <s_m_Source_Path>
/home/csk/Desktop/cluster/DUD-E-result/rock1

> <s_m_Source_File>
dock_pv.maegz

> <i_m_Source_File_Index>
764

> <chembl_id>
CHEMBL4108218

> <chembl_pref_name>
None

> <i_lp_mmshare_version>
53161

> <r_lp_tautomer_probability>
0.5

> <s_lp_Force_Field>
OPLS_2005

> <r_lp_Energy>
16.535118

> <b_lp_Chiralities_Consistent>
1

> <s_lp_Variant>
CHEMBL3231_lig726-1

> <s_i_glide_gridfile>
glide-grid_2etr

> <i_i_glide_lignum>
1032

> <i_i_glide_rotatable_bonds>
7

> <r_i_docking_score>
-6.95854967837552

> <r_i_glide_ligand_efficiency>
-0.267636526091366

> <r_i_glide_ligand_efficiency_sa>
-0.792872155446795

> <r_i_glide_ligand_efficiency_ln>
-1.63419255910267

> <r_i_glide_gscore>
-6.95854967837552

> <r_i_glide_lipo>
-2.46455905073327

> <r_i_glide_hbond>
-0.335388068110482

> <r_i_glide_metal>
0

> <r_i_glide_rewards>
-2.0918830556

> <r_i_glide_evdw>
-40.7271881103516

> <r_i_glide_ecoul>
-4.52480411529541

> <r_i_glide_erotb>
0.749523043718185

> <r_i_glide_esite>
-0.101162524838066

> <r_i_glide_emodel>
-62.8073020090983

> <r_i_glide_energy>
-45.251992225647

> <r_i_glide_einternal>
3.29742860794067

> <i_i_glide_confnum>
23

> <i_i_glide_posenum>
283

> <r_i_glide_eff_state_penalty>
0

> <s_user_duplicate_titles>
CHEMBL3231_lig726

> <i_f3d_flags>
0

> <s_m_subgroup_title>
dock_pv

> <s_m_subgroupid>
dock_pv

> <b_m_subgroup_collapsed>
1

$$$$
CHEMBL3231_lig19
                    3D
 Schrodinger Suite 2021-1.
 34 36  0  0  1  0            999 V2000
   50.3743   98.5156   25.9595 C   0  0  0  0  0  0
   49.8299   99.3541   25.0411 N   0  0  0  0  0  0
   49.7555  100.7025   25.1958 C   0  0  0  0  0  0
   50.2461  101.3849   26.2463 C   0  0  0  0  0  0
   50.8515  100.6148   27.3394 C   0  0  0  0  0  0
   51.3582  101.2310   28.4835 C   0  0  0  0  0  0
   51.9111  100.4719   29.5187 C   0  0  0  0  0  0
   51.9343   99.0704   29.3970 C   0  0  0  0  0  0
   51.4188   98.4458   28.2571 C   0  0  0  0  0  0
   50.8853   99.2117   27.2185 C   0  0  0  0  0  0
   50.4454   97.3136   25.7228 O   0  0  0  0  0  0
   52.3948  101.1758   30.6029 O   0  0  0  0  0  0
   52.2592  101.8004   34.1757 N   0  0  1  0  0  0
   53.1025  102.5266   33.2245 C   0  0  0  0  0  0
   53.9519  101.5419   32.3934 C   0  0  0  0  0  0
   53.0900  100.5003   31.6537 C   0  0  0  0  0  0
   52.1089   99.8504   32.6586 C   0  0  0  0  0  0
   51.3368  100.8946   33.4914 C   0  0  0  0  0  0
   49.4986   98.9179   24.1946 H   0  0  0  0  0  0
   49.2553  101.1438   24.3464 H   0  0  0  0  0  0
   50.1612  102.4610   26.2926 H   0  0  0  0  0  0
   51.3313  102.3093   28.5750 H   0  0  0  0  0  0
   52.3448   98.4434   30.1731 H   0  0  0  0  0  0
   51.4412   97.3658   28.1824 H   0  0  0  0  0  0
   52.8686  101.2428   34.7590 H   0  0  0  0  0  0
   53.7505  103.2088   33.7753 H   0  0  0  0  0  0
   52.4700  103.1356   32.5752 H   0  0  0  0  0  0
   54.6531  101.0423   33.0620 H   0  0  0  0  0  0
   54.5700  102.0836   31.6762 H   0  0  0  0  0  0
   53.7798   99.7459   31.2699 H   0  0  0  0  0  0
   51.3988   99.2066   32.1393 H   0  0  0  0  0  0
   52.6505   99.1895   33.3370 H   0  0  0  0  0  0
   50.7085  100.3978   34.2318 H   0  0  0  0  0  0
   50.6801  101.4822   32.8475 H   0  0  0  0  0  0
  1  2  1  0  0  0
  1 10  1  0  0  0
  1 11  2  0  0  0
  2  3  1  0  0  0
  2 19  1  0  0  0
  3  4  2  0  0  0
  3 20  1  0  0  0
  4  5  1  0  0  0
  4 21  1  0  0  0
  5  6  1  0  0  0
  5 10  2  0  0  0
  6  7  2  0  0  0
  6 22  1  0  0  0
  7  8  1  0  0  0
  7 12  1  0  0  0
  8  9  2  0  0  0
  8 23  1  0  0  0
  9 10  1  0  0  0
  9 24  1  0  0  0
 12 16  1  0  0  0
 13 14  1  0  0  0
 13 18  1  0  0  0
 13 25  1  0  0  0
 14 15  1  0  0  0
 14 26  1  0  0  0
 14 27  1  0  0  0
 15 16  1  0  0  0
 15 28  1  0  0  0
 15 29  1  0  0  0
 16 17  1  0  0  0
 16 30  1  0  0  0
 17 18  1  0  0  0
 17 31  1  0  0  0
 17 32  1  0  0  0
 18 33  1  0  0  0
 18 34  1  0  0  0
M  END
> <s_m_entry_id>
28605

> <s_m_entry_name>
dock_pv.766

> <s_m_Source_Path>
/home/csk/Desktop/cluster/DUD-E-result/rock1

> <s_m_Source_File>
dock_pv.maegz

> <i_m_Source_File_Index>
766

> <chembl_id>
CHEMBL1667969

> <chembl_pref_name>
SAR-407899

> <i_lp_mmshare_version>
53161

> <r_lp_tautomer_probability>
1

> <s_lp_Force_Field>
OPLS_2005

> <r_lp_Energy>
30.781187

> <b_lp_Chiralities_Consistent>
1

> <s_lp_Variant>
CHEMBL3231_lig19-1

> <s_i_glide_gridfile>
glide-grid_2etr

> <i_i_glide_lignum>
19

> <i_i_glide_rotatable_bonds>
2

> <r_i_docking_score>
-6.95560144761814

> <r_i_glide_ligand_efficiency>
-0.386422302645452

> <r_i_glide_ligand_efficiency_sa>
-1.01271292321275

> <r_i_glide_ligand_efficiency_ln>
-1.7879014861499

> <r_i_glide_gscore>
-6.95560144761814

> <r_i_glide_lipo>
-2.43078234729119

> <r_i_glide_hbond>
-0.136505475490754

> <r_i_glide_metal>
0

> <r_i_glide_rewards>
-2.98756261007543

> <r_i_glide_evdw>
-32.0392074584961

> <r_i_glide_ecoul>
-2.54259014129639

> <r_i_glide_erotb>
0.582597879358495

> <r_i_glide_esite>
0

> <r_i_glide_emodel>
-50.153632911229

> <r_i_glide_energy>
-34.5817975997925

> <r_i_glide_einternal>
0.0808323249220848

> <i_i_glide_confnum>
25

> <i_i_glide_posenum>
156

> <r_i_glide_eff_state_penalty>
0

> <s_user_duplicate_titles>
CHEMBL3231_lig19

> <i_f3d_flags>
0

> <s_m_subgroup_title>
dock_pv

> <s_m_subgroupid>
dock_pv

> <b_m_subgroup_collapsed>
1

$$$$
CHEMBL3231_lig943 
                    3D
 Schrodinger Suite 2021-1.
 39 41  0  0  1  0            999 V2000
   50.1649   99.6969   25.2794 C   0  0  0  0  0  0
   50.0432   98.3480   25.2113 N   0  0  0  0  0  0
   50.4623   97.6287   26.2808 C   0  0  0  0  0  0
   51.0241   98.2124   27.4187 C   0  0  0  0  0  0
   51.1635   99.6069   27.4891 C   0  0  0  0  0  0
   50.7088  100.3537   26.3858 C   0  0  0  0  0  0
   51.7435  100.2783   28.6972 C   0  0  0  0  0  0
   51.5957   99.7320   29.9788 C   0  0  0  0  0  0
   52.0264  100.4267   31.1064 C   0  0  0  0  0  0
   52.6087  101.6910   30.9796 C   0  0  0  0  0  0
   52.8466  102.2048   29.6996 C   0  0  0  0  0  0
   52.4236  101.4952   28.5784 C   0  0  0  0  0  0
   52.8785  102.5153   32.2126 C   0  0  0  0  0  0
   53.9903  103.2740   32.2023 N   0  0  0  0  0  0
   52.0741  102.4997   33.1461 O   0  0  0  0  0  0
   54.3497  104.2754   33.2102 C   0  0  0  0  0  0
   54.4728  103.7761   34.6462 C   0  0  0  0  0  0
   53.4522  104.0294   35.5681 C   0  0  0  0  0  0
   53.5775  103.6076   36.8921 C   0  0  0  0  0  0
   54.7335  102.9473   37.3048 C   0  0  0  0  0  0
   55.7633  102.7079   36.3966 C   0  0  0  0  0  0
   55.6387  103.1329   35.0744 C   0  0  0  0  0  0
   56.8951  102.0633   36.8111 O   0  0  0  0  0  0
   49.8079  100.2548   24.4244 H   0  0  0  0  0  0
   50.3623   96.5552   26.2083 H   0  0  0  0  0  0
   51.3551   97.5764   28.2267 H   0  0  0  0  0  0
   50.7607  101.4325   26.3804 H   0  0  0  0  0  0
   51.0901   98.7885   30.1207 H   0  0  0  0  0  0
   51.8423  100.0034   32.0837 H   0  0  0  0  0  0
   53.3165  103.1686   29.5631 H   0  0  0  0  0  0
   52.6113  101.9029   27.6007 H   0  0  0  0  0  0
   54.6160  103.1931   31.4128 H   0  0  0  0  0  0
   53.6453  105.1053   33.1540 H   0  0  0  0  0  0
   55.3094  104.7028   32.9216 H   0  0  0  0  0  0
   52.5530  104.5387   35.2538 H   0  0  0  0  0  0
   52.7810  103.7938   37.5958 H   0  0  0  0  0  0
   54.8305  102.6177   38.3291 H   0  0  0  0  0  0
   56.4431  102.9547   34.3804 H   0  0  0  0  0  0
   57.5502  101.9003   36.1159 H   0  0  0  0  0  0
  1  2  2  0  0  0
  1  6  1  0  0  0
  1 24  1  0  0  0
  2  3  1  0  0  0
  3  4  2  0  0  0
  3 25  1  0  0  0
  4  5  1  0  0  0
  4 26  1  0  0  0
  5  6  2  0  0  0
  5  7  1  0  0  0
  6 27  1  0  0  0
  7  8  2  0  0  0
  7 12  1  0  0  0
  8  9  1  0  0  0
  8 28  1  0  0  0
  9 10  2  0  0  0
  9 29  1  0  0  0
 10 11  1  0  0  0
 10 13  1  0  0  0
 11 12  2  0  0  0
 11 30  1  0  0  0
 12 31  1  0  0  0
 13 14  1  0  0  0
 13 15  2  0  0  0
 14 16  1  0  0  0
 14 32  1  0  0  0
 16 17  1  0  0  0
 16 33  1  0  0  0
 16 34  1  0  0  0
 17 18  2  0  0  0
 17 22  1  0  0  0
 18 19  1  0  0  0
 18 35  1  0  0  0
 19 20  2  0  0  0
 19 36  1  0  0  0
 20 21  1  0  0  0
 20 37  1  0  0  0
 21 22  2  0  0  0
 21 23  1  0  0  0
 22 38  1  0  0  0
 23 39  1  0  0  0
M  END
> <s_m_entry_id>
28606

> <s_m_entry_name>
dock_pv.767

> <s_m_Source_Path>
/home/csk/Desktop/cluster/DUD-E-result/rock1

> <s_m_Source_File>
dock_pv.maegz

> <i_m_Source_File_Index>
767

> <chembl_id>
CHEMBL4536833

> <chembl_pref_name>
None

> <i_lp_mmshare_version>
53161

> <r_lp_tautomer_probability>
0.999999999997365

> <s_lp_Force_Field>
OPLS_2005

> <r_lp_Energy>
13.054553

> <b_lp_Chiralities_Consistent>
1

> <s_lp_Variant>
CHEMBL3231_lig943 -1

> <s_i_glide_gridfile>
glide-grid_2etr

> <i_i_glide_lignum>
1357

> <i_i_glide_rotatable_bonds>
6

> <r_i_docking_score>
-6.94813469016923

> <r_i_glide_ligand_efficiency>
-0.302092812616053

> <r_i_glide_ligand_efficiency_sa>
-0.859111773751367

> <r_i_glide_ligand_efficiency_ln>
-1.68012197028503

> <r_i_glide_gscore>
-6.94813469016923

> <r_i_glide_lipo>
-2.01026884170574

> <r_i_glide_hbond>
-0.36295801210084

> <r_i_glide_metal>
0

> <r_i_glide_rewards>
-2.68091699608126

> <r_i_glide_evdw>
-34.1385154724121

> <r_i_glide_ecoul>
-7.51300716400146

> <r_i_glide_erotb>
0.995460410797792

> <r_i_glide_esite>
-0.0555744028583611

> <r_i_glide_emodel>
-61.8449772680393

> <r_i_glide_energy>
-41.6515226364136

> <r_i_glide_einternal>
1.54466772079468

> <i_i_glide_confnum>
67

> <i_i_glide_posenum>
315

> <r_i_glide_eff_state_penalty>
0

> <s_user_duplicate_titles>
CHEMBL3231_lig943 

> <i_f3d_flags>
0

> <s_m_subgroup_title>
dock_pv

> <s_m_subgroupid>
dock_pv

> <b_m_subgroup_collapsed>
1

$$$$
CHEMBL3231_lig748
                    3D
 Schrodinger Suite 2021-1.
 48 50  0  0  1  0            999 V2000
   50.3569  104.1830   27.9415 C   0  0  0  0  0  0
   50.4429  102.7972   27.6120 O   0  0  0  0  0  0
   51.0130  101.9051   28.5015 C   0  0  0  0  0  0
   51.4392  102.3049   29.7784 C   0  0  0  0  0  0
   52.0423  101.4089   30.6628 C   0  0  0  0  0  0
   52.2452  100.0878   30.2550 C   0  0  0  0  0  0
   51.8016   99.6681   29.0028 C   0  0  0  0  0  0
   51.1646  100.5537   28.1196 C   0  0  0  0  0  0
   50.6459  100.0015   26.8152 C   0  0  0  0  0  0
   50.0786  100.6702   25.7357 C   0  0  0  0  0  0
   49.7411   99.7200   24.8112 N   0  0  0  0  0  0
   50.0430   98.4864   25.2109 N   0  0  0  0  0  0
   50.5852   98.6544   26.3956 C   0  0  0  0  0  0
   52.4041  101.8699   32.0472 C   0  0  0  0  0  0
   51.6193  102.5640   32.6973 O   0  0  0  0  0  0
   53.6190  101.4995   32.4891 N   0  0  0  0  0  0
   54.2205  101.8100   33.8017 C   0  0  1  0  0  0
   55.2562  100.7108   34.1576 C   0  0  0  0  0  0
   54.7218   99.2894   34.2519 C   0  0  0  0  0  0
   54.8341   98.4116   33.1504 C   0  0  0  0  0  0
   54.2993   97.1329   33.2264 C   0  0  0  0  0  0
   53.6439   96.7161   34.3786 C   0  0  0  0  0  0
   53.4933   97.5817   35.4559 C   0  0  0  0  0  0
   54.0109   98.8700   35.3966 C   0  0  0  0  0  0
   54.8469  103.2154   33.8233 C   0  0  0  0  0  0
   55.7358  103.5232   34.6192 O   0  0  0  0  0  0
   54.3106  104.3070   32.8970 C   0  0  0  0  0  0
   50.0414  104.7399   27.0601 H   0  0  0  0  0  0
   49.6213  104.3531   28.7291 H   0  0  0  0  0  0
   51.3163  104.6005   28.2488 H   0  0  0  0  0  0
   51.3033  103.3229   30.1077 H   0  0  0  0  0  0
   52.7063   99.3661   30.9156 H   0  0  0  0  0  0
   51.9509   98.6329   28.7362 H   0  0  0  0  0  0
   49.8736  101.7130   25.5513 H   0  0  0  0  0  0
   49.3018   99.9033   23.9127 H   0  0  0  0  0  0
   50.9221   97.7972   26.9587 H   0  0  0  0  0  0
   54.2096  100.9726   31.8624 H   0  0  0  0  0  0
   53.4270  101.7782   34.5512 H   0  0  0  0  0  0
   55.7477  100.9360   35.1064 H   0  0  0  0  0  0
   56.0431  100.7033   33.4053 H   0  0  0  0  0  0
   55.3583   98.7164   32.2549 H   0  0  0  0  0  0
   54.4035   96.4551   32.3913 H   0  0  0  0  0  0
   53.2425   95.7133   34.4281 H   0  0  0  0  0  0
   52.9736   97.2520   36.3424 H   0  0  0  0  0  0
   53.8850   99.5397   36.2355 H   0  0  0  0  0  0
   53.2560  104.4964   33.0888 H   0  0  0  0  0  0
   54.8432  105.2437   33.0563 H   0  0  0  0  0  0
   54.4394  104.0263   31.8531 H   0  0  0  0  0  0
  1  2  1  0  0  0
  1 28  1  0  0  0
  1 29  1  0  0  0
  1 30  1  0  0  0
  2  3  1  0  0  0
  3  4  2  0  0  0
  3  8  1  0  0  0
  4  5  1  0  0  0
  4 31  1  0  0  0
  5  6  2  0  0  0
  5 14  1  0  0  0
  6  7  1  0  0  0
  6 32  1  0  0  0
  7  8  2  0  0  0
  7 33  1  0  0  0
  8  9  1  0  0  0
  9 10  2  0  0  0
  9 13  1  0  0  0
 10 11  1  0  0  0
 10 34  1  0  0  0
 11 12  1  0  0  0
 11 35  1  0  0  0
 12 13  2  0  0  0
 13 36  1  0  0  0
 14 15  2  0  0  0
 14 16  1  0  0  0
 16 17  1  0  0  0
 16 37  1  0  0  0
 17 18  1  0  0  0
 17 25  1  0  0  0
 17 38  1  0  0  0
 18 19  1  0  0  0
 18 39  1  0  0  0
 18 40  1  0  0  0
 19 20  2  0  0  0
 19 24  1  0  0  0
 20 21  1  0  0  0
 20 41  1  0  0  0
 21 22  2  0  0  0
 21 42  1  0  0  0
 22 23  1  0  0  0
 22 43  1  0  0  0
 23 24  2  0  0  0
 23 44  1  0  0  0
 24 45  1  0  0  0
 25 26  2  0  0  0
 25 27  1  0  0  0
 27 46  1  0  0  0
 27 47  1  0  0  0
 27 48  1  0  0  0
M  END
> <s_m_entry_id>
28607

> <s_m_entry_name>
dock_pv.768

> <s_m_Source_Path>
/home/csk/Desktop/cluster/DUD-E-result/rock1

> <s_m_Source_File>
dock_pv.maegz

> <i_m_Source_File_Index>
768

> <chembl_id>
CHEMBL3982811

> <chembl_pref_name>
None

> <i_lp_mmshare_version>
53161

> <r_lp_tautomer_probability>
0.499999985

> <s_lp_Force_Field>
OPLS_2005

> <r_lp_Energy>
19.512398

> <b_lp_Chiralities_Consistent>
1

> <s_lp_Variant>
CHEMBL3231_lig748-2

> <s_i_glide_gridfile>
glide-grid_2etr

> <i_i_glide_lignum>
1065

> <i_i_glide_rotatable_bonds>
8

> <r_i_docking_score>
-6.94787016936599

> <r_i_glide_ligand_efficiency>
-0.257328524791333

> <r_i_glide_ligand_efficiency_sa>
-0.771985573525886

> <r_i_glide_ligand_efficiency_ln>
-1.61734963083651

> <r_i_glide_gscore>
-6.94787016936599

> <r_i_glide_lipo>
-1.92134449194774

> <r_i_glide_hbond>
-0.465982292709258

> <r_i_glide_metal>
0

> <r_i_glide_rewards>
-1.91199796019451

> <r_i_glide_evdw>
-42.5787925720215

> <r_i_glide_ecoul>
-6.61106824874878

> <r_i_glide_erotb>
0.509181256166854

> <r_i_glide_esite>
-0.037126814767944

> <r_i_glide_emodel>
-68.2376916249141

> <r_i_glide_energy>
-49.1898608207703

> <r_i_glide_einternal>
3.60473823547363

> <i_i_glide_confnum>
48

> <i_i_glide_posenum>
254

> <r_i_glide_eff_state_penalty>
0

> <s_user_duplicate_titles>
CHEMBL3231_lig748

> <i_f3d_flags>
0

> <s_m_subgroup_title>
dock_pv

> <s_m_subgroupid>
dock_pv

> <b_m_subgroup_collapsed>
1

$$$$
CHEMBL3231_lig748
                    3D
 Schrodinger Suite 2021-1.
 48 50  0  0  1  0            999 V2000
   50.4034  103.9790   28.1475 C   0  0  0  0  0  0
   50.4431  102.6004   27.7895 O   0  0  0  0  0  0
   51.0368  101.6792   28.6366 C   0  0  0  0  0  0
   51.4904  102.0236   29.9222 C   0  0  0  0  0  0
   52.0429  101.0745   30.7919 C   0  0  0  0  0  0
   52.1837   99.7585   30.3334 C   0  0  0  0  0  0
   51.7553   99.4047   29.0588 C   0  0  0  0  0  0
   51.1644  100.3429   28.2030 C   0  0  0  0  0  0
   50.6727   99.8521   26.8681 C   0  0  0  0  0  0
   50.5124   98.5200   26.4308 C   0  0  0  0  0  0
   50.0429   98.4108   25.2110 N   0  0  0  0  0  0
   49.8804   99.6719   24.8110 N   0  0  0  0  0  0
   50.2489  100.5809   25.7631 C   0  0  0  0  0  0
   52.3931  101.4665   32.2114 C   0  0  0  0  0  0
   51.9495  102.5062   32.7057 O   0  0  0  0  0  0
   53.1848  100.6151   32.8940 N   0  0  0  0  0  0
   53.5728  100.7045   34.3145 C   0  0  2  0  0  0
   54.8059   99.7900   34.5659 C   0  0  0  0  0  0
   54.7156   98.3393   34.1013 C   0  0  0  0  0  0
   55.1658   97.9799   32.8126 C   0  0  0  0  0  0
   55.0356   96.6709   32.3689 C   0  0  0  0  0  0
   54.4333   95.7153   33.1763 C   0  0  0  0  0  0
   53.9435   96.0625   34.4290 C   0  0  0  0  0  0
   54.0677   97.3661   34.8931 C   0  0  0  0  0  0
   52.3838  100.3414   35.2145 C   0  0  0  0  0  0
   51.3028   99.9068   34.8110 O   0  0  0  0  0  0
   52.5718  100.5700   36.7108 C   0  0  0  0  0  0
   50.0433  104.5605   27.2989 H   0  0  0  0  0  0
   49.7195  104.1488   28.9793 H   0  0  0  0  0  0
   51.3902  104.3646   28.4102 H   0  0  0  0  0  0
   51.3853  103.0369   30.2764 H   0  0  0  0  0  0
   52.5967   98.9815   30.9611 H   0  0  0  0  0  0
   51.8768   98.3764   28.7554 H   0  0  0  0  0  0
   50.7296   97.6327   27.0064 H   0  0  0  0  0  0
   49.5064   99.9028   23.8955 H   0  0  0  0  0  0
   50.1649  101.6417   25.5817 H   0  0  0  0  0  0
   53.5210   99.7913   32.4192 H   0  0  0  0  0  0
   53.8719  101.7358   34.5144 H   0  0  0  0  0  0
   55.0701   99.7882   35.6243 H   0  0  0  0  0  0
   55.6735  100.2348   34.0742 H   0  0  0  0  0  0
   55.6424   98.7102   32.1733 H   0  0  0  0  0  0
   55.4175   96.3965   31.3958 H   0  0  0  0  0  0
   54.3362   94.6987   32.8251 H   0  0  0  0  0  0
   53.4628   95.3144   35.0422 H   0  0  0  0  0  0
   53.6786   97.6257   35.8664 H   0  0  0  0  0  0
   53.3454   99.9132   37.1078 H   0  0  0  0  0  0
   52.8541  101.6045   36.9067 H   0  0  0  0  0  0
   51.6439  100.3594   37.2421 H   0  0  0  0  0  0
  1  2  1  0  0  0
  1 28  1  0  0  0
  1 29  1  0  0  0
  1 30  1  0  0  0
  2  3  1  0  0  0
  3  4  2  0  0  0
  3  8  1  0  0  0
  4  5  1  0  0  0
  4 31  1  0  0  0
  5  6  2  0  0  0
  5 14  1  0  0  0
  6  7  1  0  0  0
  6 32  1  0  0  0
  7  8  2  0  0  0
  7 33  1  0  0  0
  8  9  1  0  0  0
  9 10  1  0  0  0
  9 13  2  0  0  0
 10 11  2  0  0  0
 10 34  1  0  0  0
 11 12  1  0  0  0
 12 13  1  0  0  0
 12 35  1  0  0  0
 13 36  1  0  0  0
 14 15  2  0  0  0
 14 16  1  0  0  0
 16 17  1  0  0  0
 16 37  1  0  0  0
 17 18  1  0  0  0
 17 25  1  0  0  0
 17 38  1  0  0  0
 18 19  1  0  0  0
 18 39  1  0  0  0
 18 40  1  0  0  0
 19 20  2  0  0  0
 19 24  1  0  0  0
 20 21  1  0  0  0
 20 41  1  0  0  0
 21 22  2  0  0  0
 21 42  1  0  0  0
 22 23  1  0  0  0
 22 43  1  0  0  0
 23 24  2  0  0  0
 23 44  1  0  0  0
 24 45  1  0  0  0
 25 26  2  0  0  0
 25 27  1  0  0  0
 27 46  1  0  0  0
 27 47  1  0  0  0
 27 48  1  0  0  0
M  END
> <s_m_entry_id>
28608

> <s_m_entry_name>
dock_pv.769

> <s_m_Source_Path>
/home/csk/Desktop/cluster/DUD-E-result/rock1

> <s_m_Source_File>
dock_pv.maegz

> <i_m_Source_File_Index>
769

> <chembl_id>
CHEMBL3982811

> <chembl_pref_name>
None

> <i_lp_mmshare_version>
53161

> <r_lp_tautomer_probability>
0.499999985

> <s_lp_Force_Field>
OPLS_2005

> <r_lp_Energy>
21.352648

> <b_lp_Chiralities_Consistent>
1

> <s_lp_Variant>
CHEMBL3231_lig748-1

> <s_i_glide_gridfile>
glide-grid_2etr

> <i_i_glide_lignum>
1064

> <i_i_glide_rotatable_bonds>
8

> <r_i_docking_score>
-6.94604241510947

> <r_i_glide_ligand_efficiency>
-0.25726083018924

> <r_i_glide_ligand_efficiency_sa>
-0.771782489719829

> <r_i_glide_ligand_efficiency_ln>
-1.61692415977848

> <r_i_glide_gscore>
-6.94604241510947

> <r_i_glide_lipo>
-2.05341297787347

> <r_i_glide_hbond>
-0.491845462481825

> <r_i_glide_metal>
0

> <r_i_glide_rewards>
-1.91465488195013

> <r_i_glide_evdw>
-43.1393356323242

> <r_i_glide_ecoul>
-5.41578578948975

> <r_i_glide_erotb>
0.509181256166854

> <r_i_glide_esite>
-0.0259756989312244

> <r_i_glide_emodel>
-67.7199313210753

> <r_i_glide_energy>
-48.555121421814

> <r_i_glide_einternal>
3.14111232757568

> <i_i_glide_confnum>
14

> <i_i_glide_posenum>
114

> <r_i_glide_eff_state_penalty>
0

> <s_user_duplicate_titles>
CHEMBL3231_lig748

> <i_f3d_flags>
0

> <s_m_subgroup_title>
dock_pv

> <s_m_subgroupid>
dock_pv

> <b_m_subgroup_collapsed>
1

$$$$
CHEMBL3231_lig1450
                    3D
 Schrodinger Suite 2021-1.
 42 44  0  0  1  0            999 V2000
   49.9138  103.7887   35.9299 S   0  0  0  0  0  0
   51.2669   98.7584   29.2463 O   0  0  0  0  0  0
   50.3491  104.4728   37.1526 O   0  0  0  0  0  0
   48.7213  104.2449   35.2110 O   0  0  0  0  0  0
   51.6373  101.3812   29.4928 N   0  0  0  0  0  0
   52.2808  102.2181   31.5687 N   0  0  0  0  0  0
   51.2430  103.6904   30.0176 N   0  0  0  0  0  0
   50.9848  101.5226   28.3037 C   0  0  0  0  0  0
   50.8430  100.3058   27.4269 C   0  0  0  0  0  0
   51.2743  103.8221   34.7560 C   0  0  0  0  0  0
   51.7144  102.4538   30.3135 C   0  0  0  0  0  0
   52.2972  103.0541   32.6905 C   0  0  0  0  0  0
   50.9564   98.9789   27.9158 C   0  0  0  0  0  0
   51.2410  103.0194   33.6084 C   0  0  0  0  0  0
   50.4430  102.7688   27.9470 C   0  0  0  0  0  0
   50.5479  100.4797   26.0606 C   0  0  0  0  0  0
   52.3697  104.6647   34.9733 C   0  0  0  0  0  0
   53.3846  103.9000   32.9143 C   0  0  0  0  0  0
   50.6199  103.8358   28.8228 C   0  0  0  0  0  0
   50.7531   97.9030   27.0411 C   0  0  0  0  0  0
   53.4194  104.7030   34.0540 C   0  0  0  0  0  0
   50.3397   99.3992   25.2110 C   0  0  0  0  0  0
   50.4430   98.1075   25.7054 C   0  0  0  0  0  0
   49.6800  101.9719   36.3418 C   0  0  0  0  0  0
   50.7885   97.5865   29.8964 C   0  0  0  0  0  0
   52.6533  101.2882   31.6951 H   0  0  0  0  0  0
   50.4011  102.3650   33.4267 H   0  0  0  0  0  0
   49.9183  102.9298   27.0204 H   0  0  0  0  0  0
   50.4756  101.4632   25.6235 H   0  0  0  0  0  0
   52.4074  105.3016   35.8456 H   0  0  0  0  0  0
   54.2000  103.9432   32.2047 H   0  0  0  0  0  0
   50.2480  104.8207   28.5786 H   0  0  0  0  0  0
   50.8430   96.8855   27.3826 H   0  0  0  0  0  0
   54.2539  105.3702   34.2122 H   0  0  0  0  0  0
   50.1054   99.5667   24.1688 H   0  0  0  0  0  0
   50.3023   97.2559   25.0614 H   0  0  0  0  0  0
   48.8430  101.9030   37.0341 H   0  0  0  0  0  0
   49.4525  101.4208   35.4317 H   0  0  0  0  0  0
   50.5899  101.5932   36.8055 H   0  0  0  0  0  0
   50.9906   97.6529   30.9654 H   0  0  0  0  0  0
   49.7127   97.5030   29.7669 H   0  0  0  0  0  0
   51.2430   96.6701   29.5324 H   0  0  0  0  0  0
  1  3  2  0  0  0
  1  4  2  0  0  0
  1 10  1  0  0  0
  1 24  1  0  0  0
  2 13  1  0  0  0
  2 25  1  0  0  0
  5  8  1  0  0  0
  5 11  2  0  0  0
  6 11  1  0  0  0
  6 12  1  0  0  0
  6 26  1  0  0  0
  7 11  1  0  0  0
  7 19  2  0  0  0
  8  9  1  0  0  0
  8 15  2  0  0  0
  9 13  1  0  0  0
  9 16  2  0  0  0
 10 14  2  0  0  0
 10 17  1  0  0  0
 12 14  1  0  0  0
 12 18  2  0  0  0
 13 20  2  0  0  0
 14 27  1  0  0  0
 15 19  1  0  0  0
 15 28  1  0  0  0
 16 22  1  0  0  0
 16 29  1  0  0  0
 17 21  2  0  0  0
 17 30  1  0  0  0
 18 21  1  0  0  0
 18 31  1  0  0  0
 19 32  1  0  0  0
 20 23  1  0  0  0
 20 33  1  0  0  0
 21 34  1  0  0  0
 22 23  2  0  0  0
 22 35  1  0  0  0
 23 36  1  0  0  0
 24 37  1  0  0  0
 24 38  1  0  0  0
 24 39  1  0  0  0
 25 40  1  0  0  0
 25 41  1  0  0  0
 25 42  1  0  0  0
M  END
> <s_m_entry_id>
28609

> <s_m_entry_name>
dock_pv.770

> <s_m_Source_Path>
/home/csk/Desktop/cluster/DUD-E-result/rock1

> <s_m_Source_File>
dock_pv.maegz

> <i_m_Source_File_Index>
770

> <chembl_id>
CHEMBL1975903

> <chembl_pref_name>
None

> <i_lp_mmshare_version>
53161

> <r_lp_tautomer_probability>
0.999999987636

> <s_lp_Force_Field>
OPLS_2005

> <r_lp_Energy>
12.049523

> <b_lp_Chiralities_Consistent>
1

> <s_lp_Variant>
CHEMBL3231_lig1450-1

> <s_i_glide_gridfile>
glide-grid_2etr

> <i_i_glide_lignum>
2037

> <i_i_glide_rotatable_bonds>
5

> <r_i_docking_score>
-6.94459104578673

> <r_i_glide_ligand_efficiency>
-0.277783641831469

> <r_i_glide_ligand_efficiency_sa>
-0.812244295229081

> <r_i_glide_ligand_efficiency_ln>
-1.64607619045144

> <r_i_glide_gscore>
-6.94459104578673

> <r_i_glide_lipo>
-2.94811096710434

> <r_i_glide_hbond>
-0.12004341121496

> <r_i_glide_metal>
0

> <r_i_glide_rewards>
-1.63125625890562

> <r_i_glide_evdw>
-40.7638816833496

> <r_i_glide_ecoul>
-4.02573728561401

> <r_i_glide_erotb>
0.454099520264952

> <r_i_glide_esite>
-0.0572252518171831

> <r_i_glide_emodel>
-59.8471430835372

> <r_i_glide_energy>
-44.7896189689636

> <r_i_glide_einternal>
8.62249755859375

> <i_i_glide_confnum>
21

> <i_i_glide_posenum>
237

> <r_i_glide_eff_state_penalty>
0

> <s_user_duplicate_titles>
CHEMBL3231_lig1450

> <i_f3d_flags>
0

> <s_m_subgroup_title>
dock_pv

> <s_m_subgroupid>
dock_pv

> <b_m_subgroup_collapsed>
1

$$$$
CHEMBL3231_lig442
                    3D
 Schrodinger Suite 2021-1.
 39 41  0  0  1  0            999 V2000
   54.7197  107.6313   35.7803 C   0  0  0  0  0  0
   54.8430  106.1762   35.3657 C   0  0  0  0  0  0
   54.8402  105.1623   36.3249 C   0  0  0  0  0  0
   54.9294  103.8293   35.9274 C   0  0  0  0  0  0
   55.0204  103.5018   34.5712 C   0  0  0  0  0  0
   55.0574  102.0230   34.1672 C   0  0  0  0  0  0
   54.7720  101.7034   32.7618 N   0  0  0  0  0  0
   53.5897  101.8869   32.1504 C   0  0  0  0  0  0
   52.5883  102.3393   32.7147 O   0  0  0  0  0  0
   53.6435  101.5134   30.8585 N   0  0  0  0  0  0
   52.6079  101.6466   29.9477 C   0  0  0  0  0  0
   52.3393  100.7156   29.0709 N   0  0  0  0  0  0
   51.3610  101.0537   28.2431 C   0  0  0  0  0  0
   50.8465  102.3381   28.4502 C   0  0  0  0  0  0
   51.6680  103.1030   29.7756 S   0  0  0  0  0  0
   50.9053  100.0923   27.1984 C   0  0  0  0  0  0
   50.4238  100.5660   25.9706 C   0  0  0  0  0  0
   50.0124   99.6454   25.0073 C   0  0  0  0  0  0
   50.0431   98.3041   25.2106 N   0  0  0  0  0  0
   50.5035   97.8534   26.4029 C   0  0  0  0  0  0
   50.9487   98.7072   27.4112 C   0  0  0  0  0  0
   55.0273  104.5250   33.6172 C   0  0  0  0  0  0
   54.9351  105.8552   34.0126 C   0  0  0  0  0  0
   54.3027  107.7337   36.7827 H   0  0  0  0  0  0
   55.6866  108.1314   35.7360 H   0  0  0  0  0  0
   54.0448  108.1549   35.1011 H   0  0  0  0  0  0
   54.7577  105.4011   37.3757 H   0  0  0  0  0  0
   54.9141  103.0493   36.6751 H   0  0  0  0  0  0
   56.0417  101.6278   34.4217 H   0  0  0  0  0  0
   54.3528  101.4706   34.7925 H   0  0  0  0  0  0
   55.5670  101.4473   32.1937 H   0  0  0  0  0  0
   54.4842  101.0602   30.5257 H   0  0  0  0  0  0
   50.0607  102.8443   27.9098 H   0  0  0  0  0  0
   50.3785  101.6236   25.7585 H   0  0  0  0  0  0
   49.6429   99.9814   24.0479 H   0  0  0  0  0  0
   50.5191   96.7828   26.5416 H   0  0  0  0  0  0
   51.3124   98.2981   28.3425 H   0  0  0  0  0  0
   55.0872  104.3025   32.5615 H   0  0  0  0  0  0
   54.9122  106.6310   33.2585 H   0  0  0  0  0  0
  1  2  1  0  0  0
  1 24  1  0  0  0
  1 25  1  0  0  0
  1 26  1  0  0  0
  2  3  2  0  0  0
  2 23  1  0  0  0
  3  4  1  0  0  0
  3 27  1  0  0  0
  4  5  2  0  0  0
  4 28  1  0  0  0
  5  6  1  0  0  0
  5 22  1  0  0  0
  6  7  1  0  0  0
  6 29  1  0  0  0
  6 30  1  0  0  0
  7  8  1  0  0  0
  7 31  1  0  0  0
  8  9  2  0  0  0
  8 10  1  0  0  0
 10 11  1  0  0  0
 10 32  1  0  0  0
 11 12  2  0  0  0
 11 15  1  0  0  0
 12 13  1  0  0  0
 13 14  2  0  0  0
 13 16  1  0  0  0
 14 15  1  0  0  0
 14 33  1  0  0  0
 16 17  2  0  0  0
 16 21  1  0  0  0
 17 18  1  0  0  0
 17 34  1  0  0  0
 18 19  2  0  0  0
 18 35  1  0  0  0
 19 20  1  0  0  0
 20 21  2  0  0  0
 20 36  1  0  0  0
 21 37  1  0  0  0
 22 23  2  0  0  0
 22 38  1  0  0  0
 23 39  1  0  0  0
M  END
> <s_m_entry_id>
28610

> <s_m_entry_name>
dock_pv.771

> <s_m_Source_Path>
/home/csk/Desktop/cluster/DUD-E-result/rock1

> <s_m_Source_File>
dock_pv.maegz

> <i_m_Source_File_Index>
771

> <chembl_id>
CHEMBL3218028

> <chembl_pref_name>
None

> <i_lp_mmshare_version>
53161

> <r_lp_tautomer_probability>
0.999000488399163

> <s_lp_Force_Field>
OPLS_2005

> <r_lp_Energy>
6.959431

> <b_lp_Chiralities_Consistent>
1

> <s_lp_Variant>
CHEMBL3231_lig442-1

> <s_i_glide_gridfile>
glide-grid_2etr

> <i_i_glide_lignum>
626

> <i_i_glide_rotatable_bonds>
6

> <r_i_docking_score>
-6.94284308752592

> <r_i_glide_ligand_efficiency>
-0.30186274293591

> <r_i_glide_ligand_efficiency_sa>
-0.858457486185625

> <r_i_glide_ligand_efficiency_ln>
-1.67884241278428

> <r_i_glide_gscore>
-6.94284308752592

> <r_i_glide_lipo>
-2.08842001173632

> <r_i_glide_hbond>
-0.25239532527583

> <r_i_glide_metal>
0

> <r_i_glide_rewards>
-2.53053925471076

> <r_i_glide_evdw>
-38.9046440124512

> <r_i_glide_ecoul>
-7.42531967163086

> <r_i_glide_erotb>
1.06772256529028

> <r_i_glide_esite>
-0.0801809097261006

> <r_i_glide_emodel>
-65.1538344083819

> <r_i_glide_energy>
-46.329963684082

> <r_i_glide_einternal>
3.23623991012573

> <i_i_glide_confnum>
16

> <i_i_glide_posenum>
388

> <r_i_glide_eff_state_penalty>
0

> <s_user_duplicate_titles>
CHEMBL3231_lig442

> <i_f3d_flags>
0

> <s_m_subgroup_title>
dock_pv

> <s_m_subgroupid>
dock_pv

> <b_m_subgroup_collapsed>
1

$$$$
CHEMBL3231_lig559
                    3D
 Schrodinger Suite 2021-1.
 36 38  0  0  1  0            999 V2000
   54.8458   94.1688   32.5661 Cl  0  0  0  0  0  0
   54.6161   95.6481   33.4255 C   0  0  0  0  0  0
   53.8333   95.6626   34.5806 C   0  0  0  0  0  0
   53.6431   96.8554   35.2808 C   0  0  0  0  0  0
   52.6782   96.8741   36.7119 Cl  0  0  0  0  0  0
   54.2290   98.0358   34.8211 C   0  0  0  0  0  0
   55.0049   98.0326   33.6586 C   0  0  0  0  0  0
   55.6720   99.3205   33.1782 C   0  0  0  0  0  0
   54.7788  100.3455   32.6272 N   0  0  0  0  0  0
   53.9350  100.1716   31.5975 C   0  0  0  0  0  0
   53.6757   99.0729   31.1028 O   0  0  0  0  0  0
   53.4200  101.3483   31.1777 N   0  0  0  0  0  0
   52.5331  101.5103   30.1214 C   0  0  0  0  0  0
   52.1623  100.5966   29.2554 N   0  0  0  0  0  0
   51.3139  101.0455   28.3457 C   0  0  0  0  0  0
   50.9661  102.3913   28.5130 C   0  0  0  0  0  0
   51.8225  103.0666   29.8720 S   0  0  0  0  0  0
   50.8449  100.1216   27.2684 C   0  0  0  0  0  0
   50.8562   98.7289   27.4537 C   0  0  0  0  0  0
   50.4450   97.9013   26.4106 C   0  0  0  0  0  0
   50.0426   98.3819   25.2110 N   0  0  0  0  0  0
   50.0321   99.7276   25.0363 C   0  0  0  0  0  0
   50.4141  100.6253   26.0341 C   0  0  0  0  0  0
   55.2074   96.8293   32.9698 C   0  0  0  0  0  0
   53.3768   94.7486   34.9310 H   0  0  0  0  0  0
   54.0791   98.9554   35.3654 H   0  0  0  0  0  0
   56.2045   99.7611   34.0231 H   0  0  0  0  0  0
   56.4430   99.1034   32.4408 H   0  0  0  0  0  0
   54.9998  101.2929   32.8979 H   0  0  0  0  0  0
   53.6991  102.1866   31.6623 H   0  0  0  0  0  0
   50.3017  102.9964   27.9137 H   0  0  0  0  0  0
   51.1834   98.2910   28.3861 H   0  0  0  0  0  0
   50.4439   96.8275   26.5247 H   0  0  0  0  0  0
   49.7026  100.0847   24.0714 H   0  0  0  0  0  0
   50.3925  101.6877   25.8412 H   0  0  0  0  0  0
   55.8203   96.8117   32.0797 H   0  0  0  0  0  0
  1  2  1  0  0  0
  2  3  2  0  0  0
  2 24  1  0  0  0
  3  4  1  0  0  0
  3 25  1  0  0  0
  4  5  1  0  0  0
  4  6  2  0  0  0
  6  7  1  0  0  0
  6 26  1  0  0  0
  7  8  1  0  0  0
  7 24  2  0  0  0
  8  9  1  0  0  0
  8 27  1  0  0  0
  8 28  1  0  0  0
  9 10  1  0  0  0
  9 29  1  0  0  0
 10 11  2  0  0  0
 10 12  1  0  0  0
 12 13  1  0  0  0
 12 30  1  0  0  0
 13 14  2  0  0  0
 13 17  1  0  0  0
 14 15  1  0  0  0
 15 16  2  0  0  0
 15 18  1  0  0  0
 16 17  1  0  0  0
 16 31  1  0  0  0
 18 19  2  0  0  0
 18 23  1  0  0  0
 19 20  1  0  0  0
 19 32  1  0  0  0
 20 21  2  0  0  0
 20 33  1  0  0  0
 21 22  1  0  0  0
 22 23  2  0  0  0
 22 34  1  0  0  0
 23 35  1  0  0  0
 24 36  1  0  0  0
M  END
> <s_m_entry_id>
28611

> <s_m_entry_name>
dock_pv.772

> <s_m_Source_Path>
/home/csk/Desktop/cluster/DUD-E-result/rock1

> <s_m_Source_File>
dock_pv.maegz

> <i_m_Source_File_Index>
772

> <chembl_id>
CHEMBL3908001

> <chembl_pref_name>
None

> <i_lp_mmshare_version>
53161

> <r_lp_tautomer_probability>
0.999000488399163

> <s_lp_Force_Field>
OPLS_2005

> <r_lp_Energy>
5.447995

> <b_lp_Chiralities_Consistent>
1

> <s_lp_Variant>
CHEMBL3231_lig559-1

> <s_i_glide_gridfile>
glide-grid_2etr

> <i_i_glide_lignum>
837

> <i_i_glide_rotatable_bonds>
6

> <r_i_docking_score>
-6.93687897313832

> <r_i_glide_ligand_efficiency>
-0.289036623880764

> <r_i_glide_ligand_efficiency_sa>
-0.833725892307062

> <r_i_glide_ligand_efficiency_ln>
-1.66031345090655

> <r_i_glide_gscore>
-6.93687897313832

> <r_i_glide_lipo>
-2.26799951676461

> <r_i_glide_hbond>
-0.200169538414367

> <r_i_glide_metal>
0

> <r_i_glide_rewards>
-2.15309826939654

> <r_i_glide_evdw>
-43.5875587463379

> <r_i_glide_ecoul>
-4.75692176818848

> <r_i_glide_erotb>
0.673937302622802

> <r_i_glide_esite>
-0.0966327486404457

> <r_i_glide_emodel>
-69.3800970037417

> <r_i_glide_energy>
-48.3444805145264

> <r_i_glide_einternal>
1.95623111724854

> <i_i_glide_confnum>
5

> <i_i_glide_posenum>
41

> <r_i_glide_eff_state_penalty>
0

> <s_user_duplicate_titles>
CHEMBL3231_lig559

> <i_f3d_flags>
0

> <s_m_subgroup_title>
dock_pv

> <s_m_subgroupid>
dock_pv

> <b_m_subgroup_collapsed>
1

$$$$
CHEMBL3231_lig230
                    3D
 Schrodinger Suite 2021-1.
 68 72  0  0  1  0            999 V2000
   52.0594  102.8991   32.5276 C   0  0  0  0  0  0
   52.7599  102.3869   31.5029 N   0  0  0  0  0  0
   50.6398  100.0600   26.7645 C   0  0  0  0  0  0
   52.1687  102.7160   34.9780 N   0  0  2  0  0  0
   52.8829  103.2184   33.7986 C   0  0  2  0  0  0
   53.6680  105.1276   35.2856 C   0  0  0  0  0  0
   50.0432   98.5053   25.2113 N   0  0  0  0  0  0
   51.1920  100.6767   28.0026 C   0  0  0  0  0  0
   52.2231  101.8441   30.3283 C   0  0  0  0  0  0
   52.6570  100.5661   29.9500 C   0  0  0  0  0  0
   49.6916   99.7270   24.8109 N   0  0  0  0  0  0
   53.0497  104.7479   33.9441 C   0  0  0  0  0  0
   54.4509   97.1262   34.4597 N   0  0  1  0  0  0
   52.1107   99.9842   28.7952 C   0  0  0  0  0  0
   53.6197  104.2156   36.3603 C   0  0  0  0  0  0
   50.0373  100.7047   25.6980 C   0  0  0  0  0  0
   53.0317  102.8182   36.1553 C   0  0  0  0  0  0
   53.5533   99.9484   30.8002 O   0  0  0  0  0  0
   50.5994   98.7056   26.3845 C   0  0  0  0  0  0
   54.2487  106.3838   35.4774 C   0  0  0  0  0  0
   50.8371  103.0939   32.4890 O   0  0  0  0  0  0
   50.7975  101.9644   28.3830 C   0  0  0  0  0  0
   51.3084  102.5469   29.5406 C   0  0  0  0  0  0
   54.1670  104.5926   37.5917 C   0  0  0  0  0  0
   55.6297   97.8700   33.9832 C   0  0  0  0  0  0
   53.7472   96.3847   33.4005 C   0  0  0  0  0  0
   54.7913  106.7610   36.7153 C   0  0  0  0  0  0
   54.3539   98.8425   30.3962 C   0  0  0  0  0  0
   54.7492  105.8456   37.7653 C   0  0  0  0  0  0
   54.6504   97.9822   31.6403 C   0  0  0  0  0  0
   55.2700   98.7898   32.7998 C   0  0  0  0  0  0
   53.3908   97.2960   32.2068 C   0  0  0  0  0  0
   55.3712  107.9845   36.9788 O   0  0  0  0  0  0
   54.8186   96.2271   35.5502 C   0  0  0  0  0  0
   55.2432  109.0243   36.0133 C   0  0  0  0  0  0
   53.7313  102.1587   31.6641 H   0  0  0  0  0  0
   51.9211  101.7457   34.8451 H   0  0  0  0  0  0
   53.8511  102.7159   33.7113 H   0  0  0  0  0  0
   49.2461   99.8967   23.9140 H   0  0  0  0  0  0
   52.0756  105.2382   33.8895 H   0  0  0  0  0  0
   53.6539  105.1414   33.1246 H   0  0  0  0  0  0
   52.3931   98.9894   28.4919 H   0  0  0  0  0  0
   49.8270  101.7471   25.5010 H   0  0  0  0  0  0
   53.8465  102.0943   36.0876 H   0  0  0  0  0  0
   52.4298  102.5392   37.0225 H   0  0  0  0  0  0
   50.9723   97.8773   26.9678 H   0  0  0  0  0  0
   54.2497  107.0633   34.6368 H   0  0  0  0  0  0
   50.0909  102.5191   27.7863 H   0  0  0  0  0  0
   50.9968  103.5413   29.8203 H   0  0  0  0  0  0
   54.1469  103.9016   38.4238 H   0  0  0  0  0  0
   56.4152   97.1711   33.6841 H   0  0  0  0  0  0
   56.0420   98.4618   34.8010 H   0  0  0  0  0  0
   54.3691   95.5533   33.0633 H   0  0  0  0  0  0
   52.8434   95.9399   33.8181 H   0  0  0  0  0  0
   53.9020   98.2123   29.6359 H   0  0  0  0  0  0
   55.2802   99.2255   29.9667 H   0  0  0  0  0  0
   55.1632  106.1188   38.7263 H   0  0  0  0  0  0
   55.3607   97.2057   31.3537 H   0  0  0  0  0  0
   56.1645   99.3032   32.4466 H   0  0  0  0  0  0
   54.6204   99.6007   33.1300 H   0  0  0  0  0  0
   52.6255   98.0201   32.4904 H   0  0  0  0  0  0
   52.9121   96.7035   31.4272 H   0  0  0  0  0  0
   53.9367   95.7173   35.9415 H   0  0  0  0  0  0
   55.5339   95.4681   35.2231 H   0  0  0  0  0  0
   55.2656   96.7842   36.3745 H   0  0  0  0  0  0
   55.8009  109.8967   36.3468 H   0  0  0  0  0  0
   54.2019  109.3185   35.8859 H   0  0  0  0  0  0
   55.6427  108.7248   35.0460 H   0  0  0  0  0  0
  1  2  1  0  0  0
  1  5  1  0  0  0
  1 21  2  0  0  0
  2  9  1  0  0  0
  2 36  1  0  0  0
  3  8  1  0  0  0
  3 16  2  0  0  0
  3 19  1  0  0  0
  4  5  1  0  0  0
  4 17  1  0  0  0
  4 37  1  0  0  0
  5 12  1  0  0  0
  5 38  1  0  0  0
  6 12  1  0  0  0
  6 20  1  0  0  0
  6 15  2  0  0  0
  7 19  2  0  0  0
  7 11  1  0  0  0
  8 14  2  0  0  0
  8 22  1  0  0  0
  9 10  2  0  0  0
  9 23  1  0  0  0
 10 14  1  0  0  0
 10 18  1  0  0  0
 11 16  1  0  0  0
 11 39  1  0  0  0
 12 40  1  0  0  0
 12 41  1  0  0  0
 13 25  1  0  0  0
 13 34  1  0  0  0
 13 26  1  0  0  0
 14 42  1  0  0  0
 15 17  1  0  0  0
 15 24  1  0  0  0
 16 43  1  0  0  0
 17 44  1  0  0  0
 17 45  1  0  0  0
 18 28  1  0  0  0
 19 46  1  0  0  0
 20 27  2  0  0  0
 20 47  1  0  0  0
 22 23  2  0  0  0
 22 48  1  0  0  0
 23 49  1  0  0  0
 24 29  2  0  0  0
 24 50  1  0  0  0
 25 31  1  0  0  0
 25 51  1  0  0  0
 25 52  1  0  0  0
 26 32  1  0  0  0
 26 53  1  0  0  0
 26 54  1  0  0  0
 27 33  1  0  0  0
 27 29  1  0  0  0
 28 30  1  0  0  0
 28 55  1  0  0  0
 28 56  1  0  0  0
 29 57  1  0  0  0
 30 31  1  0  0  0
 30 32  1  0  0  0
 30 58  1  0  0  0
 31 59  1  0  0  0
 31 60  1  0  0  0
 32 61  1  0  0  0
 32 62  1  0  0  0
 33 35  1  0  0  0
 34 63  1  0  0  0
 34 64  1  0  0  0
 34 65  1  0  0  0
 35 66  1  0  0  0
 35 67  1  0  0  0
 35 68  1  0  0  0
M  END
> <s_m_entry_id>
28612

> <s_m_entry_name>
dock_pv.773

> <s_m_Source_Path>
/home/csk/Desktop/cluster/DUD-E-result/rock1

> <s_m_Source_File>
dock_pv.maegz

> <i_m_Source_File_Index>
773

> <chembl_id>
CHEMBL1215304

> <chembl_pref_name>
None

> <i_lp_mmshare_version>
53161

> <r_lp_tautomer_probability>
0.5

> <s_lp_Force_Field>
OPLS_2005

> <r_lp_Energy>
44.359621

> <b_lp_Chiralities_Consistent>
1

> <s_lp_Variant>
CHEMBL3231_lig230-1

> <s_i_glide_gridfile>
glide-grid_2etr

> <i_i_glide_lignum>
374

> <i_i_glide_rotatable_bonds>
8

> <r_i_docking_score>
-6.93315577441801

> <r_i_glide_ligand_efficiency>
-0.198090164983372

> <r_i_glide_ligand_efficiency_sa>
-0.647966064288892

> <r_i_glide_ligand_efficiency_ln>
-1.5219815655867

> <r_i_glide_gscore>
-6.93315577441801

> <r_i_glide_lipo>
-1.92879438397105

> <r_i_glide_hbond>
-0.524108250346839

> <r_i_glide_metal>
0

> <r_i_glide_rewards>
-1.10942578286122

> <r_i_glide_evdw>
-44.8082695007324

> <r_i_glide_ecoul>
-10.0510454177856

> <r_i_glide_erotb>
0.438559494456429

> <r_i_glide_esite>
-0.0613165639908651

> <r_i_glide_emodel>
-76.0761752481463

> <r_i_glide_energy>
-54.8593149185181

> <r_i_glide_einternal>
7.27567720413208

> <i_i_glide_confnum>
7

> <i_i_glide_posenum>
20

> <r_i_glide_eff_state_penalty>
0

> <s_user_duplicate_titles>
CHEMBL3231_lig230,687166

> <i_f3d_flags>
0

> <s_m_subgroup_title>
dock_pv

> <s_m_subgroupid>
dock_pv

> <b_m_subgroup_collapsed>
1

$$$$
CHEMBL3231_lig224
                    3D
 Schrodinger Suite 2021-1.
 42 44  0  0  1  0            999 V2000
   53.1339  103.0929   31.1337 C   0  0  0  0  0  0
   53.4325  102.9641   32.4842 C   0  0  0  0  0  0
   53.2067  101.7706   33.1733 C   0  0  0  0  0  0
   52.6785  100.6654   32.4959 C   0  0  0  0  0  0
   52.5629  101.9957   30.4770 C   0  0  0  0  0  0
   52.3323  100.7545   31.1319 C   0  0  0  0  0  0
   51.7425   99.7693   30.2626 C   0  0  0  0  0  0
   51.5266  100.2696   28.9730 C   0  0  0  0  0  0
   52.0434  101.9441   28.8172 S   0  0  0  0  0  0
   51.4068   98.3723   30.7624 C   0  0  0  0  0  0
   50.9324   99.6041   27.7562 C   0  0  0  0  0  0
   50.3716  100.4315   26.8285 N   0  0  0  0  0  0
   49.8774   99.8611   25.7062 C   0  0  0  0  0  0
   49.9062   98.5434   25.4031 N   0  0  0  0  0  0
   50.4431   97.7324   26.3464 C   0  0  0  0  0  0
   50.9686   98.2189   27.5452 C   0  0  0  0  0  0
   49.2439  100.7029   24.8110 N   0  0  0  0  0  0
   53.5113  101.6497   34.6730 C   0  0  2  0  0  0
   52.8413  102.7005   35.4262 N   0  0  0  0  0  0
   55.0211  101.5739   35.0518 C   0  0  0  0  0  0
   55.8333  102.8684   34.8116 C   0  0  0  0  0  0
   55.7153  100.3588   34.4049 C   0  0  0  0  0  0
   53.3359  104.0192   30.6145 H   0  0  0  0  0  0
   53.8522  103.8154   32.9995 H   0  0  0  0  0  0
   52.5225   99.7443   33.0328 H   0  0  0  0  0  0
   50.5005   97.9684   30.3081 H   0  0  0  0  0  0
   52.2166   97.6710   30.5596 H   0  0  0  0  0  0
   51.2357   98.3386   31.8355 H   0  0  0  0  0  0
   50.4434   96.6777   26.1245 H   0  0  0  0  0  0
   51.3957   97.5371   28.2599 H   0  0  0  0  0  0
   49.2416  101.6927   25.0042 H   0  0  0  0  0  0
   48.9517  100.3381   23.9057 H   0  0  0  0  0  0
   53.0514  100.7266   35.0302 H   0  0  0  0  0  0
   53.3575  103.5649   35.3385 H   0  0  0  0  0  0
   51.9179  102.8515   35.0474 H   0  0  0  0  0  0
   55.0567  101.3956   36.1281 H   0  0  0  0  0  0
   55.9330  103.0999   33.7512 H   0  0  0  0  0  0
   56.8438  102.7669   35.2112 H   0  0  0  0  0  0
   55.3831  103.7294   35.3044 H   0  0  0  0  0  0
   55.7426  100.4390   33.3169 H   0  0  0  0  0  0
   56.7463  100.2614   34.7512 H   0  0  0  0  0  0
   55.2035   99.4297   34.6523 H   0  0  0  0  0  0
  1  5  2  0  0  0
  1  2  1  0  0  0
  1 23  1  0  0  0
  2  3  2  0  0  0
  2 24  1  0  0  0
  3 18  1  0  0  0
  3  4  1  0  0  0
  4  6  2  0  0  0
  4 25  1  0  0  0
  5  6  1  0  0  0
  5  9  1  0  0  0
  6  7  1  0  0  0
  7  8  2  0  0  0
  7 10  1  0  0  0
  8 11  1  0  0  0
  8  9  1  0  0  0
 10 26  1  0  0  0
 10 27  1  0  0  0
 10 28  1  0  0  0
 11 12  2  0  0  0
 11 16  1  0  0  0
 12 13  1  0  0  0
 13 14  2  0  0  0
 13 17  1  0  0  0
 14 15  1  0  0  0
 15 16  2  0  0  0
 15 29  1  0  0  0
 16 30  1  0  0  0
 17 31  1  0  0  0
 17 32  1  0  0  0
 18 19  1  0  0  0
 18 20  1  0  0  0
 18 33  1  0  0  0
 19 34  1  0  0  0
 19 35  1  0  0  0
 20 21  1  0  0  0
 20 22  1  0  0  0
 20 36  1  0  0  0
 21 37  1  0  0  0
 21 38  1  0  0  0
 21 39  1  0  0  0
 22 40  1  0  0  0
 22 41  1  0  0  0
 22 42  1  0  0  0
M  END
> <s_m_entry_id>
28613

> <s_m_entry_name>
dock_pv.774

> <s_m_Source_Path>
/home/csk/Desktop/cluster/DUD-E-result/rock1

> <s_m_Source_File>
dock_pv.maegz

> <i_m_Source_File_Index>
774

> <chembl_id>
CHEMBL1085935

> <chembl_pref_name>
None

> <i_lp_mmshare_version>
53161

> <r_lp_tautomer_probability>
0.999999987636

> <s_lp_Force_Field>
OPLS_2005

> <r_lp_Energy>
8.15477

> <b_lp_Chiralities_Consistent>
1

> <s_lp_Variant>
CHEMBL3231_lig224-1

> <s_i_glide_gridfile>
glide-grid_2etr

> <i_i_glide_lignum>
365

> <i_i_glide_rotatable_bonds>
3

> <r_i_docking_score>
-6.93283048143279

> <r_i_glide_ligand_efficiency>
-0.315128658246945

> <r_i_glide_ligand_efficiency_sa>
-0.8830028937148

> <r_i_glide_ligand_efficiency_ln>
-1.6946366507983

> <r_i_glide_gscore>
-6.93283048143279

> <r_i_glide_lipo>
-1.59918502993114

> <r_i_glide_hbond>
-0.32

> <r_i_glide_metal>
0

> <r_i_glide_rewards>
-2.87365545383063

> <r_i_glide_evdw>
-35.9512748718262

> <r_i_glide_ecoul>
-4.81793117523193

> <r_i_glide_erotb>
0.380263422205076

> <r_i_glide_esite>
0

> <r_i_glide_emodel>
-57.8923518682631

> <r_i_glide_energy>
-40.7692060470581

> <r_i_glide_einternal>
0.0421649515628815

> <i_i_glide_confnum>
5

> <i_i_glide_posenum>
367

> <r_i_glide_eff_state_penalty>
0

> <s_user_duplicate_titles>
CHEMBL3231_lig224

> <i_f3d_flags>
0

> <s_m_subgroup_title>
dock_pv

> <s_m_subgroupid>
dock_pv

> <b_m_subgroup_collapsed>
1

$$$$
CHEMBL3231_lig1881
                    3D
 Schrodinger Suite 2021-1.
 20 22  0  0  1  0            999 V2000
   50.5490  100.7020   25.7379 S   0  0  0  0  0  0
   51.1730   97.5058   29.6376 N   0  0  0  0  0  0
   51.6469   97.6495   30.8760 N   0  0  0  0  0  0
   51.2430   98.7127   29.1176 C   0  0  0  0  0  0
   50.8701   99.0967   27.7631 C   0  0  0  0  0  0
   51.6440   99.6851   30.0539 C   0  0  0  0  0  0
   51.0806  100.4202   27.3670 C   0  0  0  0  0  0
   50.3006   98.3212   26.7405 C   0  0  0  0  0  0
   51.7143  101.1771   29.7376 C   0  0  0  0  0  0
   51.7978  101.4684   28.2111 C   0  0  0  0  0  0
   51.9840   98.9429   31.1731 C   0  0  0  0  0  0
   50.0483   99.0506   25.5855 C   0  0  0  0  0  0
   51.7403   96.8644   31.5112 H   0  0  0  0  0  0
   50.0740   97.2715   26.8475 H   0  0  0  0  0  0
   52.5712  101.6288   30.2398 H   0  0  0  0  0  0
   50.8432  101.6851   30.1538 H   0  0  0  0  0  0
   51.4035  102.4655   28.0126 H   0  0  0  0  0  0
   52.8435  101.5075   27.9088 H   0  0  0  0  0  0
   52.3891   99.2159   32.1367 H   0  0  0  0  0  0
   49.6085   98.7067   24.6619 H   0  0  0  0  0  0
  1  7  1  0  0  0
  1 12  1  0  0  0
  2  4  2  0  0  0
  2  3  1  0  0  0
  3 13  1  0  0  0
  3 11  1  0  0  0
  4  5  1  0  0  0
  4  6  1  0  0  0
  5  7  2  0  0  0
  5  8  1  0  0  0
  6 11  2  0  0  0
  6  9  1  0  0  0
  7 10  1  0  0  0
  8 12  2  0  0  0
  8 14  1  0  0  0
  9 10  1  0  0  0
  9 15  1  0  0  0
  9 16  1  0  0  0
 10 17  1  0  0  0
 10 18  1  0  0  0
 11 19  1  0  0  0
 12 20  1  0  0  0
M  END
> <s_m_entry_id>
28614

> <s_m_entry_name>
dock_pv.775

> <s_m_Source_Path>
/home/csk/Desktop/cluster/DUD-E-result/rock1

> <s_m_Source_File>
dock_pv.maegz

> <i_m_Source_File_Index>
775

> <chembl_id>
CHEMBL2001539

> <chembl_pref_name>
None

> <i_lp_mmshare_version>
53161

> <r_lp_tautomer_probability>
0.5

> <s_lp_Force_Field>
OPLS_2005

> <r_lp_Energy>
10.910996

> <b_lp_Chiralities_Consistent>
1

> <s_lp_Variant>
CHEMBL3231_lig1881-2

> <s_i_glide_gridfile>
glide-grid_2etr

> <i_i_glide_lignum>
2725

> <i_i_glide_rotatable_bonds>
0

> <r_i_docking_score>
-6.93130525217145

> <r_i_glide_ligand_efficiency>
-0.577608771014287

> <r_i_glide_ligand_efficiency_sa>
-1.32239397251222

> <r_i_glide_ligand_efficiency_ln>
-1.98895004909044

> <r_i_glide_gscore>
-6.93130525217145

> <r_i_glide_lipo>
-2.24420284416468

> <r_i_glide_hbond>
-0.268709800821054

> <r_i_glide_metal>
0

> <r_i_glide_rewards>
-2.95745986363636

> <r_i_glide_evdw>
-25.1375923156738

> <r_i_glide_ecoul>
-1.36035418510437

> <r_i_glide_erotb>
0

> <r_i_glide_esite>
0

> <r_i_glide_emodel>
-37.7071183265531

> <r_i_glide_energy>
-26.4979465007782

> <r_i_glide_einternal>
0

> <i_i_glide_confnum>
1

> <i_i_glide_posenum>
156

> <r_i_glide_eff_state_penalty>
0

> <s_user_duplicate_titles>
CHEMBL3231_lig1881,CHEMBL3231_lig1881

> <i_f3d_flags>
0

> <s_m_subgroup_title>
dock_pv

> <s_m_subgroupid>
dock_pv

> <b_m_subgroup_collapsed>
1

$$$$
CHEMBL3231_lig222
                    3D
 Schrodinger Suite 2021-1.
 39 41  0  0  1  0            999 V2000
   53.3845  102.9570   31.0713 C   0  0  0  0  0  0
   53.8278  102.7580   32.3734 C   0  0  0  0  0  0
   53.6459  101.5394   33.0339 C   0  0  0  0  0  0
   52.9948  100.4879   32.3805 C   0  0  0  0  0  0
   52.7226  101.9002   30.4324 C   0  0  0  0  0  0
   52.5189  100.6424   31.0639 C   0  0  0  0  0  0
   51.8172   99.7074   30.2273 C   0  0  0  0  0  0
   51.5534  100.2343   28.9586 C   0  0  0  0  0  0
   52.0441  101.9191   28.8287 S   0  0  0  0  0  0
   51.4491   98.3234   30.7396 C   0  0  0  0  0  0
   50.9306   99.5864   27.7473 C   0  0  0  0  0  0
   50.3619  100.4201   26.8304 N   0  0  0  0  0  0
   49.8701   99.8565   25.7039 C   0  0  0  0  0  0
   49.9008   98.5413   25.3893 N   0  0  0  0  0  0
   50.4430   97.7247   26.3237 C   0  0  0  0  0  0
   50.9750   98.2040   27.5222 C   0  0  0  0  0  0
   49.2431  100.7030   24.8110 N   0  0  0  0  0  0
   54.1112  101.3216   34.4823 C   0  0  1  0  0  0
   55.2442  102.1561   34.8600 N   0  0  0  0  0  0
   52.9676  101.4985   35.5110 C   0  0  0  0  0  0
   52.3232  102.8980   35.5599 C   0  0  0  0  0  0
   53.5512  103.9036   30.5749 H   0  0  0  0  0  0
   54.3293  103.5730   32.8762 H   0  0  0  0  0  0
   52.8621   99.5481   32.8934 H   0  0  0  0  0  0
   52.2725   97.6170   30.6304 H   0  0  0  0  0  0
   51.1873   98.3383   31.7961 H   0  0  0  0  0  0
   50.5797   97.9006   30.2371 H   0  0  0  0  0  0
   50.4462   96.6713   26.0918 H   0  0  0  0  0  0
   51.4211   97.5221   28.2238 H   0  0  0  0  0  0
   49.2431  101.6924   25.0061 H   0  0  0  0  0  0
   48.9539  100.3413   23.9032 H   0  0  0  0  0  0
   54.4662  100.2916   34.5520 H   0  0  0  0  0  0
   55.4853  101.9863   35.8253 H   0  0  0  0  0  0
   56.0527  101.8857   34.3157 H   0  0  0  0  0  0
   53.3363  101.2427   36.5055 H   0  0  0  0  0  0
   52.1900  100.7623   35.3019 H   0  0  0  0  0  0
   51.5418  102.9399   36.3195 H   0  0  0  0  0  0
   51.8677  103.1607   34.6048 H   0  0  0  0  0  0
   53.0586  103.6671   35.8000 H   0  0  0  0  0  0
  1  5  2  0  0  0
  1  2  1  0  0  0
  1 22  1  0  0  0
  2  3  2  0  0  0
  2 23  1  0  0  0
  3 18  1  0  0  0
  3  4  1  0  0  0
  4  6  2  0  0  0
  4 24  1  0  0  0
  5  6  1  0  0  0
  5  9  1  0  0  0
  6  7  1  0  0  0
  7 10  1  0  0  0
  7  8  2  0  0  0
  8 11  1  0  0  0
  8  9  1  0  0  0
 10 25  1  0  0  0
 10 26  1  0  0  0
 10 27  1  0  0  0
 11 12  2  0  0  0
 11 16  1  0  0  0
 12 13  1  0  0  0
 13 14  2  0  0  0
 13 17  1  0  0  0
 14 15  1  0  0  0
 15 16  2  0  0  0
 15 28  1  0  0  0
 16 29  1  0  0  0
 17 30  1  0  0  0
 17 31  1  0  0  0
 18 19  1  0  0  0
 18 20  1  0  0  0
 18 32  1  0  0  0
 19 33  1  0  0  0
 19 34  1  0  0  0
 20 21  1  0  0  0
 20 35  1  0  0  0
 20 36  1  0  0  0
 21 37  1  0  0  0
 21 38  1  0  0  0
 21 39  1  0  0  0
M  END
> <s_m_entry_id>
28615

> <s_m_entry_name>
dock_pv.776

> <s_m_Source_Path>
/home/csk/Desktop/cluster/DUD-E-result/rock1

> <s_m_Source_File>
dock_pv.maegz

> <i_m_Source_File_Index>
776

> <chembl_id>
CHEMBL1083966

> <chembl_pref_name>
None

> <i_lp_mmshare_version>
53161

> <r_lp_tautomer_probability>
0.999999987636

> <s_lp_Force_Field>
OPLS_2005

> <r_lp_Energy>
5.090438

> <b_lp_Chiralities_Consistent>
1

> <s_lp_Variant>
CHEMBL3231_lig222-2

> <s_i_glide_gridfile>
glide-grid_2etr

> <i_i_glide_lignum>
362

> <i_i_glide_rotatable_bonds>
3

> <r_i_docking_score>
-6.93114179710877

> <r_i_glide_ligand_efficiency>
-0.330054371290894

> <r_i_glide_ligand_efficiency_sa>
-0.910594983550609

> <r_i_glide_ligand_efficiency_ln>
-1.71371080364439

> <r_i_glide_gscore>
-6.93114179710877

> <r_i_glide_lipo>
-1.62656265269577

> <r_i_glide_hbond>
-0.32

> <r_i_glide_metal>
0

> <r_i_glide_rewards>
-2.95826401464194

> <r_i_glide_evdw>
-35.0483665466309

> <r_i_glide_ecoul>
-4.57367706298828

> <r_i_glide_erotb>
0.412154757008726

> <r_i_glide_esite>
0

> <r_i_glide_emodel>
-56.5980114286795

> <r_i_glide_energy>
-39.6220436096191

> <r_i_glide_einternal>
0.195855900645256

> <i_i_glide_confnum>
3

> <i_i_glide_posenum>
314

> <r_i_glide_eff_state_penalty>
0

> <s_user_duplicate_titles>
CHEMBL3231_lig222

> <i_f3d_flags>
0

> <s_m_subgroup_title>
dock_pv

> <s_m_subgroupid>
dock_pv

> <b_m_subgroup_collapsed>
1

$$$$
CHEMBL3231_lig734
                    3D
 Schrodinger Suite 2021-1.
 42 44  0  0  1  0            999 V2000
   52.4888  104.7008   33.7155 C   0  0  0  0  0  0
   53.7508  103.9861   33.1717 C   0  0  2  0  0  0
   53.4156  103.1056   32.0386 N   0  0  0  0  0  0
   52.5866  102.0423   32.0698 C   0  0  0  0  0  0
   52.0981  101.5970   33.1090 O   0  0  0  0  0  0
   52.2246  101.4319   30.7384 C   0  0  0  0  0  0
   52.0900  102.2208   29.5910 C   0  0  0  0  0  0
   51.6148  101.6602   28.4084 C   0  0  0  0  0  0
   51.2704  100.3067   28.3136 C   0  0  0  0  0  0
   51.4522   99.5013   29.4590 C   0  0  0  0  0  0
   51.0846   98.0283   29.4839 C   0  0  0  0  0  0
   51.9275  100.0672   30.6486 C   0  0  0  0  0  0
   50.6893   99.8590   26.9914 C   0  0  0  0  0  0
   50.6514   98.5886   26.3747 C   0  0  0  0  0  0
   50.0430   98.5714   25.2109 N   0  0  0  0  0  0
   49.6923   99.8384   25.0058 N   0  0  0  0  0  0
   50.0475  100.6555   26.0428 C   0  0  0  0  0  0
   54.6498  103.3744   34.2651 C   0  0  0  0  0  0
   55.2051  102.1367   34.2321 C   0  0  0  0  0  0
   56.0302  101.7160   35.3561 C   0  0  0  0  0  0
   56.2060  102.5625   36.3960 C   0  0  0  0  0  0
   55.6426  103.9035   36.4183 C   0  0  0  0  0  0
   55.8802  104.7367   37.2867 O   0  0  0  0  0  0
   54.8743  104.2106   35.3397 N   0  0  0  0  0  0
   52.7463  105.5482   34.3509 H   0  0  0  0  0  0
   51.8817  105.0997   32.9033 H   0  0  0  0  0  0
   51.8648  104.0247   34.3018 H   0  0  0  0  0  0
   54.3656  104.7697   32.7226 H   0  0  0  0  0  0
   53.9472  103.2580   31.1933 H   0  0  0  0  0  0
   52.3071  103.2795   29.6110 H   0  0  0  0  0  0
   51.4906  102.3030   27.5562 H   0  0  0  0  0  0
   51.6431   97.4935   28.7337 H   0  0  0  0  0  0
   51.2656   97.5553   30.4510 H   0  0  0  0  0  0
   50.0431   97.8908   29.2285 H   0  0  0  0  0  0
   52.0246   99.4443   31.5276 H   0  0  0  0  0  0
   51.0684   97.6711   26.7547 H   0  0  0  0  0  0
   49.2135  100.1326   24.1615 H   0  0  0  0  0  0
   49.8153  101.7109   26.0143 H   0  0  0  0  0  0
   55.0561  101.4685   33.3966 H   0  0  0  0  0  0
   56.4985  100.7404   35.3575 H   0  0  0  0  0  0
   56.8204  102.2606   37.2297 H   0  0  0  0  0  0
   54.4760  105.1353   35.3685 H   0  0  0  0  0  0
  1  2  1  0  0  0
  1 25  1  0  0  0
  1 26  1  0  0  0
  1 27  1  0  0  0
  2  3  1  0  0  0
  2 28  1  0  0  0
  2 18  1  0  0  0
  3  4  1  0  0  0
  3 29  1  0  0  0
  4  5  2  0  0  0
  4  6  1  0  0  0
  6  7  2  0  0  0
  6 12  1  0  0  0
  7  8  1  0  0  0
  7 30  1  0  0  0
  8  9  2  0  0  0
  8 31  1  0  0  0
  9 10  1  0  0  0
  9 13  1  0  0  0
 10 11  1  0  0  0
 10 12  2  0  0  0
 11 32  1  0  0  0
 11 33  1  0  0  0
 11 34  1  0  0  0
 12 35  1  0  0  0
 13 14  1  0  0  0
 13 17  2  0  0  0
 14 15  2  0  0  0
 14 36  1  0  0  0
 15 16  1  0  0  0
 16 17  1  0  0  0
 16 37  1  0  0  0
 17 38  1  0  0  0
 18 24  1  0  0  0
 18 19  2  0  0  0
 19 39  1  0  0  0
 19 20  1  0  0  0
 20 40  1  0  0  0
 20 21  2  0  0  0
 21 22  1  0  0  0
 21 41  1  0  0  0
 22 23  2  0  0  0
 22 24  1  0  0  0
 24 42  1  0  0  0
M  END
> <s_m_entry_id>
28616

> <s_m_entry_name>
dock_pv.777

> <s_m_Source_Path>
/home/csk/Desktop/cluster/DUD-E-result/rock1

> <s_m_Source_File>
dock_pv.maegz

> <i_m_Source_File_Index>
777

> <chembl_id>
CHEMBL3975539

> <chembl_pref_name>
None

> <i_lp_mmshare_version>
53161

> <r_lp_tautomer_probability>
0.4995

> <s_lp_Force_Field>
OPLS_2005

> <r_lp_Energy>
22.748218

> <b_lp_Chiralities_Consistent>
1

> <s_lp_Variant>
CHEMBL3231_lig734-1

> <s_i_glide_gridfile>
glide-grid_2etr

> <i_i_glide_lignum>
1043

> <i_i_glide_rotatable_bonds>
5

> <r_i_docking_score>
-6.92797948428553

> <r_i_glide_ligand_efficiency>
-0.28866581184523

> <r_i_glide_ligand_efficiency_sa>
-0.83265628531037

> <r_i_glide_ligand_efficiency_ln>
-1.65818339485314

> <r_i_glide_gscore>
-6.92797948428553

> <r_i_glide_lipo>
-1.87655441250534

> <r_i_glide_hbond>
-0.362818246649191

> <r_i_glide_metal>
0

> <r_i_glide_rewards>
-2.37300969058644

> <r_i_glide_evdw>
-34.2470283508301

> <r_i_glide_ecoul>
-6.94284439086914

> <r_i_glide_erotb>
0.503845665619739

> <r_i_glide_esite>
-0.0656647239924295

> <r_i_glide_emodel>
-57.2181146210964

> <r_i_glide_energy>
-41.1898727416992

> <r_i_glide_einternal>
4.29938077926636

> <i_i_glide_confnum>
7

> <i_i_glide_posenum>
383

> <r_i_glide_eff_state_penalty>
0

> <s_user_duplicate_titles>
CHEMBL3231_lig734

> <i_f3d_flags>
0

> <s_m_subgroup_title>
dock_pv

> <s_m_subgroupid>
dock_pv

> <b_m_subgroup_collapsed>
1

$$$$
CHEMBL3231_lig1825
                    3D
 Schrodinger Suite 2021-1.
 45 50  0  0  1  0            999 V2000
   50.0351  104.9440   34.8520 F   0  0  0  0  0  0
   50.4410   97.9046   25.3693 F   0  0  0  0  0  0
   52.4790  103.9337   34.3372 O   0  0  0  0  0  0
   53.7399   98.4494   35.7933 O   0  0  0  0  0  0
   53.1041   99.7263   33.9425 N   0  0  0  0  0  0
   51.5336  100.4870   29.4311 N   0  0  0  0  0  0
   52.2700  100.2531   31.6764 N   0  0  0  0  0  0
   53.2987   97.5910   33.6993 N   0  0  0  0  0  0
   52.0431   98.2970   30.2584 N   0  0  0  0  0  0
   50.9855  102.4411   28.4105 N   0  0  0  0  0  0
   52.7086   99.4226   32.6540 C   0  0  0  0  0  0
   53.0851  101.0560   34.5781 C   0  0  2  0  0  0
   52.8430   98.0761   32.5020 C   0  0  0  0  0  0
   53.4200   98.5811   34.6129 C   0  0  0  0  0  0
   51.9596   99.6430   30.4918 C   0  0  0  0  0  0
   51.6915  101.6541   34.8218 C   0  0  0  0  0  0
   51.1509  100.1564   28.1300 C   0  0  0  0  0  0
   51.4854  103.0470   34.7165 C   0  0  0  0  0  0
   52.4927   97.5093   31.2780 C   0  0  0  0  0  0
   50.8429  101.4080   27.5289 C   0  0  0  0  0  0
   53.9976  102.0913   33.8821 C   0  0  0  0  0  0
   51.4129  101.8661   29.4974 C   0  0  0  0  0  0
   50.6024  100.8615   35.2121 C   0  0  0  0  0  0
   50.2315  103.6099   34.9759 C   0  0  0  0  0  0
   51.0303   98.9543   27.4110 C   0  0  0  0  0  0
   53.8239  103.4811   34.5107 C   0  0  0  0  0  0
   50.4422  101.4643   26.1891 C   0  0  0  0  0  0
   50.5975   99.0407   26.0858 C   0  0  0  0  0  0
   49.1694  102.7963   35.3657 C   0  0  0  0  0  0
   49.3569  101.4229   35.4871 C   0  0  0  0  0  0
   50.3181  100.2668   25.4829 C   0  0  0  0  0  0
   53.4946   96.6203   33.8971 H   0  0  0  0  0  0
   53.4950  100.9259   35.5824 H   0  0  0  0  0  0
   52.5437   96.4453   31.0974 H   0  0  0  0  0  0
   55.0401  101.7747   33.9375 H   0  0  0  0  0  0
   53.7583  102.1695   32.8212 H   0  0  0  0  0  0
   51.6610  102.3879   30.4102 H   0  0  0  0  0  0
   50.7282   99.7941   35.3247 H   0  0  0  0  0  0
   51.2447   97.9890   27.8442 H   0  0  0  0  0  0
   54.0688  103.4431   35.5746 H   0  0  0  0  0  0
   54.4980  104.2005   34.0430 H   0  0  0  0  0  0
   50.2076  102.4100   25.7248 H   0  0  0  0  0  0
   48.2038  103.2303   35.5785 H   0  0  0  0  0  0
   48.5379  100.7917   35.7986 H   0  0  0  0  0  0
   49.9874  100.2859   24.4535 H   0  0  0  0  0  0
  1 24  1  0  0  0
  2 28  1  0  0  0
  3 18  1  0  0  0
  3 26  1  0  0  0
  4 14  2  0  0  0
  5 11  1  0  0  0
  5 12  1  0  0  0
  5 14  1  0  0  0
  6 15  1  0  0  0
  6 17  1  0  0  0
  6 22  1  0  0  0
  7 11  2  0  0  0
  7 15  1  0  0  0
  8 13  1  0  0  0
  8 14  1  0  0  0
  8 32  1  0  0  0
  9 15  2  0  0  0
  9 19  1  0  0  0
 10 20  1  0  0  0
 10 22  2  0  0  0
 11 13  1  0  0  0
 12 16  1  0  0  0
 12 21  1  0  0  0
 12 33  1  0  0  0
 13 19  2  0  0  0
 16 18  1  0  0  0
 16 23  2  0  0  0
 17 20  1  0  0  0
 17 25  2  0  0  0
 18 24  2  0  0  0
 19 34  1  0  0  0
 20 27  2  0  0  0
 21 26  1  0  0  0
 21 35  1  0  0  0
 21 36  1  0  0  0
 22 37  1  0  0  0
 23 30  1  0  0  0
 23 38  1  0  0  0
 24 29  1  0  0  0
 25 28  1  0  0  0
 25 39  1  0  0  0
 26 40  1  0  0  0
 26 41  1  0  0  0
 27 31  1  0  0  0
 27 42  1  0  0  0
 28 31  2  0  0  0
 29 30  2  0  0  0
 29 43  1  0  0  0
 30 44  1  0  0  0
 31 45  1  0  0  0
M  END
> <s_m_entry_id>
28617

> <s_m_entry_name>
dock_pv.778

> <s_m_Source_Path>
/home/csk/Desktop/cluster/DUD-E-result/rock1

> <s_m_Source_File>
dock_pv.maegz

> <i_m_Source_File_Index>
778

> <chembl_id>
CHEMBL2000393

> <chembl_pref_name>
None

> <i_lp_mmshare_version>
53161

> <r_lp_tautomer_probability>
1

> <s_lp_Force_Field>
OPLS_2005

> <r_lp_Energy>
37.783059

> <b_lp_Chiralities_Consistent>
1

> <s_lp_Variant>
CHEMBL3231_lig1825-1

> <s_i_glide_gridfile>
glide-grid_2etr

> <i_i_glide_lignum>
2625

> <i_i_glide_rotatable_bonds>
2

> <r_i_docking_score>
-6.92558650445522

> <r_i_glide_ligand_efficiency>
-0.223406016272749

> <r_i_glide_ligand_efficiency_sa>
-0.701803336343723

> <r_i_glide_ligand_efficiency_ln>
-1.56193200049151

> <r_i_glide_gscore>
-6.92558650445522

> <r_i_glide_lipo>
-2.78752623651688

> <r_i_glide_hbond>
0

> <r_i_glide_metal>
0

> <r_i_glide_rewards>
-1.54019287423187

> <r_i_glide_evdw>
-45.4474105834961

> <r_i_glide_ecoul>
-3.12343263626099

> <r_i_glide_erotb>
0.22400050772532

> <r_i_glide_esite>
-0.0809824768178356

> <r_i_glide_emodel>
-68.6732556572745

> <r_i_glide_energy>
-48.5708432197571

> <r_i_glide_einternal>
0.903500974178314

> <i_i_glide_confnum>
2

> <i_i_glide_posenum>
290

> <r_i_glide_eff_state_penalty>
0

> <s_user_duplicate_titles>
CHEMBL3231_lig1825

> <i_f3d_flags>
0

> <s_m_subgroup_title>
dock_pv

> <s_m_subgroupid>
dock_pv

> <b_m_subgroup_collapsed>
1

$$$$
CHEMBL3231_lig1044 
                    3D
 Schrodinger Suite 2021-1.
 58 61  0  0  1  0            999 V2000
   50.3423  101.0351   35.0847 C   0  0  0  0  0  0
   51.6504  101.4940   34.9924 C   0  0  0  0  0  0
   51.9126  102.8673   35.0276 C   0  0  0  0  0  0
   50.8595  103.7771   35.1757 C   0  0  0  0  0  0
   49.5519  103.3174   35.2696 C   0  0  0  0  0  0
   49.3022  101.9496   35.2107 C   0  0  0  0  0  0
   53.3386  103.3672   34.8808 C   0  0  1  0  0  0
   53.6022  104.1015   33.5310 C   0  0  1  0  0  0
   54.8782  104.9931   33.5164 C   0  0  0  0  0  0
   55.2433  105.5931   34.8092 N   0  0  2  0  0  0
   55.2334  104.6508   35.9271 C   0  0  1  0  0  0
   53.7673  104.2084   36.0928 C   0  0  0  0  0  0
   53.4694  103.2430   32.3400 N   0  0  0  0  0  0
   56.2831  103.4976   35.8543 C   0  0  0  0  0  0
   48.5329  104.1977   35.4014 F   0  0  0  0  0  0
   48.0428  101.5035   35.2406 F   0  0  0  0  0  0
   52.3254  102.9533   31.6876 C   0  0  0  0  0  0
   52.4101  101.8795   30.7426 C   0  0  0  0  0  0
   51.2438  103.5028   31.8970 O   0  0  0  0  0  0
   53.3711  100.9313   30.8833 O   0  0  0  0  0  0
   53.1003   99.9461   29.9895 C   0  0  0  0  0  0
   51.9717  100.2672   29.2302 C   0  0  0  0  0  0
   51.5442  101.5031   29.7252 C   0  0  0  0  0  0
   54.1516   98.5861   30.0107 Cl  0  0  0  0  0  0
   51.3172   99.4719   28.1919 C   0  0  0  0  0  0
   50.9878   99.8977   26.9179 N   0  0  0  0  0  0
   50.4427   98.9374   26.1614 N   0  0  0  0  0  0
   50.3634   97.9036   26.9585 C   0  0  0  0  0  0
   50.8468   98.1665   28.2435 C   0  0  0  0  0  0
   51.1866  101.1989   26.3030 C   0  0  0  0  0  0
   50.8437   97.1076   29.6017 Cl  0  0  0  0  0  0
   56.2869  102.5330   37.0486 C   0  0  0  0  0  0
   56.8438  101.3335   36.8293 N   0  0  0  0  0  0
   56.9238  100.2527   37.8046 C   0  0  0  0  0  0
   55.8084  102.8722   38.1305 O   0  0  0  0  0  0
   50.1316   99.9771   35.0393 H   0  0  0  0  0  0
   52.4538  100.7811   34.8749 H   0  0  0  0  0  0
   51.0478  104.8403   35.1992 H   0  0  0  0  0  0
   53.9598  102.4707   34.8869 H   0  0  0  0  0  0
   52.8200  104.8511   33.3805 H   0  0  0  0  0  0
   55.7323  104.4162   33.1587 H   0  0  0  0  0  0
   54.7380  105.8142   32.8120 H   0  0  0  0  0  0
   54.6114  106.3623   34.9997 H   0  0  0  0  0  0
   55.4724  105.2433   36.8127 H   0  0  0  0  0  0
   53.6396  103.6653   37.0295 H   0  0  0  0  0  0
   53.1346  105.0957   36.1540 H   0  0  0  0  0  0
   54.3065  102.7589   32.0456 H   0  0  0  0  0  0
   57.2877  103.9029   35.7865 H   0  0  0  0  0  0
   56.1547  102.9199   34.9389 H   0  0  0  0  0  0
   50.6622  102.0418   29.4116 H   0  0  0  0  0  0
   49.9394   96.9692   26.6243 H   0  0  0  0  0  0
   51.3584  101.9441   27.0725 H   0  0  0  0  0  0
   52.0416  101.1619   25.6315 H   0  0  0  0  0  0
   50.2978  101.4810   25.7373 H   0  0  0  0  0  0
   57.4026  101.2107   35.9897 H   0  0  0  0  0  0
   56.5033   99.3426   37.3789 H   0  0  0  0  0  0
   56.3865  100.4687   38.7285 H   0  0  0  0  0  0
   57.9654  100.0583   38.0554 H   0  0  0  0  0  0
  1  2  2  0  0  0
  1  6  1  0  0  0
  1 36  1  0  0  0
  2  3  1  0  0  0
  2 37  1  0  0  0
  3  4  2  0  0  0
  3  7  1  0  0  0
  4  5  1  0  0  0
  4 38  1  0  0  0
  5  6  2  0  0  0
  5 15  1  0  0  0
  6 16  1  0  0  0
  7  8  1  0  0  0
  7 12  1  0  0  0
  7 39  1  0  0  0
  8  9  1  0  0  0
  8 13  1  0  0  0
  8 40  1  0  0  0
  9 10  1  0  0  0
  9 41  1  0  0  0
  9 42  1  0  0  0
 10 11  1  0  0  0
 10 43  1  0  0  0
 11 12  1  0  0  0
 11 14  1  0  0  0
 11 44  1  0  0  0
 12 45  1  0  0  0
 12 46  1  0  0  0
 13 17  1  0  0  0
 13 47  1  0  0  0
 14 32  1  0  0  0
 14 48  1  0  0  0
 14 49  1  0  0  0
 17 18  1  0  0  0
 17 19  2  0  0  0
 18 20  1  0  0  0
 18 23  2  0  0  0
 20 21  1  0  0  0
 21 22  2  0  0  0
 21 24  1  0  0  0
 22 23  1  0  0  0
 22 25  1  0  0  0
 23 50  1  0  0  0
 25 26  1  0  0  0
 25 29  2  0  0  0
 26 27  1  0  0  0
 26 30  1  0  0  0
 27 28  2  0  0  0
 28 29  1  0  0  0
 28 51  1  0  0  0
 29 31  1  0  0  0
 30 52  1  0  0  0
 30 53  1  0  0  0
 30 54  1  0  0  0
 32 33  1  0  0  0
 32 35  2  0  0  0
 33 34  1  0  0  0
 33 55  1  0  0  0
 34 56  1  0  0  0
 34 57  1  0  0  0
 34 58  1  0  0  0
M  END
> <s_m_entry_id>
28618

> <s_m_entry_name>
dock_pv.779

> <s_m_Source_Path>
/home/csk/Desktop/cluster/DUD-E-result/rock1

> <s_m_Source_File>
dock_pv.maegz

> <i_m_Source_File_Index>
779

> <chembl_id>
CHEMBL4440965

> <chembl_pref_name>
None

> <i_lp_mmshare_version>
53161

> <r_lp_tautomer_probability>
1

> <s_lp_Force_Field>
OPLS_2005

> <r_lp_Energy>
23.363513

> <b_lp_Chiralities_Consistent>
1

> <s_lp_Variant>
CHEMBL3231_lig1044 -1

> <s_i_glide_gridfile>
glide-grid_2etr

> <i_i_glide_lignum>
1459

> <i_i_glide_rotatable_bonds>
8

> <r_i_docking_score>
-6.92529977478269

> <r_i_glide_ligand_efficiency>
-0.197865707850934

> <r_i_glide_ligand_efficiency_sa>
-0.647231850125763

> <r_i_glide_ligand_efficiency_ln>
-1.52025699931223

> <r_i_glide_gscore>
-6.92529977478269

> <r_i_glide_lipo>
-2.52874946306521

> <r_i_glide_hbond>
-0.366049257761702

> <r_i_glide_metal>
0

> <r_i_glide_rewards>
-0.971328447485856

> <r_i_glide_evdw>
-42.5989799499512

> <r_i_glide_ecoul>
-8.7757043838501

> <r_i_glide_erotb>
0.520179512409515

> <r_i_glide_esite>
-0.133047463804369

> <r_i_glide_emodel>
-69.3800768756007

> <r_i_glide_energy>
-51.3746843338013

> <r_i_glide_einternal>
8.04447174072266

> <i_i_glide_confnum>
65

> <i_i_glide_posenum>
365

> <r_i_glide_eff_state_penalty>
0

> <s_user_duplicate_titles>
CHEMBL3231_lig1044 

> <i_f3d_flags>
0

> <s_m_subgroup_title>
dock_pv

> <s_m_subgroupid>
dock_pv

> <b_m_subgroup_collapsed>
1

$$$$
CHEMBL3231_lig599
                    3D
 Schrodinger Suite 2021-1.
 43 45  0  0  1  0            999 V2000
   50.5780  103.7136   28.4689 C   0  0  0  0  0  0
   50.6282  102.3685   28.0064 O   0  0  0  0  0  0
   51.2932  101.4051   28.7455 C   0  0  0  0  0  0
   51.8941  101.6722   29.9916 C   0  0  0  0  0  0
   52.5519  100.6688   30.7170 C   0  0  0  0  0  0
   52.5815   99.3726   30.1937 C   0  0  0  0  0  0
   51.9893   99.0961   28.9694 C   0  0  0  0  0  0
   51.3569  100.0967   28.2249 C   0  0  0  0  0  0
   50.7972   99.6945   26.8907 C   0  0  0  0  0  0
   50.4782   98.3971   26.4446 C   0  0  0  0  0  0
   50.0426   98.3538   25.2109 N   0  0  0  0  0  0
   50.0422   99.6274   24.8144 N   0  0  0  0  0  0
   50.4881  100.4818   25.7865 C   0  0  0  0  0  0
   53.1902  100.9732   32.0498 C   0  0  0  0  0  0
   52.6859  101.7907   32.8212 O   0  0  0  0  0  0
   54.3153  100.2886   32.3188 N   0  0  0  0  0  0
   55.0307  100.2878   33.5931 C   0  0  0  0  0  0
   54.5691   99.1599   34.5499 C   0  0  0  0  0  0
   54.6535   97.7105   34.0506 C   0  0  0  0  0  0
   55.4458   97.3427   32.9557 C   0  0  0  0  0  0
   55.5034   96.0150   32.5408 C   0  0  0  0  0  0
   54.7740   95.0464   33.2222 C   0  0  0  0  0  0
   54.8205   93.7602   32.8109 F   0  0  0  0  0  0
   53.9973   95.3938   34.3236 C   0  0  0  0  0  0
   53.9361   96.7240   34.7358 C   0  0  0  0  0  0
   50.0447  104.3236   27.7395 H   0  0  0  0  0  0
   50.0426  103.7878   29.4159 H   0  0  0  0  0  0
   51.5771  104.1381   28.5843 H   0  0  0  0  0  0
   51.8670  102.6676   30.4084 H   0  0  0  0  0  0
   53.0565   98.5637   30.7326 H   0  0  0  0  0  0
   52.0423   98.0850   28.5976 H   0  0  0  0  0  0
   50.5716   97.4878   27.0200 H   0  0  0  0  0  0
   49.7242   99.9033   23.8916 H   0  0  0  0  0  0
   50.5490  101.5459   25.6113 H   0  0  0  0  0  0
   54.7352   99.7561   31.5707 H   0  0  0  0  0  0
   55.0088  101.2624   34.0864 H   0  0  0  0  0  0
   56.0722  100.1111   33.3215 H   0  0  0  0  0  0
   53.5342   99.3659   34.8278 H   0  0  0  0  0  0
   55.1390   99.2311   35.4767 H   0  0  0  0  0  0
   56.0381   98.0668   32.4159 H   0  0  0  0  0  0
   56.1221   95.7412   31.6979 H   0  0  0  0  0  0
   53.4396   94.6317   34.8476 H   0  0  0  0  0  0
   53.3309   96.9860   35.5913 H   0  0  0  0  0  0
  1  2  1  0  0  0
  1 26  1  0  0  0
  1 27  1  0  0  0
  1 28  1  0  0  0
  2  3  1  0  0  0
  3  4  2  0  0  0
  3  8  1  0  0  0
  4  5  1  0  0  0
  4 29  1  0  0  0
  5  6  2  0  0  0
  5 14  1  0  0  0
  6  7  1  0  0  0
  6 30  1  0  0  0
  7  8  2  0  0  0
  7 31  1  0  0  0
  8  9  1  0  0  0
  9 10  1  0  0  0
  9 13  2  0  0  0
 10 11  2  0  0  0
 10 32  1  0  0  0
 11 12  1  0  0  0
 12 13  1  0  0  0
 12 33  1  0  0  0
 13 34  1  0  0  0
 14 15  2  0  0  0
 14 16  1  0  0  0
 16 17  1  0  0  0
 16 35  1  0  0  0
 17 18  1  0  0  0
 17 36  1  0  0  0
 17 37  1  0  0  0
 18 19  1  0  0  0
 18 38  1  0  0  0
 18 39  1  0  0  0
 19 20  2  0  0  0
 19 25  1  0  0  0
 20 21  1  0  0  0
 20 40  1  0  0  0
 21 22  2  0  0  0
 21 41  1  0  0  0
 22 23  1  0  0  0
 22 24  1  0  0  0
 24 25  2  0  0  0
 24 42  1  0  0  0
 25 43  1  0  0  0
M  END
> <s_m_entry_id>
28619

> <s_m_entry_name>
dock_pv.780

> <s_m_Source_Path>
/home/csk/Desktop/cluster/DUD-E-result/rock1

> <s_m_Source_File>
dock_pv.maegz

> <i_m_Source_File_Index>
780

> <chembl_id>
CHEMBL3892048

> <chembl_pref_name>
None

> <i_lp_mmshare_version>
53161

> <r_lp_tautomer_probability>
0.5

> <s_lp_Force_Field>
OPLS_2005

> <r_lp_Energy>
21.165967

> <b_lp_Chiralities_Consistent>
1

> <s_lp_Variant>
CHEMBL3231_lig599-1

> <s_i_glide_gridfile>
glide-grid_2etr

> <i_i_glide_lignum>
885

> <i_i_glide_rotatable_bonds>
7

> <r_i_docking_score>
-6.9242191472962

> <r_i_glide_ligand_efficiency>
-0.276968765891848

> <r_i_glide_ligand_efficiency_sa>
-0.809861583529742

> <r_i_glide_ligand_efficiency_ln>
-1.64124744001265

> <r_i_glide_gscore>
-6.9242191472962

> <r_i_glide_lipo>
-2.13645299819223

> <r_i_glide_hbond>
-0.469265699272326

> <r_i_glide_metal>
0

> <r_i_glide_rewards>
-1.98309980661786

> <r_i_glide_evdw>
-40.4025230407715

> <r_i_glide_ecoul>
-5.38900184631348

> <r_i_glide_erotb>
0.57510212338426

> <r_i_glide_esite>
-0.0820263376124497

> <r_i_glide_emodel>
-63.9324427235776

> <r_i_glide_energy>
-45.791524887085

> <r_i_glide_einternal>
2.47321701049805

> <i_i_glide_confnum>
4

> <i_i_glide_posenum>
67

> <r_i_glide_eff_state_penalty>
0

> <s_user_duplicate_titles>
CHEMBL3231_lig599

> <i_f3d_flags>
0

> <s_m_subgroup_title>
dock_pv

> <s_m_subgroupid>
dock_pv

> <b_m_subgroup_collapsed>
1

$$$$
CHEMBL3231_lig1453
                    3D
 Schrodinger Suite 2021-1.
 46 49  0  0  1  0            999 V2000
   53.2770  104.3518   34.5750 C   0  0  0  0  0  0
   54.5181  104.3244   33.9373 C   0  0  0  0  0  0
   54.7808  103.5079   32.8848 N   0  0  0  0  0  0
   53.7529  102.7373   32.4511 C   0  0  0  0  0  0
   52.5108  102.6889   33.0060 N   0  0  0  0  0  0
   52.2875  103.4956   34.0768 C   0  0  0  0  0  0
   54.0385  101.9170   31.3549 N   0  0  0  0  0  0
   53.1418  101.3390   30.4517 C   0  0  0  0  0  0
   53.2490   99.9784   30.1833 C   0  0  0  0  0  0
   52.4429   99.4002   29.2110 C   0  0  0  0  0  0
   51.5254  100.1661   28.4796 C   0  0  0  0  0  0
   51.3979  101.5283   28.7923 C   0  0  0  0  0  0
   52.2009  102.1129   29.7701 C   0  0  0  0  0  0
   50.9372  103.3764   34.7021 C   0  0  0  0  0  0
   50.0843  104.8033   35.2395 S   0  0  0  0  0  0
   48.7739  103.7813   35.7122 C   0  0  0  0  0  0
   48.9558  102.5066   35.5065 N   0  0  0  0  0  0
   50.1322  102.2554   34.9606 C   0  0  0  0  0  0
   50.4460  100.7950   34.7176 C   0  0  0  0  0  0
   47.6439  104.3184   36.2447 N   0  0  0  0  0  0
   50.8393   99.5849   27.4146 N   0  0  0  0  0  0
   50.0989  100.3186   26.3784 C   0  0  0  0  0  0
   50.3752   99.6918   24.9950 C   0  0  0  0  0  0
   50.0421   98.3049   24.9829 O   0  0  0  0  0  0
   50.6869   97.5641   26.0115 C   0  0  0  0  0  0
   50.3929   98.1836   27.3912 C   0  0  0  0  0  0
   53.0979  105.0007   35.4222 H   0  0  0  0  0  0
   55.3255  104.9633   34.2574 H   0  0  0  0  0  0
   54.9983  101.9755   31.0312 H   0  0  0  0  0  0
   53.9803   99.3767   30.7036 H   0  0  0  0  0  0
   52.5909   98.3531   28.9988 H   0  0  0  0  0  0
   50.6973  102.1572   28.2643 H   0  0  0  0  0  0
   52.1208  103.1700   29.9725 H   0  0  0  0  0  0
   50.7534  100.6191   33.6857 H   0  0  0  0  0  0
   51.2663  100.4606   35.3561 H   0  0  0  0  0  0
   49.6010  100.1329   34.9114 H   0  0  0  0  0  0
   46.8632  103.7327   36.5063 H   0  0  0  0  0  0
   47.5187  105.3161   36.3415 H   0  0  0  0  0  0
   49.0335  100.3025   26.6078 H   0  0  0  0  0  0
   50.4129  101.3610   26.3316 H   0  0  0  0  0  0
   51.4216   99.8356   24.7236 H   0  0  0  0  0  0
   49.7824  100.1995   24.2343 H   0  0  0  0  0  0
   51.7591   97.5266   25.8285 H   0  0  0  0  0  0
   50.3344   96.5343   25.9958 H   0  0  0  0  0  0
   50.8741   97.5764   28.1555 H   0  0  0  0  0  0
   49.3234   98.1372   27.6104 H   0  0  0  0  0  0
  1  2  2  0  0  0
  1  6  1  0  0  0
  1 27  1  0  0  0
  2  3  1  0  0  0
  2 28  1  0  0  0
  3  4  2  0  0  0
  4  7  1  0  0  0
  4  5  1  0  0  0
  5  6  2  0  0  0
  6 14  1  0  0  0
  7  8  1  0  0  0
  7 29  1  0  0  0
  8 13  1  0  0  0
  8  9  2  0  0  0
  9 10  1  0  0  0
  9 30  1  0  0  0
 10 11  2  0  0  0
 10 31  1  0  0  0
 11 21  1  0  0  0
 11 12  1  0  0  0
 12 13  2  0  0  0
 12 32  1  0  0  0
 13 33  1  0  0  0
 14 15  1  0  0  0
 14 18  2  0  0  0
 15 16  1  0  0  0
 16 17  2  0  0  0
 16 20  1  0  0  0
 17 18  1  0  0  0
 18 19  1  0  0  0
 19 34  1  0  0  0
 19 35  1  0  0  0
 19 36  1  0  0  0
 20 37  1  0  0  0
 20 38  1  0  0  0
 21 22  1  0  0  0
 21 26  1  0  0  0
 22 23  1  0  0  0
 22 39  1  0  0  0
 22 40  1  0  0  0
 23 24  1  0  0  0
 23 41  1  0  0  0
 23 42  1  0  0  0
 24 25  1  0  0  0
 25 26  1  0  0  0
 25 43  1  0  0  0
 25 44  1  0  0  0
 26 45  1  0  0  0
 26 46  1  0  0  0
M  END
> <s_m_entry_id>
28620

> <s_m_entry_name>
dock_pv.781

> <s_m_Source_Path>
/home/csk/Desktop/cluster/DUD-E-result/rock1

> <s_m_Source_File>
dock_pv.maegz

> <i_m_Source_File_Index>
781

> <chembl_id>
CHEMBL482967

> <chembl_pref_name>
CYC-116

> <i_lp_mmshare_version>
53161

> <r_lp_tautomer_probability>
0.999999987636

> <s_lp_Force_Field>
OPLS_2005

> <r_lp_Energy>
20.731247

> <b_lp_Chiralities_Consistent>
1

> <s_lp_Variant>
CHEMBL3231_lig1453-1

> <s_i_glide_gridfile>
glide-grid_2etr

> <i_i_glide_lignum>
2046

> <i_i_glide_rotatable_bonds>
4

> <r_i_docking_score>
-6.9234482978618

> <r_i_glide_ligand_efficiency>
-0.266286472994685

> <r_i_glide_ligand_efficiency_sa>
-0.788872628460078

> <r_i_glide_ligand_efficiency_ln>
-1.62594911506604

> <r_i_glide_gscore>
-6.9234482978618

> <r_i_glide_lipo>
-2.43496250215435

> <r_i_glide_hbond>
-0.592352829324645

> <r_i_glide_metal>
0

> <r_i_glide_rewards>
-1.62931769634947

> <r_i_glide_evdw>
-47.174976348877

> <r_i_glide_ecoul>
-2.70977401733398

> <r_i_glide_erotb>
0.567766195258309

> <r_i_glide_esite>
-0.0693665452476996

> <r_i_glide_emodel>
-66.6832156290845

> <r_i_glide_energy>
-49.8847503662109

> <r_i_glide_einternal>
7.43986225128174

> <i_i_glide_confnum>
6

> <i_i_glide_posenum>
118

> <r_i_glide_eff_state_penalty>
0

> <s_user_duplicate_titles>
CHEMBL3231_lig1453

> <i_f3d_flags>
0

> <s_m_subgroup_title>
dock_pv

> <s_m_subgroupid>
dock_pv

> <b_m_subgroup_collapsed>
1

$$$$
CHEMBL3231_lig1522
                    3D
 Schrodinger Suite 2021-1.
 63 67  0  0  1  0            999 V2000
   52.6044  100.1412   34.8212 S   0  0  0  0  0  0
   51.3219   99.9234   34.1400 O   0  0  0  0  0  0
   52.6116  100.3058   36.2792 O   0  0  0  0  0  0
   53.3702  101.5968   34.0755 N   0  0  0  0  0  0
   57.7480   95.9097   34.9376 N   0  0  0  0  0  0
   52.0433  103.8618   31.4314 N   0  0  0  0  0  0
   50.0428   98.3233   25.2173 N   0  0  0  0  0  0
   55.9365  103.8941   35.6027 N   0  0  0  0  0  0
   53.6823   98.7415   34.4067 C   0  0  0  0  0  0
   54.9216   98.4495   35.0790 C   0  0  0  0  0  0
   55.6742   97.2858   34.6956 C   0  0  0  0  0  0
   52.8901  102.0711   32.8293 C   0  0  0  0  0  0
   56.9277   96.9914   35.3418 C   0  0  0  0  0  0
   53.2429   97.8827   33.3977 C   0  0  0  0  0  0
   55.4490   99.2650   36.1151 C   0  0  0  0  0  0
   55.1339   96.4342   33.6902 C   0  0  0  0  0  0
   52.6641  101.1753   31.7733 C   0  0  0  0  0  0
   52.0654  101.5830   30.5663 C   0  0  0  0  0  0
   53.9881  102.5446   35.0144 C   0  0  0  0  0  0
   53.9466   96.7448   33.0506 C   0  0  0  0  0  0
   51.6921  100.6063   29.4823 C   0  0  0  0  0  0
   52.5745  103.4161   32.5915 C   0  0  0  0  0  0
   57.3578   97.8277   36.3768 C   0  0  0  0  0  0
   56.6387   98.9478   36.7514 C   0  0  0  0  0  0
   51.7932  102.9559   30.4563 C   0  0  0  0  0  0
   50.8985  100.1578   27.1961 C   0  0  0  0  0  0
   51.3296  101.0536   28.2010 C   0  0  0  0  0  0
   50.8677   98.7616   27.4781 C   0  0  0  0  0  0
   51.6423   99.2241   29.7294 C   0  0  0  0  0  0
   55.2609  103.2394   34.4949 C   0  0  0  0  0  0
   51.2436   98.3077   28.7587 C   0  0  0  0  0  0
   50.4803  100.6023   25.9152 C   0  0  0  0  0  0
   50.4441   97.9029   26.4380 C   0  0  0  0  0  0
   58.3311   96.0934   33.6114 C   0  0  0  0  0  0
   58.6065   95.2577   35.9241 C   0  0  0  0  0  0
   50.0542   99.6577   24.9827 C   0  0  0  0  0  0
   55.2522  104.3795   36.1698 H   0  0  0  0  0  0
   56.3517  103.1834   36.1948 H   0  0  0  0  0  0
   52.3147   98.0717   32.8811 H   0  0  0  0  0  0
   54.9379  100.1499   36.4411 H   0  0  0  0  0  0
   55.6449   95.5220   33.4184 H   0  0  0  0  0  0
   52.9391  100.1451   31.9167 H   0  0  0  0  0  0
   53.2493  103.2956   35.2939 H   0  0  0  0  0  0
   54.2193  102.0379   35.9468 H   0  0  0  0  0  0
   53.5594   96.0859   32.2872 H   0  0  0  0  0  0
   52.7212  104.1791   33.3398 H   0  0  0  0  0  0
   58.2938   97.6408   36.8814 H   0  0  0  0  0  0
   57.0174   99.5861   37.5358 H   0  0  0  0  0  0
   51.3346  103.3773   29.5776 H   0  0  0  0  0  0
   51.3534  102.0989   27.9419 H   0  0  0  0  0  0
   51.8857   98.8245   30.6999 H   0  0  0  0  0  0
   55.9422  102.5171   34.0399 H   0  0  0  0  0  0
   55.0232  103.9809   33.7302 H   0  0  0  0  0  0
   51.2061   97.2505   28.9850 H   0  0  0  0  0  0
   50.4771  101.6567   25.6785 H   0  0  0  0  0  0
   50.4181   96.8358   26.6051 H   0  0  0  0  0  0
   59.0559   95.3157   33.3667 H   0  0  0  0  0  0
   58.8432   97.0532   33.6060 H   0  0  0  0  0  0
   57.5947   96.1450   32.8124 H   0  0  0  0  0  0
   58.9242   94.2813   35.5579 H   0  0  0  0  0  0
   59.4951   95.8535   36.1382 H   0  0  0  0  0  0
   58.0701   95.0898   36.8580 H   0  0  0  0  0  0
   49.7064   99.9777   24.0131 H   0  0  0  0  0  0
  1  2  2  0  0  0
  1  3  2  0  0  0
  1  4  1  0  0  0
  1  9  1  0  0  0
  4 12  1  0  0  0
  4 19  1  0  0  0
  5 13  1  0  0  0
  5 34  1  0  0  0
  5 35  1  0  0  0
  6 22  1  0  0  0
  6 25  2  0  0  0
  7 33  2  0  0  0
  7 36  1  0  0  0
  8 30  1  0  0  0
  8 37  1  0  0  0
  8 38  1  0  0  0
  9 10  2  0  0  0
  9 14  1  0  0  0
 10 11  1  0  0  0
 10 15  1  0  0  0
 11 13  1  0  0  0
 11 16  2  0  0  0
 12 17  1  0  0  0
 12 22  2  0  0  0
 13 23  2  0  0  0
 14 20  2  0  0  0
 14 39  1  0  0  0
 15 24  2  0  0  0
 15 40  1  0  0  0
 16 20  1  0  0  0
 16 41  1  0  0  0
 17 18  2  0  0  0
 17 42  1  0  0  0
 18 21  1  0  0  0
 18 25  1  0  0  0
 19 30  1  0  0  0
 19 43  1  0  0  0
 19 44  1  0  0  0
 20 45  1  0  0  0
 21 27  1  0  0  0
 21 29  2  0  0  0
 22 46  1  0  0  0
 23 24  1  0  0  0
 23 47  1  0  0  0
 24 48  1  0  0  0
 25 49  1  0  0  0
 26 27  2  0  0  0
 26 28  1  0  0  0
 26 32  1  0  0  0
 27 50  1  0  0  0
 28 31  2  0  0  0
 28 33  1  0  0  0
 29 31  1  0  0  0
 29 51  1  0  0  0
 30 52  1  0  0  0
 30 53  1  0  0  0
 31 54  1  0  0  0
 32 36  2  0  0  0
 32 55  1  0  0  0
 33 56  1  0  0  0
 34 57  1  0  0  0
 34 58  1  0  0  0
 34 59  1  0  0  0
 35 60  1  0  0  0
 35 61  1  0  0  0
 35 62  1  0  0  0
 36 63  1  0  0  0
M  END
> <s_m_entry_id>
28621

> <s_m_entry_name>
dock_pv.782

> <s_m_Source_Path>
/home/csk/Desktop/cluster/DUD-E-result/rock1

> <s_m_Source_File>
dock_pv.maegz

> <i_m_Source_File_Index>
782

> <chembl_id>
CHEMBL1967544

> <chembl_pref_name>
None

> <i_lp_mmshare_version>
53161

> <r_lp_tautomer_probability>
1

> <s_lp_Force_Field>
OPLS_2005

> <r_lp_Energy>
34.001498

> <b_lp_Chiralities_Consistent>
1

> <s_lp_Variant>
CHEMBL3231_lig1522-1

> <s_i_glide_gridfile>
glide-grid_2etr

> <i_i_glide_lignum>
2159

> <i_i_glide_rotatable_bonds>
7

> <r_i_docking_score>
-6.92178856509547

> <r_i_glide_ligand_efficiency>
-0.192271904585985

> <r_i_glide_ligand_efficiency_sa>
-0.634867840190979

> <r_i_glide_ligand_efficiency_ln>
-1.51014725978791

> <r_i_glide_gscore>
-6.92178856509547

> <r_i_glide_lipo>
-2.49748493697655

> <r_i_glide_hbond>
-0.297808076397014

> <r_i_glide_metal>
0

> <r_i_glide_rewards>
-1.31751251625931

> <r_i_glide_evdw>
-48.3534049987793

> <r_i_glide_ecoul>
-5.10154628753662

> <r_i_glide_erotb>
0.411931958278943

> <r_i_glide_esite>
-0.0380128006720802

> <r_i_glide_emodel>
-73.2345599096479

> <r_i_glide_energy>
-53.4549512863159

> <r_i_glide_einternal>
13.6044235229492

> <i_i_glide_confnum>
8

> <i_i_glide_posenum>
349

> <r_i_glide_eff_state_penalty>
0

> <s_user_duplicate_titles>
CHEMBL3231_lig1522

> <i_f3d_flags>
0

> <s_m_subgroup_title>
dock_pv

> <s_m_subgroupid>
dock_pv

> <b_m_subgroup_collapsed>
1

$$$$
CHEMBL3231_lig311
                    3D
 Schrodinger Suite 2021-1.
 58 61  0  0  1  0            999 V2000
   50.4575  102.2652   28.0530 C   0  0  0  0  0  0
   51.0148  101.0036   27.8424 C   0  0  0  0  0  0
   52.0444  100.5323   28.6646 C   0  0  0  0  0  0
   50.8964  103.1014   29.0763 C   0  0  0  0  0  0
   51.9357  102.6622   29.9043 C   0  0  0  0  0  0
   52.5069  101.3739   29.6905 C   0  0  0  0  0  0
   53.5359  101.2137   30.6196 N   0  0  0  0  0  0
   53.6025  102.3495   31.4332 C   0  0  0  0  0  0
   52.6223  103.2383   31.0084 C   0  0  0  0  0  0
   54.4440  102.5242   32.6009 C   0  0  0  0  0  0
   54.7553  101.5973   33.3422 O   0  0  0  0  0  0
   54.8248  103.7951   32.8107 N   0  0  0  0  0  0
   55.5735  104.2760   33.9647 C   0  0  0  0  0  0
   54.7285  104.4024   35.2245 C   0  0  0  0  0  0
   53.8009  105.4445   35.3471 C   0  0  0  0  0  0
   53.0353  105.5910   36.5184 C   0  0  0  0  0  0
   53.2259  104.6806   37.5617 C   0  0  0  0  0  0
   54.1506  103.6438   37.4484 C   0  0  0  0  0  0
   54.9042  103.5068   36.2839 C   0  0  0  0  0  0
   50.5200  100.1669   26.7100 C   0  0  0  0  0  0
   49.8904  100.6026   25.5579 C   0  0  0  0  0  0
   49.6430   99.4892   24.8113 N   0  0  0  0  0  0
   50.0447   98.3626   25.3977 N   0  0  0  0  0  0
   50.5795   98.7701   26.5294 C   0  0  0  0  0  0
   52.0959  106.5832   36.7222 O   0  0  0  0  0  0
   51.8491  107.5253   35.6825 C   0  0  0  0  0  0
   54.4520  100.0556   30.6275 C   0  0  0  0  0  0
   53.7939   98.7356   31.0855 C   0  0  0  0  0  0
   53.5845   98.6474   32.5305 N   0  0  0  0  0  0
   52.7335   97.5022   32.8211 C   0  0  0  0  0  0
   54.8520   98.4628   33.2433 C   0  0  0  0  0  0
   49.6736  102.6206   27.3993 H   0  0  0  0  0  0
   52.4864   99.5636   28.4913 H   0  0  0  0  0  0
   50.4602  104.0797   29.2067 H   0  0  0  0  0  0
   52.4418  104.2044   31.4574 H   0  0  0  0  0  0
   54.7240  104.4508   32.0479 H   0  0  0  0  0  0
   55.9573  105.2642   33.7091 H   0  0  0  0  0  0
   56.4463  103.6454   34.1464 H   0  0  0  0  0  0
   53.6790  106.1273   34.5185 H   0  0  0  0  0  0
   52.6486  104.7828   38.4672 H   0  0  0  0  0  0
   54.2851  102.9467   38.2619 H   0  0  0  0  0  0
   55.6153  102.6962   36.2009 H   0  0  0  0  0  0
   49.6041  101.5834   25.2113 H   0  0  0  0  0  0
   49.2057   99.5045   23.8939 H   0  0  0  0  0  0
   51.0039   98.0623   27.2245 H   0  0  0  0  0  0
   51.0984  108.2431   36.0141 H   0  0  0  0  0  0
   52.7485  108.0862   35.4186 H   0  0  0  0  0  0
   51.4622  107.0339   34.7897 H   0  0  0  0  0  0
   54.8123   99.9025   29.6121 H   0  0  0  0  0  0
   55.3449  100.2990   31.2001 H   0  0  0  0  0  0
   52.8435   98.6140   30.5635 H   0  0  0  0  0  0
   54.4139   97.8984   30.7607 H   0  0  0  0  0  0
   52.4663   97.4996   33.8764 H   0  0  0  0  0  0
   51.8062   97.5494   32.2495 H   0  0  0  0  0  0
   53.2267   96.5569   32.5838 H   0  0  0  0  0  0
   54.6816   98.3957   34.3181 H   0  0  0  0  0  0
   55.3683   97.5530   32.9277 H   0  0  0  0  0  0
   55.5381   99.2908   33.0864 H   0  0  0  0  0  0
  1  4  1  0  0  0
  1  2  2  0  0  0
  1 32  1  0  0  0
  2 20  1  0  0  0
  2  3  1  0  0  0
  3  6  2  0  0  0
  3 33  1  0  0  0
  4  5  2  0  0  0
  4 34  1  0  0  0
  5  9  1  0  0  0
  5  6  1  0  0  0
  6  7  1  0  0  0
  7  8  1  0  0  0
  7 27  1  0  0  0
  8  9  2  0  0  0
  8 10  1  0  0  0
  9 35  1  0  0  0
 10 11  2  0  0  0
 10 12  1  0  0  0
 12 13  1  0  0  0
 12 36  1  0  0  0
 13 14  1  0  0  0
 13 37  1  0  0  0
 13 38  1  0  0  0
 14 15  2  0  0  0
 14 19  1  0  0  0
 15 16  1  0  0  0
 15 39  1  0  0  0
 16 17  2  0  0  0
 16 25  1  0  0  0
 17 18  1  0  0  0
 17 40  1  0  0  0
 18 19  2  0  0  0
 18 41  1  0  0  0
 19 42  1  0  0  0
 20 21  2  0  0  0
 20 24  1  0  0  0
 21 22  1  0  0  0
 21 43  1  0  0  0
 22 23  1  0  0  0
 22 44  1  0  0  0
 23 24  2  0  0  0
 24 45  1  0  0  0
 25 26  1  0  0  0
 26 46  1  0  0  0
 26 47  1  0  0  0
 26 48  1  0  0  0
 27 28  1  0  0  0
 27 49  1  0  0  0
 27 50  1  0  0  0
 28 29  1  0  0  0
 28 51  1  0  0  0
 28 52  1  0  0  0
 29 30  1  0  0  0
 29 31  1  0  0  0
 30 53  1  0  0  0
 30 54  1  0  0  0
 30 55  1  0  0  0
 31 56  1  0  0  0
 31 57  1  0  0  0
 31 58  1  0  0  0
M  END
> <s_m_entry_id>
28622

> <s_m_entry_name>
dock_pv.783

> <s_m_Source_Path>
/home/csk/Desktop/cluster/DUD-E-result/rock1

> <s_m_Source_File>
dock_pv.maegz

> <i_m_Source_File_Index>
783

> <chembl_id>
CHEMBL1922028

> <chembl_pref_name>
None

> <i_lp_mmshare_version>
53161

> <r_lp_tautomer_probability>
0.5

> <s_lp_Force_Field>
OPLS_2005

> <r_lp_Energy>
28.15222

> <b_lp_Chiralities_Consistent>
1

> <s_lp_Variant>
CHEMBL3231_lig311-1

> <s_i_glide_gridfile>
glide-grid_2etr

> <i_i_glide_lignum>
459

> <i_i_glide_rotatable_bonds>
9

> <r_i_docking_score>
-6.92175323796464

> <r_i_glide_ligand_efficiency>
-0.223282362514988

> <r_i_glide_ligand_efficiency_sa>
-0.701414892821943

> <r_i_glide_ligand_efficiency_ln>
-1.56106748142237

> <r_i_glide_gscore>
-6.92175323796464

> <r_i_glide_lipo>
-1.81222918117303

> <r_i_glide_hbond>
-0.602799111514201

> <r_i_glide_metal>
0

> <r_i_glide_rewards>
-1.73518670179174

> <r_i_glide_evdw>
-44.0678749084473

> <r_i_glide_ecoul>
-7.02054309844971

> <r_i_glide_erotb>
0.555633970650964

> <r_i_glide_esite>
-0.0706970039468192

> <r_i_glide_emodel>
-73.0860052332416

> <r_i_glide_energy>
-51.088418006897

> <r_i_glide_einternal>
7.3918719291687

> <i_i_glide_confnum>
105

> <i_i_glide_posenum>
397

> <r_i_glide_eff_state_penalty>
0

> <s_user_duplicate_titles>
CHEMBL3231_lig311

> <i_f3d_flags>
0

> <s_m_subgroup_title>
dock_pv

> <s_m_subgroupid>
dock_pv

> <b_m_subgroup_collapsed>
1

$$$$
CHEMBL3231_lig439
                    3D
 Schrodinger Suite 2021-1.
 36 38  0  0  1  0            999 V2000
   47.6427  104.7030   36.4125 Cl  0  0  0  0  0  0
   49.1877  104.3111   35.7586 C   0  0  0  0  0  0
   49.5689  102.9757   35.6533 C   0  0  0  0  0  0
   50.8167  102.6567   35.1250 C   0  0  0  0  0  0
   51.6741  103.6725   34.6915 C   0  0  0  0  0  0
   53.0580  103.3204   34.1520 C   0  0  0  0  0  0
   53.1946  103.3957   32.6953 N   0  0  0  0  0  0
   52.4707  102.6947   31.8083 C   0  0  0  0  0  0
   51.6464  101.8322   32.1196 O   0  0  0  0  0  0
   52.7112  103.1024   30.5509 N   0  0  0  0  0  0
   51.9176  102.7283   29.4890 C   0  0  0  0  0  0
   51.9017  101.5400   28.9237 N   0  0  0  0  0  0
   51.0769  101.5000   27.8852 C   0  0  0  0  0  0
   50.4430  102.7119   27.6289 C   0  0  0  0  0  0
   50.8461  103.9029   28.8110 S   0  0  0  0  0  0
   50.8366  100.2547   27.0911 C   0  0  0  0  0  0
   50.3353  100.3414   25.7823 C   0  0  0  0  0  0
   50.0428   99.1708   25.0835 C   0  0  0  0  0  0
   50.2240   97.9353   25.6110 N   0  0  0  0  0  0
   50.7197   97.8611   26.8708 C   0  0  0  0  0  0
   51.0457   98.9815   27.6356 C   0  0  0  0  0  0
   51.2912  105.0113   34.8108 C   0  0  0  0  0  0
   50.0437  105.3303   35.3419 C   0  0  0  0  0  0
   48.9027  102.1912   35.9812 H   0  0  0  0  0  0
   51.1139  101.6206   35.0425 H   0  0  0  0  0  0
   53.7815  104.0130   34.5844 H   0  0  0  0  0  0
   53.3689  102.3324   34.4977 H   0  0  0  0  0  0
   53.9345  103.9897   32.3499 H   0  0  0  0  0  0
   53.3978  103.8242   30.3911 H   0  0  0  0  0  0
   49.7349  102.9398   26.8489 H   0  0  0  0  0  0
   50.1615  101.2957   25.3095 H   0  0  0  0  0  0
   49.6486   99.2175   24.0780 H   0  0  0  0  0  0
   50.8432   96.8678   27.2733 H   0  0  0  0  0  0
   51.4220   98.8610   28.6410 H   0  0  0  0  0  0
   51.9579  105.8008   34.4889 H   0  0  0  0  0  0
   49.7464  106.3644   35.4343 H   0  0  0  0  0  0
  1  2  1  0  0  0
  2  3  2  0  0  0
  2 23  1  0  0  0
  3  4  1  0  0  0
  3 24  1  0  0  0
  4  5  2  0  0  0
  4 25  1  0  0  0
  5  6  1  0  0  0
  5 22  1  0  0  0
  6  7  1  0  0  0
  6 26  1  0  0  0
  6 27  1  0  0  0
  7  8  1  0  0  0
  7 28  1  0  0  0
  8  9  2  0  0  0
  8 10  1  0  0  0
 10 11  1  0  0  0
 10 29  1  0  0  0
 11 12  2  0  0  0
 11 15  1  0  0  0
 12 13  1  0  0  0
 13 14  2  0  0  0
 13 16  1  0  0  0
 14 15  1  0  0  0
 14 30  1  0  0  0
 16 17  2  0  0  0
 16 21  1  0  0  0
 17 18  1  0  0  0
 17 31  1  0  0  0
 18 19  2  0  0  0
 18 32  1  0  0  0
 19 20  1  0  0  0
 20 21  2  0  0  0
 20 33  1  0  0  0
 21 34  1  0  0  0
 22 23  2  0  0  0
 22 35  1  0  0  0
 23 36  1  0  0  0
M  END
> <s_m_entry_id>
28623

> <s_m_entry_name>
dock_pv.784

> <s_m_Source_Path>
/home/csk/Desktop/cluster/DUD-E-result/rock1

> <s_m_Source_File>
dock_pv.maegz

> <i_m_Source_File_Index>
784

> <chembl_id>
CHEMBL3218025

> <chembl_pref_name>
None

> <i_lp_mmshare_version>
53161

> <r_lp_tautomer_probability>
0.999000488399163

> <s_lp_Force_Field>
OPLS_2005

> <r_lp_Energy>
7.098156

> <b_lp_Chiralities_Consistent>
1

> <s_lp_Variant>
CHEMBL3231_lig439-1

> <s_i_glide_gridfile>
glide-grid_2etr

> <i_i_glide_lignum>
623

> <i_i_glide_rotatable_bonds>
6

> <r_i_docking_score>
-6.92041379022131

> <r_i_glide_ligand_efficiency>
-0.300887556096579

> <r_i_glide_ligand_efficiency_sa>
-0.855684184536965

> <r_i_glide_ligand_efficiency_ln>
-1.6734188053184

> <r_i_glide_gscore>
-6.92041379022131

> <r_i_glide_lipo>
-2.90746791765224

> <r_i_glide_hbond>
-0.104360423678076

> <r_i_glide_metal>
0

> <r_i_glide_rewards>
-1.71511587530876

> <r_i_glide_evdw>
-40.8542022705078

> <r_i_glide_ecoul>
-5.8031063079834

> <r_i_glide_erotb>
0.79865801750057

> <r_i_glide_esite>
-0.0789515313598996

> <r_i_glide_emodel>
-64.3379616953667

> <r_i_glide_energy>
-46.6573085784912

> <r_i_glide_einternal>
4.78389978408813

> <i_i_glide_confnum>
2

> <i_i_glide_posenum>
379

> <r_i_glide_eff_state_penalty>
0

> <s_user_duplicate_titles>
CHEMBL3231_lig439

> <i_f3d_flags>
0

> <s_m_subgroup_title>
dock_pv

> <s_m_subgroupid>
dock_pv

> <b_m_subgroup_collapsed>
1

$$$$
CHEMBL3231_lig1749
                    3D
 Schrodinger Suite 2021-1.
 49 52  0  0  1  0            999 V2000
   52.0430  104.2974   32.3365 O   0  0  0  0  0  0
   52.1866  105.9572   34.8111 O   0  0  0  0  0  0
   50.8430   97.8413   28.4649 N   0  0  0  0  0  0
   53.5851  102.8540   31.4632 N   0  0  0  0  0  0
   50.1161   98.2064   26.1924 N   0  0  0  0  0  0
   53.4585  103.2040   33.7184 N   0  0  0  0  0  0
   51.7564   99.8516   28.9656 C   0  0  0  0  0  0
   51.2635   99.8840   27.6020 C   0  0  0  0  0  0
   52.4393  100.8775   29.7595 C   0  0  0  0  0  0
   50.6930   98.6022   27.3332 C   0  0  0  0  0  0
   51.4645   98.5790   29.4369 C   0  0  0  0  0  0
   51.2242  100.8131   26.5434 C   0  0  0  0  0  0
   53.3712  100.5149   30.6730 C   0  0  0  0  0  0
   52.0426  102.3452   29.6292 C   0  0  0  0  0  0
   52.9545  103.4820   32.4977 C   0  0  0  0  0  0
   54.1176  101.4695   31.6133 C   0  0  0  0  0  0
   53.2326  103.2300   30.0773 C   0  0  0  0  0  0
   50.6333  100.4257   25.3379 C   0  0  0  0  0  0
   52.9211  103.5837   35.0388 C   0  0  2  0  0  0
   50.0943   99.1475   25.2142 C   0  0  0  0  0  0
   51.5333  102.9919   35.3851 C   0  0  0  0  0  0
   53.1445  105.0863   35.3801 C   0  0  0  0  0  0
   50.6000  103.7057   36.1539 C   0  0  0  0  0  0
   51.1879  101.7135   34.9228 C   0  0  0  0  0  0
   49.3449  103.1701   36.4249 C   0  0  0  0  0  0
   49.9397  101.1684   35.2098 C   0  0  0  0  0  0
   49.0195  101.9072   35.9454 C   0  0  0  0  0  0
   52.4429  106.1781   33.8983 H   0  0  0  0  0  0
   50.5557   96.8831   28.6026 H   0  0  0  0  0  0
   54.2400  102.5664   33.7394 H   0  0  0  0  0  0
   51.6591   98.1282   30.4005 H   0  0  0  0  0  0
   51.6457  101.7990   26.6412 H   0  0  0  0  0  0
   53.6301   99.4686   30.7518 H   0  0  0  0  0  0
   51.1840  102.5410   30.2731 H   0  0  0  0  0  0
   51.7410  102.6063   28.6197 H   0  0  0  0  0  0
   55.1863  101.4459   31.4074 H   0  0  0  0  0  0
   54.0193  101.0792   32.6263 H   0  0  0  0  0  0
   53.0761  104.3028   29.9736 H   0  0  0  0  0  0
   54.1068  103.0415   29.4512 H   0  0  0  0  0  0
   50.5932  101.1031   24.4990 H   0  0  0  0  0  0
   53.5886  103.0574   35.7229 H   0  0  0  0  0  0
   49.6327   98.8561   24.2825 H   0  0  0  0  0  0
   53.1406  105.2294   36.4614 H   0  0  0  0  0  0
   54.1281  105.4099   35.0358 H   0  0  0  0  0  0
   50.8259  104.6863   36.5426 H   0  0  0  0  0  0
   51.8875  101.1341   34.3384 H   0  0  0  0  0  0
   48.6257  103.7306   37.0036 H   0  0  0  0  0  0
   49.6812  100.1853   34.8461 H   0  0  0  0  0  0
   48.0431  101.4997   36.1494 H   0  0  0  0  0  0
  1 15  2  0  0  0
  2 22  1  0  0  0
  2 28  1  0  0  0
  3 10  1  0  0  0
  3 11  1  0  0  0
  3 29  1  0  0  0
  4 15  1  0  0  0
  4 16  1  0  0  0
  4 17  1  0  0  0
  5 10  2  0  0  0
  5 20  1  0  0  0
  6 15  1  0  0  0
  6 19  1  0  0  0
  6 30  1  0  0  0
  7  8  1  0  0  0
  7  9  1  0  0  0
  7 11  2  0  0  0
  8 10  1  0  0  0
  8 12  2  0  0  0
  9 13  2  0  0  0
  9 14  1  0  0  0
 11 31  1  0  0  0
 12 18  1  0  0  0
 12 32  1  0  0  0
 13 16  1  0  0  0
 13 33  1  0  0  0
 14 17  1  0  0  0
 14 34  1  0  0  0
 14 35  1  0  0  0
 16 36  1  0  0  0
 16 37  1  0  0  0
 17 38  1  0  0  0
 17 39  1  0  0  0
 18 20  2  0  0  0
 18 40  1  0  0  0
 19 21  1  0  0  0
 19 22  1  0  0  0
 19 41  1  0  0  0
 20 42  1  0  0  0
 21 23  2  0  0  0
 21 24  1  0  0  0
 22 43  1  0  0  0
 22 44  1  0  0  0
 23 25  1  0  0  0
 23 45  1  0  0  0
 24 26  2  0  0  0
 24 46  1  0  0  0
 25 27  2  0  0  0
 25 47  1  0  0  0
 26 27  1  0  0  0
 26 48  1  0  0  0
 27 49  1  0  0  0
M  END
> <s_m_entry_id>
28624

> <s_m_entry_name>
dock_pv.785

> <s_m_Source_Path>
/home/csk/Desktop/cluster/DUD-E-result/rock1

> <s_m_Source_File>
dock_pv.maegz

> <i_m_Source_File_Index>
785

> <chembl_id>
CHEMBL1964937

> <chembl_pref_name>
None

> <i_lp_mmshare_version>
53161

> <r_lp_tautomer_probability>
1

> <s_lp_Force_Field>
OPLS_2005

> <r_lp_Energy>
31.057264

> <b_lp_Chiralities_Consistent>
1

> <s_lp_Variant>
CHEMBL3231_lig1749-1

> <s_i_glide_gridfile>
glide-grid_2etr

> <i_i_glide_lignum>
2494

> <i_i_glide_rotatable_bonds>
7

> <r_i_docking_score>
-6.91867916849739

> <r_i_glide_ligand_efficiency>
-0.256247376611014

> <r_i_glide_ligand_efficiency_sa>
-0.768742128988494

> <r_i_glide_ligand_efficiency_ln>
-1.61055444708557

> <r_i_glide_gscore>
-6.91867916849739

> <r_i_glide_lipo>
-2.92821174371701

> <r_i_glide_hbond>
-0.0307642237131036

> <r_i_glide_metal>
0

> <r_i_glide_rewards>
-1.49920093727193

> <r_i_glide_evdw>
-41.9600105285645

> <r_i_glide_ecoul>
-6.72077560424805

> <r_i_glide_erotb>
0.730931500217038

> <r_i_glide_esite>
-0.0853168969469508

> <r_i_glide_emodel>
-64.2522153527873

> <r_i_glide_energy>
-48.6807861328125

> <r_i_glide_einternal>
7.76846218109131

> <i_i_glide_confnum>
65

> <i_i_glide_posenum>
244

> <r_i_glide_eff_state_penalty>
0

> <s_user_duplicate_titles>
CHEMBL3231_lig1749

> <i_f3d_flags>
0

> <s_m_subgroup_title>
dock_pv

> <s_m_subgroupid>
dock_pv

> <b_m_subgroup_collapsed>
1

$$$$
CHEMBL3231_lig2063
                    3D
 Schrodinger Suite 2021-1.
 41 43  0  0  1  0            999 V2000
   52.0002  100.2183   28.8823 C   0  0  0  0  0  0
   52.9134   99.4892   29.6676 C   0  0  0  0  0  0
   53.5065  100.2225   30.6816 C   0  0  0  0  0  0
   52.9587  101.8667   30.7019 S   0  0  0  0  0  0
   51.9278  101.5373   29.3422 C   0  0  0  0  0  0
   54.4427   99.7665   31.5845 N   0  0  0  0  0  0
   54.1017   99.3789   32.8300 C   0  0  0  0  0  0
   55.1872   98.6594   33.6420 C   0  0  0  0  0  0
   52.9791   99.5321   33.3229 O   0  0  0  0  0  0
   54.8638   97.1735   33.7790 C   0  0  0  0  0  0
   55.3969   96.2499   32.8732 C   0  0  0  0  0  0
   55.0638   94.8859   32.9535 C   0  0  0  0  0  0
   54.1737   94.4696   33.9445 C   0  0  0  0  0  0
   53.6419   95.3808   34.8546 C   0  0  0  0  0  0
   53.9846   96.7294   34.7716 C   0  0  0  0  0  0
   51.2433   99.6518   27.7167 C   0  0  0  0  0  0
   51.1861   98.2668   27.5041 C   0  0  0  0  0  0
   50.5320   97.7706   26.3774 C   0  0  0  0  0  0
   49.9292   98.5702   25.4678 N   0  0  0  0  0  0
   49.9369   99.9024   25.7045 C   0  0  0  0  0  0
   50.5843  100.4807   26.7975 C   0  0  0  0  0  0
   49.2439  100.7029   24.8110 N   0  0  0  0  0  0
   55.5542   93.9090   32.1092 O   0  0  0  0  0  0
   56.5286   94.2771   31.1379 C   0  0  0  0  0  0
   53.1528   98.4494   29.5106 H   0  0  0  0  0  0
   51.3222  102.3353   28.9431 H   0  0  0  0  0  0
   55.3346   99.4607   31.2200 H   0  0  0  0  0  0
   55.2528   99.1234   34.6268 H   0  0  0  0  0  0
   56.1662   98.7850   33.1741 H   0  0  0  0  0  0
   56.0683   96.6100   32.1076 H   0  0  0  0  0  0
   53.8955   93.4286   34.0103 H   0  0  0  0  0  0
   52.9583   95.0394   35.6169 H   0  0  0  0  0  0
   53.5560   97.4338   35.4695 H   0  0  0  0  0  0
   51.6418   97.5691   28.1885 H   0  0  0  0  0  0
   50.4884   96.7072   26.1910 H   0  0  0  0  0  0
   50.5787  101.5526   26.9192 H   0  0  0  0  0  0
   49.2417  101.7021   24.9481 H   0  0  0  0  0  0
   48.8957  100.3023   23.9418 H   0  0  0  0  0  0
   56.8435   93.3942   30.5847 H   0  0  0  0  0  0
   56.1301   94.9924   30.4164 H   0  0  0  0  0  0
   57.4165   94.6987   31.6115 H   0  0  0  0  0  0
  1  2  1  0  0  0
  1  5  2  0  0  0
  1 16  1  0  0  0
  2  3  2  0  0  0
  2 25  1  0  0  0
  3  4  1  0  0  0
  3  6  1  0  0  0
  4  5  1  0  0  0
  5 26  1  0  0  0
  6  7  1  0  0  0
  6 27  1  0  0  0
  7  8  1  0  0  0
  7  9  2  0  0  0
  8 10  1  0  0  0
  8 28  1  0  0  0
  8 29  1  0  0  0
 10 11  2  0  0  0
 10 15  1  0  0  0
 11 12  1  0  0  0
 11 30  1  0  0  0
 12 13  2  0  0  0
 12 23  1  0  0  0
 13 14  1  0  0  0
 13 31  1  0  0  0
 14 15  2  0  0  0
 14 32  1  0  0  0
 15 33  1  0  0  0
 16 17  2  0  0  0
 16 21  1  0  0  0
 17 18  1  0  0  0
 17 34  1  0  0  0
 18 19  2  0  0  0
 18 35  1  0  0  0
 19 20  1  0  0  0
 20 21  2  0  0  0
 20 22  1  0  0  0
 21 36  1  0  0  0
 22 37  1  0  0  0
 22 38  1  0  0  0
 23 24  1  0  0  0
 24 39  1  0  0  0
 24 40  1  0  0  0
 24 41  1  0  0  0
M  END
> <s_m_entry_id>
28625

> <s_m_entry_name>
dock_pv.786

> <s_m_Source_Path>
/home/csk/Desktop/cluster/DUD-E-result/rock1

> <s_m_Source_File>
dock_pv.maegz

> <i_m_Source_File_Index>
786

> <chembl_id>
CHEMBL3581149

> <chembl_pref_name>
None

> <i_lp_mmshare_version>
53161

> <r_lp_tautomer_probability>
0.999999772200052

> <s_lp_Force_Field>
OPLS_2005

> <r_lp_Energy>
15.105863

> <b_lp_Chiralities_Consistent>
1

> <s_lp_Variant>
CHEMBL3231_lig2063-1

> <s_i_glide_gridfile>
glide-grid_2etr

> <i_i_glide_lignum>
2990

> <i_i_glide_rotatable_bonds>
6

> <r_i_docking_score>
-6.91792524511559

> <r_i_glide_ligand_efficiency>
-0.28824688521315

> <r_i_glide_ligand_efficiency_sa>
-0.831447891801432

> <r_i_glide_ligand_efficiency_ln>
-1.6557769540608

> <r_i_glide_gscore>
-6.91792524511559

> <r_i_glide_lipo>
-2.34893815404189

> <r_i_glide_hbond>
-0.502160219757183

> <r_i_glide_metal>
0

> <r_i_glide_rewards>
-1.55092308016554

> <r_i_glide_evdw>
-42.7423095703125

> <r_i_glide_ecoul>
-7.53890657424927

> <r_i_glide_erotb>
0.821364435477754

> <r_i_glide_esite>
-0.0693167619757076

> <r_i_glide_emodel>
-67.8636209888288

> <r_i_glide_energy>
-50.2812161445618

> <r_i_glide_einternal>
7.35324811935425

> <i_i_glide_confnum>
22

> <i_i_glide_posenum>
184

> <r_i_glide_eff_state_penalty>
0

> <s_user_duplicate_titles>
CHEMBL3231_lig2063

> <i_f3d_flags>
0

> <s_m_subgroup_title>
dock_pv

> <s_m_subgroupid>
dock_pv

> <b_m_subgroup_collapsed>
1

$$$$
CHEMBL3231_lig527
                    3D
 Schrodinger Suite 2021-1.
 62 66  0  0  1  0            999 V2000
   52.3561  103.0828   33.5843 C   0  0  2  0  0  0
   52.6389  102.9844   32.0773 C   0  0  0  0  0  0
   53.8578  103.3464   31.6302 C   0  0  0  0  0  0
   54.7649  103.9029   32.4767 N   0  0  0  0  0  0
   54.5102  104.3505   33.7304 C   0  0  0  0  0  0
   53.2237  104.1622   34.1309 N   0  0  0  0  0  0
   55.3747  104.8196   34.4663 O   0  0  0  0  0  0
   54.2684  103.4033   30.1655 C   0  0  0  0  0  0
   51.6429  102.4311   31.1952 C   0  0  0  0  0  0
   52.0234  101.2611   30.6344 N   0  0  0  0  0  0
   50.6087  103.0500   30.9390 O   0  0  0  0  0  0
   51.5010  100.6420   29.4859 C   0  0  0  0  0  0
   50.9566  101.3849   28.4297 C   0  0  0  0  0  0
   51.2501   98.5701   28.2241 C   0  0  0  0  0  0
   51.6445   99.2567   29.3748 C   0  0  0  0  0  0
   50.7281   99.3025   27.1481 C   0  0  0  0  0  0
   50.5812  100.7179   27.2577 C   0  0  0  0  0  0
   50.0431  101.1032   26.0112 C   0  0  0  0  0  0
   49.9197   99.9417   25.2892 N   0  0  0  0  0  0
   50.3157   98.8280   25.9305 N   0  0  0  0  0  0
   52.5058  101.7744   34.3596 C   0  0  0  0  0  0
   53.7362  101.0974   34.4537 C   0  0  0  0  0  0
   53.8709   99.9665   35.2763 C   0  0  0  0  0  0
   52.7476   99.4928   35.9653 C   0  0  0  0  0  0
   51.5333  100.1622   35.8556 C   0  0  0  0  0  0
   51.4038  101.2859   35.0573 C   0  0  0  0  0  0
   52.8126   98.3828   36.7379 F   0  0  0  0  0  0
   55.1884   99.2561   35.4329 C   0  0  0  0  0  0
   55.8313   98.9502   34.2957 N   0  0  0  0  0  0
   55.5904   98.9312   36.5513 O   0  0  0  0  0  0
   57.0005   98.0711   34.2094 C   0  0  0  0  0  0
   56.8111   96.6653   33.6111 C   0  0  0  0  0  0
   57.9497   95.9227   33.7116 N   0  0  0  0  0  0
   57.9982   94.7060   33.1184 C   0  0  0  0  0  0
   56.9261   94.1720   32.4103 C   0  0  0  0  0  0
   55.7460   94.9063   32.3463 C   0  0  0  0  0  0
   55.6610   96.1715   32.9426 C   0  0  0  0  0  0
   54.3522   96.9347   32.7864 C   0  0  0  0  0  0
   51.3252  103.4091   33.7354 H   0  0  0  0  0  0
   55.6444  104.2248   32.0951 H   0  0  0  0  0  0
   53.0526  104.4444   35.0830 H   0  0  0  0  0  0
   53.4190  103.4584   29.4856 H   0  0  0  0  0  0
   54.8426  104.3026   29.9844 H   0  0  0  0  0  0
   54.8426  102.5246   29.8901 H   0  0  0  0  0  0
   52.7691  100.7634   31.0967 H   0  0  0  0  0  0
   50.8691  102.4594   28.4850 H   0  0  0  0  0  0
   51.3670   97.4996   28.1585 H   0  0  0  0  0  0
   52.0786   98.6938   30.1895 H   0  0  0  0  0  0
   49.7330  102.0545   25.6102 H   0  0  0  0  0  0
   49.5480   99.8999   24.3482 H   0  0  0  0  0  0
   54.5982  101.4790   33.9246 H   0  0  0  0  0  0
   50.6733   99.8259   36.4020 H   0  0  0  0  0  0
   50.4487  101.7892   35.0122 H   0  0  0  0  0  0
   55.4878   99.3209   33.4234 H   0  0  0  0  0  0
   57.4651   97.9472   35.1910 H   0  0  0  0  0  0
   57.7517   98.5886   33.6107 H   0  0  0  0  0  0
   58.9209   94.1552   33.2245 H   0  0  0  0  0  0
   57.0009   93.1981   31.9501 H   0  0  0  0  0  0
   54.9079   94.4894   31.8145 H   0  0  0  0  0  0
   54.5232   97.8837   32.2788 H   0  0  0  0  0  0
   53.6154   96.3806   32.2015 H   0  0  0  0  0  0
   53.9096   97.1370   33.7622 H   0  0  0  0  0  0
  1  2  1  0  0  0
  1  6  1  0  0  0
  1 21  1  0  0  0
  1 39  1  0  0  0
  2  3  2  0  0  0
  2  9  1  0  0  0
  3  4  1  0  0  0
  3  8  1  0  0  0
  4  5  1  0  0  0
  4 40  1  0  0  0
  5  6  1  0  0  0
  5  7  2  0  0  0
  6 41  1  0  0  0
  8 42  1  0  0  0
  8 43  1  0  0  0
  8 44  1  0  0  0
  9 10  1  0  0  0
  9 11  2  0  0  0
 10 45  1  0  0  0
 10 12  1  0  0  0
 12 15  1  0  0  0
 12 13  2  0  0  0
 13 46  1  0  0  0
 13 17  1  0  0  0
 14 16  1  0  0  0
 14 47  1  0  0  0
 14 15  2  0  0  0
 15 48  1  0  0  0
 16 20  2  0  0  0
 16 17  1  0  0  0
 17 18  2  0  0  0
 18 19  1  0  0  0
 18 49  1  0  0  0
 19 50  1  0  0  0
 19 20  1  0  0  0
 21 22  2  0  0  0
 21 26  1  0  0  0
 22 23  1  0  0  0
 22 51  1  0  0  0
 23 24  2  0  0  0
 23 28  1  0  0  0
 24 25  1  0  0  0
 24 27  1  0  0  0
 25 26  2  0  0  0
 25 52  1  0  0  0
 26 53  1  0  0  0
 28 29  1  0  0  0
 28 30  2  0  0  0
 29 31  1  0  0  0
 29 54  1  0  0  0
 31 32  1  0  0  0
 31 55  1  0  0  0
 31 56  1  0  0  0
 32 33  2  0  0  0
 32 37  1  0  0  0
 33 34  1  0  0  0
 34 35  2  0  0  0
 34 57  1  0  0  0
 35 36  1  0  0  0
 35 58  1  0  0  0
 36 37  2  0  0  0
 36 59  1  0  0  0
 37 38  1  0  0  0
 38 60  1  0  0  0
 38 61  1  0  0  0
 38 62  1  0  0  0
M  END
> <s_m_entry_id>
28626

> <s_m_entry_name>
dock_pv.787

> <s_m_Source_Path>
/home/csk/Desktop/cluster/DUD-E-result/rock1

> <s_m_Source_File>
dock_pv.maegz

> <i_m_Source_File_Index>
787

> <chembl_id>
CHEMBL3809697

> <chembl_pref_name>
None

> <i_lp_mmshare_version>
53161

> <r_lp_tautomer_probability>
0.019607843137214

> <s_lp_Force_Field>
OPLS_2005

> <r_lp_Energy>
63.611876

> <b_lp_Chiralities_Consistent>
1

> <s_lp_Variant>
CHEMBL3231_lig527-3

> <s_i_glide_gridfile>
glide-grid_2etr

> <i_i_glide_lignum>
787

> <i_i_glide_rotatable_bonds>
8

> <r_i_docking_score>
-6.91453137684742

> <r_i_glide_ligand_efficiency>
-0.1819613520223

> <r_i_glide_ligand_efficiency_sa>
-0.611749589745099

> <r_i_glide_ligand_efficiency_ln>
-1.49097636975339

> <r_i_glide_gscore>
-6.91453137684742

> <r_i_glide_lipo>
-2.12404318893802

> <r_i_glide_hbond>
-0.370691768358196

> <r_i_glide_metal>
0

> <r_i_glide_rewards>
-1.07641100873082

> <r_i_glide_evdw>
-47.8116493225098

> <r_i_glide_ecoul>
-9.10373401641846

> <r_i_glide_erotb>
0.622107419055703

> <r_i_glide_esite>
-0.209350261287832

> <r_i_glide_emodel>
-66.1687530097211

> <r_i_glide_energy>
-56.9153833389282

> <r_i_glide_einternal>
14.2541017532349

> <i_i_glide_confnum>
29

> <i_i_glide_posenum>
21

> <r_i_glide_eff_state_penalty>
0

> <s_user_duplicate_titles>
CHEMBL3231_lig527

> <i_f3d_flags>
0

> <s_m_subgroup_title>
dock_pv

> <s_m_subgroupid>
dock_pv

> <b_m_subgroup_collapsed>
1

$$$$
CHEMBL3231_lig367
                    3D
 Schrodinger Suite 2021-1.
 47 50  0  0  1  0            999 V2000
   51.7509  101.3533   28.4558 C   0  0  0  0  0  0
   51.4944  100.0082   28.1813 C   0  0  0  0  0  0
   51.8673   99.0148   29.0936 C   0  0  0  0  0  0
   52.4033  101.7545   29.6201 C   0  0  0  0  0  0
   52.8208  100.7843   30.5494 C   0  0  0  0  0  0
   52.5422   99.4136   30.2506 C   0  0  0  0  0  0
   53.0767   98.6657   31.2736 N   0  0  0  0  0  0
   53.6759   99.4926   32.1861 C   0  0  0  0  0  0
   53.5120  100.8227   31.8243 C   0  0  0  0  0  0
   54.0205  101.9145   32.6127 C   0  0  0  0  0  0
   53.4859  103.1065   32.3126 N   0  0  0  0  0  0
   54.8432  101.7416   33.5120 O   0  0  0  0  0  0
   53.8241  104.3715   32.9645 C   0  0  0  0  0  0
   53.4240  104.4827   34.4548 C   0  0  0  0  0  0
   50.8604   99.6167   26.8830 C   0  0  0  0  0  0
   50.4431  100.4291   25.8325 C   0  0  0  0  0  0
   49.9727   99.5905   24.8602 N   0  0  0  0  0  0
   50.0429   98.3048   25.2110 N   0  0  0  0  0  0
   50.5659   98.3235   26.4120 C   0  0  0  0  0  0
   51.9406  104.2922   34.7592 C   0  0  0  0  0  0
   51.0974  105.4024   34.8728 C   0  0  0  0  0  0
   49.7415  105.2435   35.2111 C   0  0  0  0  0  0
   49.2454  103.9534   35.4141 C   0  0  0  0  0  0
   50.0768  102.8419   35.2914 C   0  0  0  0  0  0
   51.4221  103.0117   34.9681 C   0  0  0  0  0  0
   48.8433  106.2836   35.3554 O   0  0  0  0  0  0
   49.3142  107.6237   35.2532 C   0  0  0  0  0  0
   51.4586  102.1088   27.7426 H   0  0  0  0  0  0
   51.6802   97.9699   28.8976 H   0  0  0  0  0  0
   52.6138  102.8013   29.7752 H   0  0  0  0  0  0
   53.0805   97.6596   31.3676 H   0  0  0  0  0  0
   54.1752   99.0663   33.0462 H   0  0  0  0  0  0
   52.8200  103.1451   31.5615 H   0  0  0  0  0  0
   53.2421  105.1029   32.4065 H   0  0  0  0  0  0
   54.8707  104.6366   32.8114 H   0  0  0  0  0  0
   53.7470  105.4527   34.8339 H   0  0  0  0  0  0
   53.9972  103.7687   35.0474 H   0  0  0  0  0  0
   50.4491  101.4988   25.6869 H   0  0  0  0  0  0
   49.5924   99.8868   23.9658 H   0  0  0  0  0  0
   50.7480   97.3986   26.9392 H   0  0  0  0  0  0
   51.5167  106.3846   34.7057 H   0  0  0  0  0  0
   48.2059  103.8135   35.6723 H   0  0  0  0  0  0
   49.6837  101.8496   35.4558 H   0  0  0  0  0  0
   52.0660  102.1463   34.8877 H   0  0  0  0  0  0
   48.4849  108.3029   35.4461 H   0  0  0  0  0  0
   50.0863  107.8347   35.9951 H   0  0  0  0  0  0
   49.6997  107.8436   34.2565 H   0  0  0  0  0  0
  1  2  2  0  0  0
  1  4  1  0  0  0
  1 28  1  0  0  0
  2 15  1  0  0  0
  2  3  1  0  0  0
  3  6  2  0  0  0
  3 29  1  0  0  0
  4  5  2  0  0  0
  4 30  1  0  0  0
  5  9  1  0  0  0
  5  6  1  0  0  0
  6  7  1  0  0  0
  7  8  1  0  0  0
  7 31  1  0  0  0
  8  9  2  0  0  0
  8 32  1  0  0  0
  9 10  1  0  0  0
 10 11  1  0  0  0
 10 12  2  0  0  0
 11 13  1  0  0  0
 11 33  1  0  0  0
 13 14  1  0  0  0
 13 34  1  0  0  0
 13 35  1  0  0  0
 14 20  1  0  0  0
 14 36  1  0  0  0
 14 37  1  0  0  0
 15 16  2  0  0  0
 15 19  1  0  0  0
 16 17  1  0  0  0
 16 38  1  0  0  0
 17 18  1  0  0  0
 17 39  1  0  0  0
 18 19  2  0  0  0
 19 40  1  0  0  0
 20 21  2  0  0  0
 20 25  1  0  0  0
 21 22  1  0  0  0
 21 41  1  0  0  0
 22 23  2  0  0  0
 22 26  1  0  0  0
 23 24  1  0  0  0
 23 42  1  0  0  0
 24 25  2  0  0  0
 24 43  1  0  0  0
 25 44  1  0  0  0
 26 27  1  0  0  0
 27 45  1  0  0  0
 27 46  1  0  0  0
 27 47  1  0  0  0
M  END
> <s_m_entry_id>
28627

> <s_m_entry_name>
dock_pv.788

> <s_m_Source_Path>
/home/csk/Desktop/cluster/DUD-E-result/rock1

> <s_m_Source_File>
dock_pv.maegz

> <i_m_Source_File_Index>
788

> <chembl_id>
CHEMBL1923176

> <chembl_pref_name>
None

> <i_lp_mmshare_version>
53161

> <r_lp_tautomer_probability>
0.5

> <s_lp_Force_Field>
OPLS_2005

> <r_lp_Energy>
19.238668

> <b_lp_Chiralities_Consistent>
1

> <s_lp_Variant>
CHEMBL3231_lig367-1

> <s_i_glide_gridfile>
glide-grid_2etr

> <i_i_glide_lignum>
517

> <i_i_glide_rotatable_bonds>
7

> <r_i_docking_score>
-6.91424166016855

> <r_i_glide_ligand_efficiency>
-0.256083024450687

> <r_i_glide_ligand_efficiency_sa>
-0.768249072508053

> <r_i_glide_ligand_efficiency_ln>
-1.60952146830465

> <r_i_glide_gscore>
-6.91424166016855

> <r_i_glide_lipo>
-2.07478111984119

> <r_i_glide_hbond>
-0.488359415832237

> <r_i_glide_metal>
0

> <r_i_glide_rewards>
-1.90376413090648

> <r_i_glide_evdw>
-43.9799880981445

> <r_i_glide_ecoul>
-5.47714567184448

> <r_i_glide_erotb>
0.620119985051638

> <r_i_glide_esite>
-0.0468857229563838

> <r_i_glide_emodel>
-69.4244138556454

> <r_i_glide_energy>
-49.457133769989

> <r_i_glide_einternal>
3.71825671195984

> <i_i_glide_confnum>
70

> <i_i_glide_posenum>
297

> <r_i_glide_eff_state_penalty>
0

> <s_user_duplicate_titles>
CHEMBL3231_lig367

> <i_f3d_flags>
0

> <s_m_subgroup_title>
dock_pv

> <s_m_subgroupid>
dock_pv

> <b_m_subgroup_collapsed>
1

$$$$
CHEMBL3231_lig354
                    3D
 Schrodinger Suite 2021-1.
 46 49  0  0  1  0            999 V2000
   51.1996  100.7842   28.0650 C   0  0  0  0  0  0
   50.9187  102.0892   28.3371 N   0  0  0  0  0  0
   51.5095  102.6920   29.4005 C   0  0  0  0  0  0
   52.0620  100.0092   28.8513 C   0  0  0  0  0  0
   52.6678  100.6536   29.9313 C   0  0  0  0  0  0
   52.4093  102.0158   30.2367 C   0  0  0  0  0  0
   53.1986  102.3428   31.3889 C   0  0  0  0  0  0
   53.9186  101.2070   31.7502 C   0  0  0  0  0  0
   53.5803  100.2051   30.8613 N   0  0  0  0  0  0
   54.8429  101.0438   32.8510 C   0  0  0  0  0  0
   55.6397   99.9586   32.7678 N   0  0  0  0  0  0
   54.8361  101.8189   33.8068 O   0  0  0  0  0  0
   56.5836   99.5021   33.7917 C   0  0  0  0  0  0
   56.3401   98.0782   34.2901 C   0  0  0  0  0  0
   57.4203   97.3442   34.7892 C   0  0  0  0  0  0
   57.2485   96.0196   35.1878 C   0  0  0  0  0  0
   55.9960   95.4182   35.0852 C   0  0  0  0  0  0
   54.8995   96.1309   34.5764 C   0  0  0  0  0  0
   55.0862   97.4610   34.1912 C   0  0  0  0  0  0
   53.6338   95.6056   34.4128 O   0  0  0  0  0  0
   53.4222   94.2170   34.6502 C   0  0  0  0  0  0
   50.5901  100.2380   26.8048 C   0  0  0  0  0  0
   50.0446  100.9762   25.7619 C   0  0  0  0  0  0
   49.6619  100.0762   24.8111 N   0  0  0  0  0  0
   49.9134   98.8204   25.1661 N   0  0  0  0  0  0
   50.4427   98.8961   26.3680 C   0  0  0  0  0  0
   50.8032   97.6062   27.0654 C   0  0  0  0  0  0
   51.2798  103.7333   29.5581 H   0  0  0  0  0  0
   52.3029   98.9861   28.6240 H   0  0  0  0  0  0
   53.2629  103.2955   31.8979 H   0  0  0  0  0  0
   53.9752   99.2784   30.9244 H   0  0  0  0  0  0
   55.7810   99.5331   31.8630 H   0  0  0  0  0  0
   56.6237  100.1686   34.6571 H   0  0  0  0  0  0
   57.5784   99.5270   33.3413 H   0  0  0  0  0  0
   58.4005   97.7930   34.8526 H   0  0  0  0  0  0
   58.0869   95.4507   35.5635 H   0  0  0  0  0  0
   55.9013   94.3869   35.3920 H   0  0  0  0  0  0
   54.2423   98.0046   33.7949 H   0  0  0  0  0  0
   52.3894   93.9581   34.4172 H   0  0  0  0  0  0
   54.0610   93.6015   34.0161 H   0  0  0  0  0  0
   53.5983   93.9541   35.6934 H   0  0  0  0  0  0
   49.9129  102.0365   25.6114 H   0  0  0  0  0  0
   49.2433  100.3030   23.9127 H   0  0  0  0  0  0
   50.4052   97.5708   28.0812 H   0  0  0  0  0  0
   50.4341   96.7204   26.5457 H   0  0  0  0  0  0
   51.8835   97.5031   27.1359 H   0  0  0  0  0  0
  1  2  2  0  0  0
  1  4  1  0  0  0
  1 22  1  0  0  0
  2  3  1  0  0  0
  3  6  2  0  0  0
  3 28  1  0  0  0
  4  5  2  0  0  0
  4 29  1  0  0  0
  5  9  1  0  0  0
  5  6  1  0  0  0
  6  7  1  0  0  0
  7  8  2  0  0  0
  7 30  1  0  0  0
  8  9  1  0  0  0
  8 10  1  0  0  0
  9 31  1  0  0  0
 10 11  1  0  0  0
 10 12  2  0  0  0
 11 13  1  0  0  0
 11 32  1  0  0  0
 13 14  1  0  0  0
 13 33  1  0  0  0
 13 34  1  0  0  0
 14 15  2  0  0  0
 14 19  1  0  0  0
 15 16  1  0  0  0
 15 35  1  0  0  0
 16 17  2  0  0  0
 16 36  1  0  0  0
 17 18  1  0  0  0
 17 37  1  0  0  0
 18 19  2  0  0  0
 18 20  1  0  0  0
 19 38  1  0  0  0
 20 21  1  0  0  0
 21 39  1  0  0  0
 21 40  1  0  0  0
 21 41  1  0  0  0
 22 23  2  0  0  0
 22 26  1  0  0  0
 23 24  1  0  0  0
 23 42  1  0  0  0
 24 25  1  0  0  0
 24 43  1  0  0  0
 25 26  2  0  0  0
 26 27  1  0  0  0
 27 44  1  0  0  0
 27 45  1  0  0  0
 27 46  1  0  0  0
M  END
> <s_m_entry_id>
28628

> <s_m_entry_name>
dock_pv.789

> <s_m_Source_Path>
/home/csk/Desktop/cluster/DUD-E-result/rock1

> <s_m_Source_File>
dock_pv.maegz

> <i_m_Source_File_Index>
789

> <chembl_id>
CHEMBL1923163

> <chembl_pref_name>
None

> <i_lp_mmshare_version>
53161

> <r_lp_tautomer_probability>
0.4999828386471

> <s_lp_Force_Field>
OPLS_2005

> <r_lp_Energy>
13.461424

> <b_lp_Chiralities_Consistent>
1

> <s_lp_Variant>
CHEMBL3231_lig354-2

> <s_i_glide_gridfile>
glide-grid_2etr

> <i_i_glide_lignum>
503

> <i_i_glide_rotatable_bonds>
6

> <r_i_docking_score>
-6.91184202206124

> <r_i_glide_ligand_efficiency>
-0.255994148965231

> <r_i_glide_ligand_efficiency_sa>
-0.767982446051978

> <r_i_glide_ligand_efficiency_ln>
-1.6089628721144

> <r_i_glide_gscore>
-6.91184202206124

> <r_i_glide_lipo>
-2.00476341232686

> <r_i_glide_hbond>
-0.32

> <r_i_glide_metal>
0

> <r_i_glide_rewards>
-2.14799896256981

> <r_i_glide_evdw>
-44.0960426330566

> <r_i_glide_ecoul>
-5.71393442153931

> <r_i_glide_erotb>
0.734643154774584

> <r_i_glide_esite>
-0.111830507055421

> <r_i_glide_emodel>
-68.8307464475406

> <r_i_glide_energy>
-49.8099770545959

> <r_i_glide_einternal>
4.43200826644897

> <i_i_glide_confnum>
24

> <i_i_glide_posenum>
105

> <r_i_glide_eff_state_penalty>
0

> <s_user_duplicate_titles>
CHEMBL3231_lig354

> <i_f3d_flags>
0

> <s_m_subgroup_title>
dock_pv

> <s_m_subgroupid>
dock_pv

> <b_m_subgroup_collapsed>
1

$$$$
CHEMBL3231_lig738
                    3D
 Schrodinger Suite 2021-1.
 49 52  0  0  1  0            999 V2000
   50.4998  103.9228   28.5225 C   0  0  0  0  0  0
   50.4464  102.5767   28.0620 O   0  0  0  0  0  0
   51.1477  101.5893   28.7372 C   0  0  0  0  0  0
   51.7526  101.8100   29.9890 C   0  0  0  0  0  0
   52.4480  100.7923   30.6539 C   0  0  0  0  0  0
   52.5405   99.5333   30.0562 C   0  0  0  0  0  0
   51.9458   99.2994   28.8224 C   0  0  0  0  0  0
   51.2463  100.3097   28.1496 C   0  0  0  0  0  0
   50.6514   99.9601   26.8160 C   0  0  0  0  0  0
   50.5015   98.6822   26.2373 C   0  0  0  0  0  0
   49.9697   98.7031   25.0400 N   0  0  0  0  0  0
   49.7302   99.9908   24.8110 N   0  0  0  0  0  0
   50.1313  100.7996   25.8374 C   0  0  0  0  0  0
   53.0437  101.0402   32.0142 C   0  0  0  0  0  0
   52.4331  101.7131   32.8485 O   0  0  0  0  0  0
   54.2529  100.4849   32.2301 N   0  0  0  0  0  0
   54.9720  100.4031   33.5030 C   0  0  1  0  0  0
   55.2361  101.7954   34.1288 C   0  0  0  0  0  0
   54.3445   99.3577   34.4542 C   0  0  0  0  0  0
   53.5720   99.7601   35.5488 C   0  0  0  0  0  0
   53.0295   98.8393   36.4328 C   0  0  0  0  0  0
   53.2434   97.4800   36.2625 C   0  0  0  0  0  0
   54.0168   97.0104   35.1743 C   0  0  0  0  0  0
   54.2438   95.6181   34.9998 C   0  0  0  0  0  0
   55.0215   95.1587   33.9430 C   0  0  0  0  0  0
   55.5737   96.0555   33.0371 C   0  0  0  0  0  0
   55.3601   97.4244   33.1759 C   0  0  0  0  0  0
   54.5822   97.9497   34.2492 C   0  0  0  0  0  0
   49.9487  104.5616   27.8321 H   0  0  0  0  0  0
   50.0400  104.0209   29.5043 H   0  0  0  0  0  0
   51.5258  104.2939   28.5669 H   0  0  0  0  0  0
   51.6930  102.7763   30.4673 H   0  0  0  0  0  0
   53.0559   98.7164   30.5468 H   0  0  0  0  0  0
   52.0426   98.3116   28.3976 H   0  0  0  0  0  0
   50.7864   97.7428   26.6849 H   0  0  0  0  0  0
   49.3118  100.3036   23.9388 H   0  0  0  0  0  0
   50.0160  101.8713   25.7770 H   0  0  0  0  0  0
   54.6699   99.9818   31.4607 H   0  0  0  0  0  0
   55.9766  100.0513   33.2593 H   0  0  0  0  0  0
   55.9499  101.7321   34.9511 H   0  0  0  0  0  0
   55.6430  102.4814   33.3873 H   0  0  0  0  0  0
   54.3334  102.2778   34.5037 H   0  0  0  0  0  0
   53.3688  100.8027   35.7282 H   0  0  0  0  0  0
   52.4429   99.1904   37.2670 H   0  0  0  0  0  0
   52.8269   96.7731   36.9660 H   0  0  0  0  0  0
   53.8206   94.9144   35.7017 H   0  0  0  0  0  0
   55.2076   94.0994   33.8352 H   0  0  0  0  0  0
   56.1845   95.6911   32.2232 H   0  0  0  0  0  0
   55.8131   98.0782   32.4472 H   0  0  0  0  0  0
  1  2  1  0  0  0
  1 29  1  0  0  0
  1 30  1  0  0  0
  1 31  1  0  0  0
  2  3  1  0  0  0
  3  4  2  0  0  0
  3  8  1  0  0  0
  4  5  1  0  0  0
  4 32  1  0  0  0
  5  6  2  0  0  0
  5 14  1  0  0  0
  6  7  1  0  0  0
  6 33  1  0  0  0
  7  8  2  0  0  0
  7 34  1  0  0  0
  8  9  1  0  0  0
  9 10  1  0  0  0
  9 13  2  0  0  0
 10 11  2  0  0  0
 10 35  1  0  0  0
 11 12  1  0  0  0
 12 13  1  0  0  0
 12 36  1  0  0  0
 13 37  1  0  0  0
 14 15  2  0  0  0
 14 16  1  0  0  0
 16 17  1  0  0  0
 16 38  1  0  0  0
 17 18  1  0  0  0
 17 19  1  0  0  0
 17 39  1  0  0  0
 18 40  1  0  0  0
 18 41  1  0  0  0
 18 42  1  0  0  0
 19 20  2  0  0  0
 19 28  1  0  0  0
 20 21  1  0  0  0
 20 43  1  0  0  0
 21 22  2  0  0  0
 21 44  1  0  0  0
 22 23  1  0  0  0
 22 45  1  0  0  0
 23 24  2  0  0  0
 23 28  1  0  0  0
 24 25  1  0  0  0
 24 46  1  0  0  0
 25 26  2  0  0  0
 25 47  1  0  0  0
 26 27  1  0  0  0
 26 48  1  0  0  0
 27 28  2  0  0  0
 27 49  1  0  0  0
M  END
> <s_m_entry_id>
28629

> <s_m_entry_name>
dock_pv.790

> <s_m_Source_Path>
/home/csk/Desktop/cluster/DUD-E-result/rock1

> <s_m_Source_File>
dock_pv.maegz

> <i_m_Source_File_Index>
790

> <chembl_id>
CHEMBL3969951

> <chembl_pref_name>
None

> <i_lp_mmshare_version>
53161

> <r_lp_tautomer_probability>
0.5

> <s_lp_Force_Field>
OPLS_2005

> <r_lp_Energy>
27.827032

> <b_lp_Chiralities_Consistent>
1

> <s_lp_Variant>
CHEMBL3231_lig738-1

> <s_i_glide_gridfile>
glide-grid_2etr

> <i_i_glide_lignum>
1051

> <i_i_glide_rotatable_bonds>
6

> <r_i_docking_score>
-6.91153599980557

> <r_i_glide_ligand_efficiency>
-0.246840571421627

> <r_i_glide_ligand_efficiency_sa>
-0.749553356157846

> <r_i_glide_ligand_efficiency_ln>
-1.59538544027

> <r_i_glide_gscore>
-6.91153599980557

> <r_i_glide_lipo>
-1.9049422033522

> <r_i_glide_hbond>
-0.429494069338134

> <r_i_glide_metal>
0

> <r_i_glide_rewards>
-1.93579890465298

> <r_i_glide_evdw>
-43.1135749816895

> <r_i_glide_ecoul>
-5.53686141967773

> <r_i_glide_erotb>
0.391765586547678

> <r_i_glide_esite>
-0.0468584469738075

> <r_i_glide_emodel>
-68.0145646339723

> <r_i_glide_energy>
-48.6504364013672

> <r_i_glide_einternal>
4.00713014602661

> <i_i_glide_confnum>
4

> <i_i_glide_posenum>
371

> <r_i_glide_eff_state_penalty>
0

> <s_user_duplicate_titles>
CHEMBL3231_lig738

> <i_f3d_flags>
0

> <s_m_subgroup_title>
dock_pv

> <s_m_subgroupid>
dock_pv

> <b_m_subgroup_collapsed>
1

$$$$
CHEMBL3231_lig1889
                    3D
 Schrodinger Suite 2021-1.
 46 49  0  0  1  0            999 V2000
   52.2016  103.9520   36.0970 S   0  0  0  0  0  0
   48.1933  104.3029   37.2110 O   0  0  0  0  0  0
   53.7456  103.9030   31.0516 N   0  0  0  0  0  0
   53.4448  103.1121   30.0120 N   0  0  0  0  0  0
   49.1299  103.1538   35.4911 N   0  0  0  0  0  0
   50.7035  100.8548   26.1987 N   0  0  0  0  0  0
   52.4767  102.2786   31.8609 C   0  0  0  0  0  0
   53.1428  103.4789   32.2122 C   0  0  0  0  0  0
   52.6695  102.1438   30.4460 C   0  0  0  0  0  0
   52.3843  103.2957   34.4634 C   0  0  0  0  0  0
   53.1043  104.0139   33.5038 C   0  0  0  0  0  0
   51.8056  101.5573   32.8601 C   0  0  0  0  0  0
   51.2186  105.4114   35.7921 C   0  0  0  0  0  0
   51.7912  102.0686   34.1595 C   0  0  0  0  0  0
   49.8047  105.4309   35.8765 C   0  0  0  0  0  0
   52.0860  101.1423   29.5747 C   0  0  0  0  0  0
   48.9821  104.2340   36.2694 C   0  0  0  0  0  0
   51.9030  106.5888   35.4848 C   0  0  0  0  0  0
   49.1260  106.6292   35.6109 C   0  0  0  0  0  0
   51.8339  101.3100   28.2618 C   0  0  0  0  0  0
   51.2104  107.7701   35.2267 C   0  0  0  0  0  0
   49.8210  107.7902   35.2798 C   0  0  0  0  0  0
   51.2423  100.3317   27.3348 C   0  0  0  0  0  0
   51.2059   98.9575   27.6110 C   0  0  0  0  0  0
   50.1184  100.0081   25.3130 C   0  0  0  0  0  0
   50.5963   98.1026   26.6900 C   0  0  0  0  0  0
   48.4417  101.8942   35.7131 C   0  0  0  0  0  0
   50.0426   98.6318   25.5259 C   0  0  0  0  0  0
   54.3683  104.6974   30.9290 H   0  0  0  0  0  0
   49.8610  103.1664   34.7927 H   0  0  0  0  0  0
   53.5923  104.9490   33.7398 H   0  0  0  0  0  0
   51.3042  100.6272   32.6286 H   0  0  0  0  0  0
   51.2902  101.5099   34.9386 H   0  0  0  0  0  0
   51.8416  100.2119   30.0661 H   0  0  0  0  0  0
   52.9823  106.5937   35.4256 H   0  0  0  0  0  0
   48.0458  106.6702   35.6731 H   0  0  0  0  0  0
   52.0889  102.2631   27.8301 H   0  0  0  0  0  0
   51.7555  108.6676   34.9683 H   0  0  0  0  0  0
   49.2857  108.7073   35.0841 H   0  0  0  0  0  0
   51.6420   98.5526   28.5118 H   0  0  0  0  0  0
   49.6983  100.4560   24.4222 H   0  0  0  0  0  0
   50.5549   97.0393   26.8796 H   0  0  0  0  0  0
   48.9153  101.0899   35.1504 H   0  0  0  0  0  0
   48.4654  101.6226   36.7716 H   0  0  0  0  0  0
   47.3983  101.9742   35.3950 H   0  0  0  0  0  0
   49.5577   97.9893   24.8106 H   0  0  0  0  0  0
  1 10  1  0  0  0
  1 13  1  0  0  0
  2 17  2  0  0  0
  3  4  1  0  0  0
  3  8  1  0  0  0
  3 29  1  0  0  0
  4  9  2  0  0  0
  5 17  1  0  0  0
  5 27  1  0  0  0
  5 30  1  0  0  0
  6 23  1  0  0  0
  6 25  2  0  0  0
  7  8  1  0  0  0
  7  9  1  0  0  0
  7 12  2  0  0  0
  8 11  2  0  0  0
  9 16  1  0  0  0
 10 11  1  0  0  0
 10 14  2  0  0  0
 11 31  1  0  0  0
 12 14  1  0  0  0
 12 32  1  0  0  0
 13 15  1  0  0  0
 13 18  2  0  0  0
 14 33  1  0  0  0
 15 17  1  0  0  0
 15 19  2  0  0  0
 16 20  2  3  0  0
 16 34  1  0  0  0
 18 21  1  0  0  0
 18 35  1  0  0  0
 19 22  1  0  0  0
 19 36  1  0  0  0
 20 23  1  0  0  0
 20 37  1  0  0  0
 21 22  2  0  0  0
 21 38  1  0  0  0
 22 39  1  0  0  0
 23 24  2  0  0  0
 24 26  1  0  0  0
 24 40  1  0  0  0
 25 28  1  0  0  0
 25 41  1  0  0  0
 26 28  2  0  0  0
 26 42  1  0  0  0
 27 43  1  0  0  0
 27 44  1  0  0  0
 27 45  1  0  0  0
 28 46  1  0  0  0
M  END
> <s_m_entry_id>
28630

> <s_m_entry_name>
dock_pv.791

> <s_m_Source_Path>
/home/csk/Desktop/cluster/DUD-E-result/rock1

> <s_m_Source_File>
dock_pv.maegz

> <i_m_Source_File_Index>
791

> <chembl_id>
CHEMBL1988437

> <chembl_pref_name>
None

> <i_lp_mmshare_version>
53161

> <r_lp_tautomer_probability>
1

> <s_lp_Force_Field>
OPLS_2005

> <r_lp_Energy>
20.354649

> <b_lp_Chiralities_Consistent>
1

> <s_lp_Variant>
CHEMBL3231_lig1889-1

> <s_i_glide_gridfile>
glide-grid_2etr

> <i_i_glide_lignum>
2735

> <i_i_glide_rotatable_bonds>
6

> <r_i_docking_score>
-6.91106239031473

> <r_i_glide_ligand_efficiency>
-0.246823656796955

> <r_i_glide_ligand_efficiency_sa>
-0.749501993395158

> <r_i_glide_ligand_efficiency_ln>
-1.59527611729374

> <r_i_glide_gscore>
-6.91106239031473

> <r_i_glide_lipo>
-2.347552469095

> <r_i_glide_hbond>
-0.33448447200909

> <r_i_glide_metal>
0

> <r_i_glide_rewards>
-1.48025815010108

> <r_i_glide_evdw>
-48.7801284790039

> <r_i_glide_ecoul>
-5.88153266906738

> <r_i_glide_erotb>
0.651573165490425

> <r_i_glide_esite>
-0.0791041402896861

> <r_i_glide_emodel>
-73.8024089424378

> <r_i_glide_energy>
-54.6616611480713

> <r_i_glide_einternal>
7.78765201568604

> <i_i_glide_confnum>
7

> <i_i_glide_posenum>
293

> <r_i_glide_eff_state_penalty>
0

> <s_user_duplicate_titles>
CHEMBL3231_lig1889

> <i_f3d_flags>
0

> <s_m_subgroup_title>
dock_pv

> <s_m_subgroupid>
dock_pv

> <b_m_subgroup_collapsed>
1

$$$$
CHEMBL3231_lig1795
                    3D
 Schrodinger Suite 2021-1.
 40 42  0  0  1  0            999 V2000
   52.1842  103.8897   31.5426 Cl  0  0  0  0  0  0
   50.4426  102.1456   26.5430 O   0  0  0  0  0  0
   50.0432   98.3219   24.8221 O   0  0  0  0  0  0
   49.2444  100.4361   24.8106 O   0  0  0  0  0  0
   52.2826  100.0452   30.4691 N   0  0  0  0  0  0
   53.1900  101.1383   32.3151 N   0  0  0  0  0  0
   51.6013   98.8269   28.6303 N   0  0  0  0  0  0
   54.8434   97.7913   31.0304 N   0  0  0  0  0  0
   51.2319  101.2283   28.6172 C   0  0  0  0  0  0
   51.7069  100.0664   29.2576 C   0  0  0  0  0  0
   51.3248  102.4385   29.3614 C   0  0  0  0  0  0
   52.4643  101.2158   31.1199 C   0  0  0  0  0  0
   51.9744  102.4312   30.6171 C   0  0  0  0  0  0
   50.7034  101.1331   27.1896 C   0  0  0  0  0  0
   50.5583   99.7384   26.6581 C   0  0  0  0  0  0
   51.0165   98.6963   27.3981 C   0  0  0  0  0  0
   49.9624   99.4213   25.3662 C   0  0  0  0  0  0
   54.5362  100.5577   32.2911 C   0  0  0  0  0  0
   52.5623  100.5676   33.5146 C   0  0  0  0  0  0
   50.6904  103.7414   28.8555 C   0  0  0  0  0  0
   54.5204   99.2286   33.0507 C   0  0  1  0  0  0
   53.5578   99.5919   34.1683 C   0  0  0  0  0  0
   54.0818   97.9741   32.2530 C   0  0  0  0  0  0
   48.9277  100.2059   23.9266 H   0  0  0  0  0  0
   51.9614   98.0243   29.1255 H   0  0  0  0  0  0
   55.8409   97.9062   31.2126 H   0  0  0  0  0  0
   54.7402   96.8434   30.7002 H   0  0  0  0  0  0
   50.9505   97.6666   27.0669 H   0  0  0  0  0  0
   54.9463  100.4755   31.2821 H   0  0  0  0  0  0
   55.2271  101.2397   32.7901 H   0  0  0  0  0  0
   52.4168  101.3506   34.2600 H   0  0  0  0  0  0
   51.6604   99.9925   33.2951 H   0  0  0  0  0  0
   50.5992  104.5170   29.6085 H   0  0  0  0  0  0
   51.2432  104.1591   28.0183 H   0  0  0  0  0  0
   49.6730  103.5518   28.5141 H   0  0  0  0  0  0
   55.5256   99.0364   33.4326 H   0  0  0  0  0  0
   54.0884  100.0670   34.9961 H   0  0  0  0  0  0
   53.0495   98.7166   34.5741 H   0  0  0  0  0  0
   54.2044   97.0864   32.8760 H   0  0  0  0  0  0
   53.0230   98.0235   31.9980 H   0  0  0  0  0  0
  1 13  1  0  0  0
  2 14  2  0  0  0
  3 17  2  0  0  0
  4 17  1  0  0  0
  4 24  1  0  0  0
  5 10  1  0  0  0
  5 12  2  0  0  0
  6 12  1  0  0  0
  6 18  1  0  0  0
  6 19  1  0  0  0
  7 10  1  0  0  0
  7 16  1  0  0  0
  7 25  1  0  0  0
  8 23  1  0  0  0
  8 26  1  0  0  0
  8 27  1  0  0  0
  9 10  2  0  0  0
  9 11  1  0  0  0
  9 14  1  0  0  0
 11 13  2  0  0  0
 11 20  1  0  0  0
 12 13  1  0  0  0
 14 15  1  0  0  0
 15 16  2  0  0  0
 15 17  1  0  0  0
 16 28  1  0  0  0
 18 21  1  0  0  0
 18 29  1  0  0  0
 18 30  1  0  0  0
 19 22  1  0  0  0
 19 31  1  0  0  0
 19 32  1  0  0  0
 20 33  1  0  0  0
 20 34  1  0  0  0
 20 35  1  0  0  0
 21 22  1  0  0  0
 21 23  1  0  0  0
 21 36  1  0  0  0
 22 37  1  0  0  0
 22 38  1  0  0  0
 23 39  1  0  0  0
 23 40  1  0  0  0
M  END
> <s_m_entry_id>
28631

> <s_m_entry_name>
dock_pv.792

> <s_m_Source_Path>
/home/csk/Desktop/cluster/DUD-E-result/rock1

> <s_m_Source_File>
dock_pv.maegz

> <i_m_Source_File_Index>
792

> <chembl_id>
CHEMBL1999774

> <chembl_pref_name>
None

> <i_lp_mmshare_version>
53161

> <r_lp_tautomer_probability>
1

> <s_lp_Force_Field>
OPLS_2005

> <r_lp_Energy>
45.614717

> <b_lp_Chiralities_Consistent>
1

> <s_lp_Variant>
CHEMBL3231_lig1795-2

> <s_i_glide_gridfile>
glide-grid_2etr

> <i_i_glide_lignum>
2571

> <i_i_glide_rotatable_bonds>
4

> <r_i_docking_score>
-6.90821922610337

> <r_i_glide_ligand_efficiency>
-0.300357357656668

> <r_i_glide_ligand_efficiency_sa>
-0.854176370702511

> <r_i_glide_ligand_efficiency_ln>
-1.67047004914049

> <r_i_glide_gscore>
-6.90821922610337

> <r_i_glide_lipo>
-1.43989115776526

> <r_i_glide_hbond>
-0.394306838367031

> <r_i_glide_metal>
0

> <r_i_glide_rewards>
-2.34656693495208

> <r_i_glide_evdw>
-37.8062934875488

> <r_i_glide_ecoul>
-7.69807624816895

> <r_i_glide_erotb>
0.333121466341908

> <r_i_glide_esite>
-0.0155496497581228

> <r_i_glide_emodel>
-62.9204054977412

> <r_i_glide_energy>
-45.5043697357178

> <r_i_glide_einternal>
1.13917124271393

> <i_i_glide_confnum>
15

> <i_i_glide_posenum>
270

> <r_i_glide_eff_state_penalty>
0

> <s_user_duplicate_titles>
CHEMBL3231_lig1795

> <i_f3d_flags>
0

> <s_m_subgroup_title>
dock_pv

> <s_m_subgroupid>
dock_pv

> <b_m_subgroup_collapsed>
1

$$$$
CHEMBL3231_lig1890
                    3D
 Schrodinger Suite 2021-1.
 50 53  0  0  1  0            999 V2000
   54.2973  104.4459   33.4646 Cl  0  0  0  0  0  0
   54.7342  101.5590   33.4495 O   0  0  0  0  0  0
   53.6468   95.9425   33.6109 N   0  0  0  0  0  0
   53.1336  103.9030   31.1575 N   0  0  0  0  0  0
   56.0431  100.8017   35.8023 N   0  0  0  0  0  0
   50.0429   98.3724   25.2111 N   0  0  0  0  0  0
   55.8680   96.2358   33.8299 C   0  0  0  0  0  0
   55.2048   97.2938   34.5491 C   0  0  0  0  0  0
   54.8619   95.4118   33.2388 C   0  0  0  0  0  0
   53.8489   97.0532   34.3918 C   0  0  0  0  0  0
   54.0767  101.9956   32.3139 C   0  0  0  0  0  0
   55.8886   98.4213   35.3074 C   0  0  0  0  0  0
   57.2153   95.9055   33.6111 C   0  0  0  0  0  0
   55.1731   94.3029   32.4459 C   0  0  0  0  0  0
   53.7949  103.3651   32.2123 C   0  0  0  0  0  0
   55.2727   99.8176   35.0593 C   0  0  2  0  0  0
   52.9465  101.6999   30.1730 C   0  0  0  0  0  0
   53.6515  101.1682   31.2581 C   0  0  0  0  0  0
   57.5246   94.8052   32.8146 C   0  0  0  0  0  0
   55.2062  100.2135   33.5652 C   0  0  0  0  0  0
   56.5247   94.0288   32.2378 C   0  0  0  0  0  0
   52.7254  103.0809   30.1617 C   0  0  0  0  0  0
   52.4415  100.7906   29.1270 C   0  0  0  0  0  0
   51.5020  101.0718   28.2005 C   0  0  0  0  0  0
   50.9948  100.1282   27.1883 C   0  0  0  0  0  0
   50.9895   98.7414   27.4015 C   0  0  0  0  0  0
   50.5161  100.6192   25.9678 C   0  0  0  0  0  0
   50.5046   97.9045   26.3963 C   0  0  0  0  0  0
   50.0509   99.7149   25.0115 C   0  0  0  0  0  0
   52.7270   95.6026   33.3436 H   0  0  0  0  0  0
   57.0267  100.7324   35.5540 H   0  0  0  0  0  0
   55.7539  101.7157   35.4816 H   0  0  0  0  0  0
   52.9992   97.6061   34.7650 H   0  0  0  0  0  0
   56.9442   98.4566   35.0298 H   0  0  0  0  0  0
   55.8771   98.2005   36.3759 H   0  0  0  0  0  0
   58.0070   96.5092   34.0286 H   0  0  0  0  0  0
   54.4040   93.6849   32.0119 H   0  0  0  0  0  0
   54.2592   99.8369   35.4632 H   0  0  0  0  0  0
   53.8415  100.1074   31.2635 H   0  0  0  0  0  0
   58.5606   94.5604   32.6294 H   0  0  0  0  0  0
   54.5505   99.4958   33.0789 H   0  0  0  0  0  0
   56.1849  100.1374   33.0885 H   0  0  0  0  0  0
   56.8148   93.1855   31.6271 H   0  0  0  0  0  0
   52.2114  103.5634   29.3442 H   0  0  0  0  0  0
   52.8920   99.8084   29.1172 H   0  0  0  0  0  0
   51.0485  102.0509   28.1868 H   0  0  0  0  0  0
   51.3453   98.3143   28.3275 H   0  0  0  0  0  0
   50.5085  101.6795   25.7600 H   0  0  0  0  0  0
   50.4848   96.8327   26.5314 H   0  0  0  0  0  0
   49.6777  100.0628   24.0578 H   0  0  0  0  0  0
  1 15  1  0  0  0
  2 11  1  0  0  0
  2 20  1  0  0  0
  3  9  1  0  0  0
  3 10  1  0  0  0
  3 30  1  0  0  0
  4 15  2  0  0  0
  4 22  1  0  0  0
  5 16  1  0  0  0
  5 31  1  0  0  0
  5 32  1  0  0  0
  6 28  2  0  0  0
  6 29  1  0  0  0
  7  8  1  0  0  0
  7  9  1  0  0  0
  7 13  2  0  0  0
  8 10  2  0  0  0
  8 12  1  0  0  0
  9 14  2  0  0  0
 10 33  1  0  0  0
 11 15  1  0  0  0
 11 18  2  0  0  0
 12 16  1  0  0  0
 12 34  1  0  0  0
 12 35  1  0  0  0
 13 19  1  0  0  0
 13 36  1  0  0  0
 14 21  1  0  0  0
 14 37  1  0  0  0
 16 20  1  0  0  0
 16 38  1  0  0  0
 17 18  1  0  0  0
 17 22  2  0  0  0
 17 23  1  0  0  0
 18 39  1  0  0  0
 19 21  2  0  0  0
 19 40  1  0  0  0
 20 41  1  0  0  0
 20 42  1  0  0  0
 21 43  1  0  0  0
 22 44  1  0  0  0
 23 24  2  3  0  0
 23 45  1  0  0  0
 24 25  1  0  0  0
 24 46  1  0  0  0
 25 26  2  0  0  0
 25 27  1  0  0  0
 26 28  1  0  0  0
 26 47  1  0  0  0
 27 29  2  0  0  0
 27 48  1  0  0  0
 28 49  1  0  0  0
 29 50  1  0  0  0
M  END
> <s_m_entry_id>
28632

> <s_m_entry_name>
dock_pv.793

> <s_m_Source_Path>
/home/csk/Desktop/cluster/DUD-E-result/rock1

> <s_m_Source_File>
dock_pv.maegz

> <i_m_Source_File_Index>
793

> <chembl_id>
CHEMBL1968245

> <chembl_pref_name>
None

> <i_lp_mmshare_version>
53161

> <r_lp_tautomer_probability>
1

> <s_lp_Force_Field>
OPLS_2005

> <r_lp_Energy>
20.694339

> <b_lp_Chiralities_Consistent>
1

> <s_lp_Variant>
CHEMBL3231_lig1890-1

> <s_i_glide_gridfile>
glide-grid_2etr

> <i_i_glide_lignum>
2737

> <i_i_glide_rotatable_bonds>
7

> <r_i_docking_score>
-6.90564344167881

> <r_i_glide_ligand_efficiency>
-0.238125635919959

> <r_i_glide_ligand_efficiency_sa>
-0.731597397042863

> <r_i_glide_ligand_efficiency_ln>
-1.58121723613584

> <r_i_glide_gscore>
-6.90564344167881

> <r_i_glide_lipo>
-2.24978188357649

> <r_i_glide_hbond>
-0.539985548656498

> <r_i_glide_metal>
0

> <r_i_glide_rewards>
-1.95748159010724

> <r_i_glide_evdw>
-45.8782844543457

> <r_i_glide_ecoul>
-3.89043378829956

> <r_i_glide_erotb>
0.719084871623642

> <r_i_glide_esite>
0

> <r_i_glide_emodel>
-68.1847557752002

> <r_i_glide_energy>
-49.7687182426453

> <r_i_glide_einternal>
4.09670925140381

> <i_i_glide_confnum>
9

> <i_i_glide_posenum>
219

> <r_i_glide_eff_state_penalty>
0

> <s_user_duplicate_titles>
CHEMBL3231_lig1890

> <i_f3d_flags>
0

> <s_m_subgroup_title>
dock_pv

> <s_m_subgroupid>
dock_pv

> <b_m_subgroup_collapsed>
1

$$$$
CHEMBL3231_lig1456
                    3D
 Schrodinger Suite 2021-1.
 24 26  0  0  1  0            999 V2000
   52.1602   98.3032   31.2114 S   0  0  0  0  0  0
   52.3609  100.7513   30.0406 N   0  0  0  0  0  0
   51.5972  102.8286   29.5498 N   0  0  0  0  0  0
   54.2629   99.8007   31.1049 N   0  0  0  0  0  0
   52.9149  102.6352   31.4701 N   0  0  0  0  0  0
   50.0430   97.9033   25.2111 N   0  0  0  0  0  0
   51.6509  100.6355   28.8588 C   0  0  0  0  0  0
   51.1961  101.9482   28.5854 C   0  0  0  0  0  0
   52.3014  102.1006   30.3747 C   0  0  0  0  0  0
   53.0030   99.7523   30.7428 C   0  0  0  0  0  0
   51.3654   99.5575   28.0105 C   0  0  0  0  0  0
   50.4430  102.1962   27.4329 C   0  0  0  0  0  0
   50.6304   99.8395   26.8552 C   0  0  0  0  0  0
   50.1937  101.1333   26.5640 C   0  0  0  0  0  0
   53.6371   97.7413   31.9304 C   0  0  0  0  0  0
   54.6208   98.7113   31.7556 C   0  0  0  0  0  0
   50.3052   98.7605   25.9396 C   0  0  0  0  0  0
   53.5172  102.0691   32.0504 H   0  0  0  0  0  0
   53.0304  103.6349   31.5566 H   0  0  0  0  0  0
   51.7097   98.5563   28.2307 H   0  0  0  0  0  0
   50.0908  103.1918   27.2105 H   0  0  0  0  0  0
   49.6436  101.3254   25.6523 H   0  0  0  0  0  0
   53.7036   96.7778   32.4160 H   0  0  0  0  0  0
   55.6428   98.6297   32.1010 H   0  0  0  0  0  0
  1 10  1  0  0  0
  1 15  1  0  0  0
  2  7  1  0  0  0
  2  9  1  0  0  0
  2 10  1  0  0  0
  3  8  1  0  0  0
  3  9  2  0  0  0
  4 10  2  0  0  0
  4 16  1  0  0  0
  5  9  1  0  0  0
  5 18  1  0  0  0
  5 19  1  0  0  0
  6 17  3  0  0  0
  7  8  1  0  0  0
  7 11  2  0  0  0
  8 12  2  0  0  0
 11 13  1  0  0  0
 11 20  1  0  0  0
 12 14  1  0  0  0
 12 21  1  0  0  0
 13 14  2  0  0  0
 13 17  1  0  0  0
 14 22  1  0  0  0
 15 16  2  0  0  0
 15 23  1  0  0  0
 16 24  1  0  0  0
M  END
> <s_m_entry_id>
28633

> <s_m_entry_name>
dock_pv.794

> <s_m_Source_Path>
/home/csk/Desktop/cluster/DUD-E-result/rock1

> <s_m_Source_File>
dock_pv.maegz

> <i_m_Source_File_Index>
794

> <chembl_id>
CHEMBL1988805

> <chembl_pref_name>
None

> <i_lp_mmshare_version>
53161

> <r_lp_tautomer_probability>
1

> <s_lp_Force_Field>
OPLS_2005

> <r_lp_Energy>
9.496343

> <b_lp_Chiralities_Consistent>
1

> <s_lp_Variant>
CHEMBL3231_lig1456-1

> <s_i_glide_gridfile>
glide-grid_2etr

> <i_i_glide_lignum>
2049

> <i_i_glide_rotatable_bonds>
1

> <r_i_docking_score>
-6.90323965509032

> <r_i_glide_ligand_efficiency>
-0.406072920887666

> <r_i_glide_ligand_efficiency_sa>
-1.04412782495719

> <r_i_glide_ligand_efficiency_ln>
-1.80090149842416

> <r_i_glide_gscore>
-6.90323965509032

> <r_i_glide_lipo>
-1.57334421969119

> <r_i_glide_hbond>
-0.32

> <r_i_glide_metal>
0

> <r_i_glide_rewards>
-2.81937456644001

> <r_i_glide_evdw>
-31.3026924133301

> <r_i_glide_ecoul>
-5.75593090057373

> <r_i_glide_erotb>
0.297547363106429

> <r_i_glide_esite>
-0.0595439763129824

> <r_i_glide_emodel>
-52.4849007044263

> <r_i_glide_energy>
-37.0586233139038

> <r_i_glide_einternal>
1.07279980182648

> <i_i_glide_confnum>
2

> <i_i_glide_posenum>
297

> <r_i_glide_eff_state_penalty>
0

> <s_user_duplicate_titles>
CHEMBL3231_lig1456

> <i_f3d_flags>
0

> <s_m_subgroup_title>
dock_pv

> <s_m_subgroupid>
dock_pv

> <b_m_subgroup_collapsed>
1

$$$$
CHEMBL3231_lig475
                    3D
 Schrodinger Suite 2021-1.
 40 42  0  0  1  0            999 V2000
   52.4523  103.8994   31.5020 N   0  0  0  0  0  0
   52.7146  103.1137   32.5740 C   0  0  0  0  0  0
   52.6512  101.7203   32.5452 C   0  0  0  0  0  0
   52.1090  103.2870   30.3443 C   0  0  0  0  0  0
   52.0008  101.8913   30.1858 C   0  0  0  0  0  0
   52.2883  101.0778   31.3227 C   0  0  0  0  0  0
   52.2045   99.6740   31.1094 C   0  0  0  0  0  0
   51.8421   99.1524   29.9091 N   0  0  0  0  0  0
   51.5477  100.0151   28.9011 C   0  0  0  0  0  0
   51.6246  101.3701   28.9875 N   0  0  0  0  0  0
   51.0406   99.4294   27.6121 C   0  0  0  0  0  0
   50.9318   98.0369   27.4359 C   0  0  0  0  0  0
   50.4429   97.5211   26.2382 C   0  0  0  0  0  0
   50.0430   98.3062   25.2106 N   0  0  0  0  0  0
   50.1415   99.6485   25.3685 C   0  0  0  0  0  0
   50.6302  100.2389   26.5355 C   0  0  0  0  0  0
   52.4966   98.7843   32.1626 N   0  0  0  0  0  0
   53.1147   97.4828   31.8826 C   0  0  0  0  0  0
   54.6686   97.4771   31.9912 C   0  0  0  0  0  0
   55.2425   98.4770   31.1106 N   0  0  0  0  0  0
   55.1434   97.8212   33.4166 C   0  0  0  0  0  0
   55.2432   96.1194   31.5485 C   0  0  0  0  0  0
   52.9983  103.6317   33.4779 H   0  0  0  0  0  0
   52.8896  101.1403   33.4250 H   0  0  0  0  0  0
   51.9210  103.9238   29.4934 H   0  0  0  0  0  0
   51.2289   97.3512   28.2163 H   0  0  0  0  0  0
   50.3703   96.4531   26.0898 H   0  0  0  0  0  0
   49.8159  100.2556   24.5349 H   0  0  0  0  0  0
   50.6833  101.3156   26.5974 H   0  0  0  0  0  0
   52.8086   99.2120   33.0202 H   0  0  0  0  0  0
   52.8084   97.1009   30.9083 H   0  0  0  0  0  0
   52.7116   96.7651   32.5966 H   0  0  0  0  0  0
   56.2633   98.4144   31.2106 H   0  0  0  0  0  0
   55.0458   98.2458   30.1502 H   0  0  0  0  0  0
   54.7404   97.1206   34.1490 H   0  0  0  0  0  0
   54.8378   98.8252   33.7137 H   0  0  0  0  0  0
   56.2315   97.7925   33.4957 H   0  0  0  0  0  0
   54.8309   95.3013   32.1398 H   0  0  0  0  0  0
   55.0294   95.9083   30.5001 H   0  0  0  0  0  0
   56.3296   96.0828   31.6564 H   0  0  0  0  0  0
  1  2  2  0  0  0
  1  4  1  0  0  0
  2  3  1  0  0  0
  2 23  1  0  0  0
  3  6  2  0  0  0
  3 24  1  0  0  0
  4  5  2  0  0  0
  4 25  1  0  0  0
  5  6  1  0  0  0
  5 10  1  0  0  0
  6  7  1  0  0  0
  7  8  2  0  0  0
  7 17  1  0  0  0
  8  9  1  0  0  0
  9 10  2  0  0  0
  9 11  1  0  0  0
 11 12  2  0  0  0
 11 16  1  0  0  0
 12 13  1  0  0  0
 12 26  1  0  0  0
 13 14  2  0  0  0
 13 27  1  0  0  0
 14 15  1  0  0  0
 15 16  2  0  0  0
 15 28  1  0  0  0
 16 29  1  0  0  0
 17 18  1  0  0  0
 17 30  1  0  0  0
 18 19  1  0  0  0
 18 31  1  0  0  0
 18 32  1  0  0  0
 19 20  1  0  0  0
 19 21  1  0  0  0
 19 22  1  0  0  0
 20 33  1  0  0  0
 20 34  1  0  0  0
 21 35  1  0  0  0
 21 36  1  0  0  0
 21 37  1  0  0  0
 22 38  1  0  0  0
 22 39  1  0  0  0
 22 40  1  0  0  0
M  END
> <s_m_entry_id>
28634

> <s_m_entry_name>
dock_pv.795

> <s_m_Source_Path>
/home/csk/Desktop/cluster/DUD-E-result/rock1

> <s_m_Source_File>
dock_pv.maegz

> <i_m_Source_File_Index>
795

> <chembl_id>
CHEMBL3338837

> <chembl_pref_name>
None

> <i_lp_mmshare_version>
53161

> <r_lp_tautomer_probability>
1

> <s_lp_Force_Field>
OPLS_2005

> <r_lp_Energy>
16.682399

> <b_lp_Chiralities_Consistent>
1

> <s_lp_Variant>
CHEMBL3231_lig475-1

> <s_i_glide_gridfile>
glide-grid_2etr

> <i_i_glide_lignum>
668

> <i_i_glide_rotatable_bonds>
4

> <r_i_docking_score>
-6.90300631861024

> <r_i_glide_ligand_efficiency>
-0.313773014482283

> <r_i_glide_ligand_efficiency_sa>
-0.879204326571775

> <r_i_glide_ligand_efficiency_ln>
-1.68734653754169

> <r_i_glide_gscore>
-6.90300631861024

> <r_i_glide_lipo>
-1.73166153079911

> <r_i_glide_hbond>
-0.380382856826504

> <r_i_glide_metal>
0

> <r_i_glide_rewards>
-2.93340498485582

> <r_i_glide_evdw>
-34.3059272766113

> <r_i_glide_ecoul>
-5.1696343421936

> <r_i_glide_erotb>
0.633184569030803

> <r_i_glide_esite>
0

> <r_i_glide_emodel>
-55.5287663537275

> <r_i_glide_energy>
-39.4755616188049

> <r_i_glide_einternal>
2.53212332725525

> <i_i_glide_confnum>
3

> <i_i_glide_posenum>
400

> <r_i_glide_eff_state_penalty>
0

> <s_user_duplicate_titles>
CHEMBL3231_lig475

> <i_f3d_flags>
0

> <s_m_subgroup_title>
dock_pv

> <s_m_subgroupid>
dock_pv

> <b_m_subgroup_collapsed>
1

$$$$
CHEMBL3231_lig1515
                    3D
 Schrodinger Suite 2021-1.
 43 46  0  0  1  0            999 V2000
   54.2198  103.4047   37.2243 Cl  0  0  0  0  0  0
   55.2429   96.7908   31.6474 O   0  0  0  0  0  0
   50.0430   99.0482   24.4110 O   0  0  0  0  0  0
   50.9997  102.9064   29.5472 N   0  0  0  0  0  0
   51.2754  103.3198   30.7861 N   0  0  0  0  0  0
   52.2142  102.2715   32.6820 N   0  0  0  0  0  0
   52.0136  101.2280   30.4516 C   0  0  0  0  0  0
   51.3861  101.6188   29.2660 C   0  0  0  0  0  0
   51.8515  102.2895   31.3574 C   0  0  0  0  0  0
   52.7796   99.9994   30.7607 C   0  0  0  0  0  0
   51.1210  100.9462   27.9492 C   0  0  0  0  0  0
   54.1601  100.1658   30.8102 C   0  0  0  0  0  0
   52.2028   98.7569   31.0360 C   0  0  0  0  0  0
   52.9974  103.1779   33.4092 C   0  0  0  0  0  0
   51.5022   99.6189   27.7138 C   0  0  0  0  0  0
   50.4244  101.6332   26.9480 C   0  0  0  0  0  0
   54.9743   99.0891   31.1102 C   0  0  0  0  0  0
   53.0287   97.6731   31.3398 C   0  0  0  0  0  0
   54.4139   97.8434   31.3674 C   0  0  0  0  0  0
   51.1564   98.9818   26.5241 C   0  0  0  0  0  0
   50.0559  100.9901   25.7715 C   0  0  0  0  0  0
   50.4217   99.6700   25.5651 C   0  0  0  0  0  0
   53.1939  102.9092   34.7671 C   0  0  0  0  0  0
   53.6229  104.2908   32.8354 C   0  0  0  0  0  0
   53.9981  103.7405   35.5464 C   0  0  0  0  0  0
   54.4393  105.1118   33.6136 C   0  0  0  0  0  0
   54.6227  104.8428   34.9681 C   0  0  0  0  0  0
   56.1756   97.0511   31.6106 H   0  0  0  0  0  0
   49.5277   99.6032   23.8120 H   0  0  0  0  0  0
   50.5481  103.5110   28.8774 H   0  0  0  0  0  0
   51.9880  101.4506   33.2220 H   0  0  0  0  0  0
   54.6106  101.1291   30.6146 H   0  0  0  0  0  0
   51.1301   98.6333   31.0134 H   0  0  0  0  0  0
   52.0569   99.0566   28.4450 H   0  0  0  0  0  0
   50.1082  102.6562   27.0857 H   0  0  0  0  0  0
   56.0429   99.2395   31.1377 H   0  0  0  0  0  0
   52.6001   96.7039   31.5493 H   0  0  0  0  0  0
   51.4457   97.9548   26.3559 H   0  0  0  0  0  0
   49.4643  101.5030   25.0309 H   0  0  0  0  0  0
   52.7280  102.0498   35.2263 H   0  0  0  0  0  0
   53.5026  104.5202   31.7873 H   0  0  0  0  0  0
   54.9081  105.9762   33.1671 H   0  0  0  0  0  0
   55.2403  105.4933   35.5669 H   0  0  0  0  0  0
  1 25  1  0  0  0
  2 19  1  0  0  0
  2 28  1  0  0  0
  3 22  1  0  0  0
  3 29  1  0  0  0
  4  8  1  0  0  0
  4 30  1  0  0  0
  4  5  1  0  0  0
  5  9  2  0  0  0
  6  9  1  0  0  0
  6 14  1  0  0  0
  6 31  1  0  0  0
  7  9  1  0  0  0
  7  8  2  0  0  0
  7 10  1  0  0  0
  8 11  1  0  0  0
 10 12  2  0  0  0
 10 13  1  0  0  0
 11 15  2  0  0  0
 11 16  1  0  0  0
 12 17  1  0  0  0
 12 32  1  0  0  0
 13 18  2  0  0  0
 13 33  1  0  0  0
 14 23  1  0  0  0
 14 24  2  0  0  0
 15 20  1  0  0  0
 15 34  1  0  0  0
 16 21  2  0  0  0
 16 35  1  0  0  0
 17 19  2  0  0  0
 17 36  1  0  0  0
 18 19  1  0  0  0
 18 37  1  0  0  0
 20 22  2  0  0  0
 20 38  1  0  0  0
 21 22  1  0  0  0
 21 39  1  0  0  0
 23 25  2  0  0  0
 23 40  1  0  0  0
 24 26  1  0  0  0
 24 41  1  0  0  0
 25 27  1  0  0  0
 26 27  2  0  0  0
 26 42  1  0  0  0
 27 43  1  0  0  0
M  END
> <s_m_entry_id>
28635

> <s_m_entry_name>
dock_pv.796

> <s_m_Source_Path>
/home/csk/Desktop/cluster/DUD-E-result/rock1

> <s_m_Source_File>
dock_pv.maegz

> <i_m_Source_File_Index>
796

> <chembl_id>
CHEMBL1985092

> <chembl_pref_name>
None

> <i_lp_mmshare_version>
53161

> <r_lp_tautomer_probability>
0.842599999160493

> <s_lp_Force_Field>
OPLS_2005

> <r_lp_Energy>
20.329718

> <b_lp_Chiralities_Consistent>
1

> <s_lp_Variant>
CHEMBL3231_lig1515-1

> <s_i_glide_gridfile>
glide-grid_2etr

> <i_i_glide_lignum>
2145

> <i_i_glide_rotatable_bonds>
6

> <r_i_docking_score>
-6.9022412301232

> <r_i_glide_ligand_efficiency>
-0.255638564078637

> <r_i_glide_ligand_efficiency_sa>
-0.766915691393368

> <r_i_glide_ligand_efficiency_ln>
-1.60672796603265

> <r_i_glide_gscore>
-6.9022412301232

> <r_i_glide_lipo>
-2.06637892066645

> <r_i_glide_hbond>
-0.680373049305435

> <r_i_glide_metal>
0

> <r_i_glide_rewards>
-1.23869344165491

> <r_i_glide_evdw>
-37.647876739502

> <r_i_glide_ecoul>
-10.3983888626099

> <r_i_glide_erotb>
0.542837614198583

> <r_i_glide_esite>
-0.0174812663284041

> <r_i_glide_emodel>
-62.0480825804513

> <r_i_glide_energy>
-48.0462656021118

> <r_i_glide_einternal>
9.1099739074707

> <i_i_glide_confnum>
142

> <i_i_glide_posenum>
130

> <r_i_glide_eff_state_penalty>
0

> <s_user_duplicate_titles>
CHEMBL3231_lig1515

> <i_f3d_flags>
0

> <s_m_subgroup_title>
dock_pv

> <s_m_subgroupid>
dock_pv

> <b_m_subgroup_collapsed>
1

$$$$
CHEMBL3231_lig307
                    3D
 Schrodinger Suite 2021-1.
 39 42  0  0  1  0            999 V2000
   53.1646   98.0933   33.0032 C   0  0  0  0  0  0
   52.7954   99.0807   33.8667 N   0  0  0  0  0  0
   52.0874  100.1093   33.3533 C   0  0  0  0  0  0
   51.7083  100.2484   32.0624 N   0  0  0  0  0  0
   52.0567   99.2515   31.2027 C   0  0  0  0  0  0
   52.7943   98.1440   31.6503 C   0  0  0  0  0  0
   51.6129   99.3950   29.7768 C   0  0  0  0  0  0
   51.2432   98.2510   29.0535 C   0  0  0  0  0  0
   51.1145  100.8180   27.8409 C   0  0  0  0  0  0
   51.5393  100.6545   29.1625 C   0  0  0  0  0  0
   50.7642   99.6778   27.1044 C   0  0  0  0  0  0
   50.8440   98.4109   27.7232 C   0  0  0  0  0  0
   50.4498   97.5034   26.7624 N   0  0  0  0  0  0
   50.1180   98.1039   25.6082 N   0  0  0  0  0  0
   50.2891   99.3849   25.7856 C   0  0  0  0  0  0
   50.0212  100.3030   24.8120 N   0  0  0  0  0  0
   51.6948  101.1030   34.2357 N   0  0  0  0  0  0
   53.8950   97.0143   33.5312 N   0  0  0  0  0  0
   54.3055   96.8345   34.9277 C   0  0  0  0  0  0
   54.8563   95.4162   35.0759 C   0  0  0  0  0  0
   55.4260   95.1435   33.7019 C   0  0  0  0  0  0
   54.4501   95.8805   32.7837 C   0  0  0  0  0  0
   53.0747   97.3517   30.9749 H   0  0  0  0  0  0
   51.2423   97.2787   29.5169 H   0  0  0  0  0  0
   51.0598  101.7995   27.3972 H   0  0  0  0  0  0
   51.8201  101.5352   29.7198 H   0  0  0  0  0  0
   50.4118   96.4973   26.8441 H   0  0  0  0  0  0
   50.1458  101.2905   24.9679 H   0  0  0  0  0  0
   49.6330  100.0311   23.9158 H   0  0  0  0  0  0
   52.1068  101.0854   35.1576 H   0  0  0  0  0  0
   51.2986  101.9453   33.8481 H   0  0  0  0  0  0
   55.0481   97.5797   35.2192 H   0  0  0  0  0  0
   53.4304   96.9452   35.5690 H   0  0  0  0  0  0
   55.6170   95.3427   35.8548 H   0  0  0  0  0  0
   54.0632   94.7115   35.3309 H   0  0  0  0  0  0
   55.4888   94.0754   33.4860 H   0  0  0  0  0  0
   56.4346   95.5490   33.5979 H   0  0  0  0  0  0
   53.6633   95.2115   32.4315 H   0  0  0  0  0  0
   55.0125   96.2569   31.9286 H   0  0  0  0  0  0
  1  6  1  0  0  0
  1  2  2  0  0  0
  1 18  1  0  0  0
  2  3  1  0  0  0
  3  4  2  0  0  0
  3 17  1  0  0  0
  4  5  1  0  0  0
  5  7  1  0  0  0
  5  6  2  0  0  0
  6 23  1  0  0  0
  7  8  2  0  0  0
  7 10  1  0  0  0
  8 12  1  0  0  0
  8 24  1  0  0  0
  9 11  1  0  0  0
  9 10  2  0  0  0
  9 25  1  0  0  0
 10 26  1  0  0  0
 11 12  2  0  0  0
 11 15  1  0  0  0
 12 13  1  0  0  0
 13 14  1  0  0  0
 13 27  1  0  0  0
 14 15  2  0  0  0
 15 16  1  0  0  0
 16 28  1  0  0  0
 16 29  1  0  0  0
 17 30  1  0  0  0
 17 31  1  0  0  0
 18 19  1  0  0  0
 18 22  1  0  0  0
 19 20  1  0  0  0
 19 32  1  0  0  0
 19 33  1  0  0  0
 20 21  1  0  0  0
 20 34  1  0  0  0
 20 35  1  0  0  0
 21 22  1  0  0  0
 21 36  1  0  0  0
 21 37  1  0  0  0
 22 38  1  0  0  0
 22 39  1  0  0  0
M  END
> <s_m_entry_id>
28636

> <s_m_entry_name>
dock_pv.797

> <s_m_Source_Path>
/home/csk/Desktop/cluster/DUD-E-result/rock1

> <s_m_Source_File>
dock_pv.maegz

> <i_m_Source_File_Index>
797

> <chembl_id>
CHEMBL1765878

> <chembl_pref_name>
None

> <i_lp_mmshare_version>
53161

> <r_lp_tautomer_probability>
0.999999648617923

> <s_lp_Force_Field>
OPLS_2005

> <r_lp_Energy>
27.476796

> <b_lp_Chiralities_Consistent>
1

> <s_lp_Variant>
CHEMBL3231_lig307-1

> <s_i_glide_gridfile>
glide-grid_2etr

> <i_i_glide_lignum>
455

> <i_i_glide_rotatable_bonds>
2

> <r_i_docking_score>
-6.89956120725628

> <r_i_glide_ligand_efficiency>
-0.313616418511649

> <r_i_glide_ligand_efficiency_sa>
-0.878765538503487

> <r_i_glide_ligand_efficiency_ln>
-1.6865044266633

> <r_i_glide_gscore>
-6.89956120725628

> <r_i_glide_lipo>
-1.9533456352045

> <r_i_glide_hbond>
-0.328662140058281

> <r_i_glide_metal>
0

> <r_i_glide_rewards>
-2.58254971475379

> <r_i_glide_evdw>
-38.8208541870117

> <r_i_glide_ecoul>
-2.5848171710968

> <r_i_glide_erotb>
0.293761567775399

> <r_i_glide_esite>
0

> <r_i_glide_emodel>
-58.2931203499481

> <r_i_glide_energy>
-41.4056713581085

> <r_i_glide_einternal>
1.49548077583313

> <i_i_glide_confnum>
11

> <i_i_glide_posenum>
397

> <r_i_glide_eff_state_penalty>
0

> <s_user_duplicate_titles>
CHEMBL3231_lig307

> <i_f3d_flags>
0

> <s_m_subgroup_title>
dock_pv

> <s_m_subgroupid>
dock_pv

> <b_m_subgroup_collapsed>
1

$$$$
CHEMBL3231_lig1742
                    3D
 Schrodinger Suite 2021-1.
 50 53  0  0  1  0            999 V2000
   54.7023  101.5872   33.4429 O   0  0  0  0  0  0
   53.6436   95.9601   33.5987 N   0  0  0  0  0  0
   53.0030  103.9030   31.2098 N   0  0  0  0  0  0
   56.0432  100.8199   35.7878 N   0  0  0  0  0  0
   50.0430   98.3608   25.2111 N   0  0  0  0  0  0
   55.8657   96.2433   33.8195 C   0  0  0  0  0  0
   55.2076   97.3144   34.5238 C   0  0  0  0  0  0
   54.8564   95.4196   33.2326 C   0  0  0  0  0  0
   53.8506   97.0790   34.3672 C   0  0  0  0  0  0
   57.2116   95.9029   33.6096 C   0  0  0  0  0  0
   55.8987   98.4449   35.2718 C   0  0  0  0  0  0
   55.1635   94.3033   32.4472 C   0  0  0  0  0  0
   55.2754   99.8400   35.0364 C   0  0  2  0  0  0
   57.5166   94.8023   32.8110 C   0  0  0  0  0  0
   56.5139   94.0267   32.2378 C   0  0  0  0  0  0
   54.0346  102.0052   32.3089 C   0  0  0  0  0  0
   52.9181  101.7197   30.1617 C   0  0  0  0  0  0
   55.2065  100.2518   33.5468 C   0  0  0  0  0  0
   53.6459  101.1880   31.2327 C   0  0  0  0  0  0
   53.6883  103.3554   32.2419 C   0  0  0  0  0  0
   52.6320  103.0899   30.1910 C   0  0  0  0  0  0
   52.4439  100.8160   29.0972 C   0  0  0  0  0  0
   50.9941  100.1325   27.1728 C   0  0  0  0  0  0
   51.4862  101.0816   28.1854 C   0  0  0  0  0  0
   50.5043  100.6147   25.9538 C   0  0  0  0  0  0
   51.0025   98.7469   27.3921 C   0  0  0  0  0  0
   50.0432   99.7021   25.0039 C   0  0  0  0  0  0
   50.5171   97.9020   26.3944 C   0  0  0  0  0  0
   52.7225   95.6224   33.3328 H   0  0  0  0  0  0
   57.0263  100.7587   35.5359 H   0  0  0  0  0  0
   55.7479  101.7355   35.4788 H   0  0  0  0  0  0
   53.0039   97.6405   34.7337 H   0  0  0  0  0  0
   58.0056   96.5040   34.0260 H   0  0  0  0  0  0
   56.9492   98.4857   34.9785 H   0  0  0  0  0  0
   55.9045   98.2222   36.3397 H   0  0  0  0  0  0
   54.3938   93.6870   32.0113 H   0  0  0  0  0  0
   54.2625   99.8496   35.4416 H   0  0  0  0  0  0
   58.5510   94.5531   32.6250 H   0  0  0  0  0  0
   56.8009   93.1821   31.6282 H   0  0  0  0  0  0
   54.5684   99.5253   33.0494 H   0  0  0  0  0  0
   56.1874  100.2024   33.0719 H   0  0  0  0  0  0
   53.8831  100.1372   31.2135 H   0  0  0  0  0  0
   53.9721  104.0327   33.0337 H   0  0  0  0  0  0
   52.0937  103.5706   29.3889 H   0  0  0  0  0  0
   52.9287   99.8503   29.0646 H   0  0  0  0  0  0
   51.0005  102.0459   28.1902 H   0  0  0  0  0  0
   50.4830  101.6743   25.7437 H   0  0  0  0  0  0
   51.3649   98.3279   28.3194 H   0  0  0  0  0  0
   49.6609  100.0431   24.0518 H   0  0  0  0  0  0
   50.5057   96.8305   26.5348 H   0  0  0  0  0  0
  1 16  1  0  0  0
  1 18  1  0  0  0
  2  8  1  0  0  0
  2  9  1  0  0  0
  2 29  1  0  0  0
  3 20  1  0  0  0
  3 21  2  0  0  0
  4 13  1  0  0  0
  4 30  1  0  0  0
  4 31  1  0  0  0
  5 27  2  0  0  0
  5 28  1  0  0  0
  6  7  1  0  0  0
  6  8  1  0  0  0
  6 10  2  0  0  0
  7  9  2  0  0  0
  7 11  1  0  0  0
  8 12  2  0  0  0
  9 32  1  0  0  0
 10 14  1  0  0  0
 10 33  1  0  0  0
 11 13  1  0  0  0
 11 34  1  0  0  0
 11 35  1  0  0  0
 12 15  1  0  0  0
 12 36  1  0  0  0
 13 18  1  0  0  0
 13 37  1  0  0  0
 14 15  2  0  0  0
 14 38  1  0  0  0
 15 39  1  0  0  0
 16 19  1  0  0  0
 16 20  2  0  0  0
 17 19  2  0  0  0
 17 21  1  0  0  0
 17 22  1  0  0  0
 18 40  1  0  0  0
 18 41  1  0  0  0
 19 42  1  0  0  0
 20 43  1  0  0  0
 21 44  1  0  0  0
 22 24  2  3  0  0
 22 45  1  0  0  0
 23 24  1  0  0  0
 23 25  2  0  0  0
 23 26  1  0  0  0
 24 46  1  0  0  0
 25 27  1  0  0  0
 25 47  1  0  0  0
 26 28  2  0  0  0
 26 48  1  0  0  0
 27 49  1  0  0  0
 28 50  1  0  0  0
M  END
> <s_m_entry_id>
28637

> <s_m_entry_name>
dock_pv.798

> <s_m_Source_Path>
/home/csk/Desktop/cluster/DUD-E-result/rock1

> <s_m_Source_File>
dock_pv.maegz

> <i_m_Source_File_Index>
798

> <chembl_id>
CHEMBL1974935

> <chembl_pref_name>
None

> <i_lp_mmshare_version>
53161

> <r_lp_tautomer_probability>
1

> <s_lp_Force_Field>
OPLS_2005

> <r_lp_Energy>
23.240838

> <b_lp_Chiralities_Consistent>
1

> <s_lp_Variant>
CHEMBL3231_lig1742-1

> <s_i_glide_gridfile>
glide-grid_2etr

> <i_i_glide_lignum>
2480

> <i_i_glide_rotatable_bonds>
7

> <r_i_docking_score>
-6.89610093764932

> <r_i_glide_ligand_efficiency>
-0.246289319201762

> <r_i_glide_ligand_efficiency_sa>
-0.747879429748138

> <r_i_glide_ligand_efficiency_ln>
-1.59182257473123

> <r_i_glide_gscore>
-6.89610093764932

> <r_i_glide_lipo>
-2.22808360700354

> <r_i_glide_hbond>
-0.548415546355982

> <r_i_glide_metal>
0

> <r_i_glide_rewards>
-2.16763921799756

> <r_i_glide_evdw>
-43.2937049865723

> <r_i_glide_ecoul>
-4.20512390136719

> <r_i_glide_erotb>
0.843491268241451

> <r_i_glide_esite>
0

> <r_i_glide_emodel>
-65.3438392749396

> <r_i_glide_energy>
-47.4988288879395

> <r_i_glide_einternal>
6.17061424255371

> <i_i_glide_confnum>
16

> <i_i_glide_posenum>
369

> <r_i_glide_eff_state_penalty>
0

> <s_user_duplicate_titles>
CHEMBL3231_lig1742

> <i_f3d_flags>
0

> <s_m_subgroup_title>
dock_pv

> <s_m_subgroupid>
dock_pv

> <b_m_subgroup_collapsed>
1

$$$$
CHEMBL3231_lig430
                    3D
 Schrodinger Suite 2021-1.
 43 45  0  0  1  0            999 V2000
   53.6430   97.7162   38.5115 C   0  0  0  0  0  0
   53.3244   97.8159   37.0249 C   0  0  0  0  0  0
   52.4430   97.1026   36.5471 O   0  0  0  0  0  0
   54.0320   98.7362   36.3426 N   0  0  0  0  0  0
   54.0211   98.9857   34.9613 C   0  0  0  0  0  0
   53.7647   97.9968   33.9995 C   0  0  0  0  0  0
   53.8613   98.3008   32.6417 C   0  0  0  0  0  0
   54.2056   99.5899   32.2362 C   0  0  0  0  0  0
   54.4260  100.5946   33.1859 C   0  0  0  0  0  0
   54.8168  102.0040   32.7536 C   0  0  0  0  0  0
   53.7130  102.9726   32.7861 N   0  0  0  0  0  0
   52.6488  103.0458   31.9660 C   0  0  0  0  0  0
   51.7714  103.8878   32.1543 O   0  0  0  0  0  0
   52.6567  102.1554   30.9506 N   0  0  0  0  0  0
   51.8372  102.1257   29.8367 C   0  0  0  0  0  0
   51.7270  101.0431   29.1104 N   0  0  0  0  0  0
   50.9500  101.2125   28.0523 C   0  0  0  0  0  0
   50.4430  102.5051   27.9187 C   0  0  0  0  0  0
   50.9815  103.5033   29.2110 S   0  0  0  0  0  0
   50.6649  100.0839   27.1188 C   0  0  0  0  0  0
   50.1660  100.3608   25.8407 C   0  0  0  0  0  0
   49.8738   99.3034   24.9877 C   0  0  0  0  0  0
   50.0431   98.0048   25.3311 N   0  0  0  0  0  0
   50.5372   97.7436   26.5645 C   0  0  0  0  0  0
   50.8611   98.7432   27.4815 C   0  0  0  0  0  0
   54.3605  100.2764   34.5462 C   0  0  0  0  0  0
   54.6154   97.2427   38.6587 H   0  0  0  0  0  0
   52.8880   97.1150   39.0236 H   0  0  0  0  0  0
   53.6569   98.7041   38.9756 H   0  0  0  0  0  0
   54.6231   99.3478   36.8857 H   0  0  0  0  0  0
   53.5303   96.9826   34.2882 H   0  0  0  0  0  0
   53.6952   97.5281   31.9045 H   0  0  0  0  0  0
   54.3093   99.7966   31.1799 H   0  0  0  0  0  0
   55.6107  102.3679   33.4084 H   0  0  0  0  0  0
   55.2430  101.9838   31.7517 H   0  0  0  0  0  0
   53.7450  103.6537   33.5295 H   0  0  0  0  0  0
   53.3791  101.4527   30.9794 H   0  0  0  0  0  0
   49.7995  102.9077   27.1527 H   0  0  0  0  0  0
   49.9981  101.3721   25.5044 H   0  0  0  0  0  0
   49.4736   99.5018   24.0111 H   0  0  0  0  0  0
   50.6780   96.7027   26.8108 H   0  0  0  0  0  0
   51.2459   98.4772   28.4557 H   0  0  0  0  0  0
   54.5741  101.0407   35.2785 H   0  0  0  0  0  0
  1  2  1  0  0  0
  1 27  1  0  0  0
  1 28  1  0  0  0
  1 29  1  0  0  0
  2  3  2  0  0  0
  2  4  1  0  0  0
  4  5  1  0  0  0
  4 30  1  0  0  0
  5  6  2  0  0  0
  5 26  1  0  0  0
  6  7  1  0  0  0
  6 31  1  0  0  0
  7  8  2  0  0  0
  7 32  1  0  0  0
  8  9  1  0  0  0
  8 33  1  0  0  0
  9 10  1  0  0  0
  9 26  2  0  0  0
 10 11  1  0  0  0
 10 34  1  0  0  0
 10 35  1  0  0  0
 11 12  1  0  0  0
 11 36  1  0  0  0
 12 13  2  0  0  0
 12 14  1  0  0  0
 14 15  1  0  0  0
 14 37  1  0  0  0
 15 16  2  0  0  0
 15 19  1  0  0  0
 16 17  1  0  0  0
 17 18  2  0  0  0
 17 20  1  0  0  0
 18 19  1  0  0  0
 18 38  1  0  0  0
 20 21  2  0  0  0
 20 25  1  0  0  0
 21 22  1  0  0  0
 21 39  1  0  0  0
 22 23  2  0  0  0
 22 40  1  0  0  0
 23 24  1  0  0  0
 24 25  2  0  0  0
 24 41  1  0  0  0
 25 42  1  0  0  0
 26 43  1  0  0  0
M  END
> <s_m_entry_id>
28639

> <s_m_entry_name>
dock_pv.800

> <s_m_Source_Path>
/home/csk/Desktop/cluster/DUD-E-result/rock1

> <s_m_Source_File>
dock_pv.maegz

> <i_m_Source_File_Index>
800

> <chembl_id>
CHEMBL3218016

> <chembl_pref_name>
None

> <i_lp_mmshare_version>
53161

> <r_lp_tautomer_probability>
0.999000488399163

> <s_lp_Force_Field>
OPLS_2005

> <r_lp_Energy>
12.317203

> <b_lp_Chiralities_Consistent>
1

> <s_lp_Variant>
CHEMBL3231_lig430-1

> <s_i_glide_gridfile>
glide-grid_2etr

> <i_i_glide_lignum>
614

> <i_i_glide_rotatable_bonds>
8

> <r_i_docking_score>
-6.8949461578092

> <r_i_glide_ligand_efficiency>
-0.265190236838815

> <r_i_glide_ligand_efficiency_sa>
-0.785625033161796

> <r_i_glide_ligand_efficiency_ln>
-1.61925548099784

> <r_i_glide_gscore>
-6.8949461578092

> <r_i_glide_lipo>
-2.1371082906943

> <r_i_glide_hbond>
-0.654281378996725

> <r_i_glide_metal>
0

> <r_i_glide_rewards>
-1.5432891790806

> <r_i_glide_evdw>
-38.6448440551758

> <r_i_glide_ecoul>
-10.2767333984375

> <r_i_glide_erotb>
0.99857715684962

> <r_i_glide_esite>
-0.0850922533627822

> <r_i_glide_emodel>
-65.710298122462

> <r_i_glide_energy>
-48.9215774536133

> <r_i_glide_einternal>
7.09754800796509

> <i_i_glide_confnum>
10

> <i_i_glide_posenum>
254

> <r_i_glide_eff_state_penalty>
0

> <s_user_duplicate_titles>
CHEMBL3231_lig430

> <i_f3d_flags>
0

> <s_m_subgroup_title>
dock_pv

> <s_m_subgroupid>
dock_pv

> <b_m_subgroup_collapsed>
1

$$$$
CHEMBL3231_lig464
                    3D
 Schrodinger Suite 2021-1.
 61 64  0  0  1  0            999 V2000
   50.4349   97.7896   26.3967 C   0  0  0  0  0  0
   50.0429   98.3036   25.2103 N   0  0  0  0  0  0
   50.0411   99.6520   25.0710 C   0  0  0  0  0  0
   50.3991  100.5200   26.1029 C   0  0  0  0  0  0
   50.7811   99.9910   27.3467 C   0  0  0  0  0  0
   50.8031   98.5889   27.4750 C   0  0  0  0  0  0
   51.1430  100.8774   28.4954 C   0  0  0  0  0  0
   51.8177  100.2883   29.5189 N   0  0  0  0  0  0
   52.1441  101.0252   30.6082 C   0  0  0  0  0  0
   51.7283  102.3687   30.7150 C   0  0  0  0  0  0
   51.0909  102.9813   29.6797 N   0  0  0  0  0  0
   50.8028  102.2355   28.5810 C   0  0  0  0  0  0
   51.9119  103.1656   31.8498 N   0  0  0  0  0  0
   51.5153  102.7910   33.2070 C   0  0  0  0  0  0
   52.0109  103.8963   34.1312 C   0  0  0  0  0  0
   53.3126  104.2892   33.4646 C   0  0  0  0  0  0
   52.9955  104.1390   31.9753 C   0  0  0  0  0  0
   52.9504  100.3666   31.5177 N   0  0  0  0  0  0
   52.5350   99.1597   32.2486 C   0  0  0  0  0  0
   53.6825   98.1542   32.4936 C   0  0  0  0  0  0
   54.8773   98.8067   33.0431 N   0  0  0  0  0  0
   55.3093   99.8421   32.1037 C   0  0  0  0  0  0
   54.2219  100.9212   31.9957 C   0  0  0  0  0  0
   55.9791   97.8586   33.2170 C   0  0  0  0  0  0
   55.8301   96.9954   34.4811 C   0  0  0  0  0  0
   55.3244   95.5762   34.1852 C   0  0  0  0  0  0
   55.3883   94.7030   35.3449 N   0  0  0  0  0  0
   54.5308   94.7048   36.3738 C   0  0  0  0  0  0
   53.5785   95.4778   36.4729 O   0  0  0  0  0  0
   54.7878   93.6606   37.4524 C   0  0  0  0  0  0
   50.4434   96.7119   26.4773 H   0  0  0  0  0  0
   49.7340  100.0350   24.1072 H   0  0  0  0  0  0
   50.3729  101.5845   25.9248 H   0  0  0  0  0  0
   51.0907   98.1107   28.3999 H   0  0  0  0  0  0
   50.2630  102.7440   27.7956 H   0  0  0  0  0  0
   50.4314  102.6797   33.2398 H   0  0  0  0  0  0
   51.9294  101.8246   33.4948 H   0  0  0  0  0  0
   51.3004  104.7225   34.1754 H   0  0  0  0  0  0
   52.1570  103.5428   35.1519 H   0  0  0  0  0  0
   54.1331  103.6327   33.7569 H   0  0  0  0  0  0
   53.6096  105.3089   33.7130 H   0  0  0  0  0  0
   53.9049  103.7900   31.4865 H   0  0  0  0  0  0
   52.6785  105.1030   31.6110 H   0  0  0  0  0  0
   52.1302   99.4704   33.2127 H   0  0  0  0  0  0
   51.7186   98.6629   31.7241 H   0  0  0  0  0  0
   53.9182   97.6278   31.5660 H   0  0  0  0  0  0
   53.3215   97.4062   33.1983 H   0  0  0  0  0  0
   56.2344  100.3029   32.4515 H   0  0  0  0  0  0
   55.5284   99.4167   31.1207 H   0  0  0  0  0  0
   54.0757  101.3965   32.9648 H   0  0  0  0  0  0
   54.5657  101.7004   31.3160 H   0  0  0  0  0  0
   56.9289   98.3918   33.2887 H   0  0  0  0  0  0
   56.0438   97.2284   32.3274 H   0  0  0  0  0  0
   55.1152   97.4540   35.1669 H   0  0  0  0  0  0
   56.7842   96.9573   35.0096 H   0  0  0  0  0  0
   55.9538   95.1307   33.4125 H   0  0  0  0  0  0
   54.3251   95.5790   33.7480 H   0  0  0  0  0  0
   56.1226   93.9995   35.3263 H   0  0  0  0  0  0
   55.8355   93.3556   37.4692 H   0  0  0  0  0  0
   54.1773   92.7775   37.2612 H   0  0  0  0  0  0
   54.5316   94.0572   38.4345 H   0  0  0  0  0  0
  1  2  2  0  0  0
  1  6  1  0  0  0
  1 31  1  0  0  0
  2  3  1  0  0  0
  3  4  2  0  0  0
  3 32  1  0  0  0
  4  5  1  0  0  0
  4 33  1  0  0  0
  5  6  2  0  0  0
  5  7  1  0  0  0
  6 34  1  0  0  0
  7  8  2  0  0  0
  7 12  1  0  0  0
  8  9  1  0  0  0
  9 10  2  0  0  0
  9 18  1  0  0  0
 10 11  1  0  0  0
 10 13  1  0  0  0
 11 12  2  0  0  0
 12 35  1  0  0  0
 13 14  1  0  0  0
 13 17  1  0  0  0
 14 15  1  0  0  0
 14 36  1  0  0  0
 14 37  1  0  0  0
 15 16  1  0  0  0
 15 38  1  0  0  0
 15 39  1  0  0  0
 16 17  1  0  0  0
 16 40  1  0  0  0
 16 41  1  0  0  0
 17 42  1  0  0  0
 17 43  1  0  0  0
 18 19  1  0  0  0
 18 23  1  0  0  0
 19 20  1  0  0  0
 19 44  1  0  0  0
 19 45  1  0  0  0
 20 21  1  0  0  0
 20 46  1  0  0  0
 20 47  1  0  0  0
 21 22  1  0  0  0
 21 24  1  0  0  0
 22 23  1  0  0  0
 22 48  1  0  0  0
 22 49  1  0  0  0
 23 50  1  0  0  0
 23 51  1  0  0  0
 24 25  1  0  0  0
 24 52  1  0  0  0
 24 53  1  0  0  0
 25 26  1  0  0  0
 25 54  1  0  0  0
 25 55  1  0  0  0
 26 27  1  0  0  0
 26 56  1  0  0  0
 26 57  1  0  0  0
 27 28  1  0  0  0
 27 58  1  0  0  0
 28 29  2  0  0  0
 28 30  1  0  0  0
 30 59  1  0  0  0
 30 60  1  0  0  0
 30 61  1  0  0  0
M  END
> <s_m_entry_id>
28640

> <s_m_entry_name>
dock_pv.801

> <s_m_Source_Path>
/home/csk/Desktop/cluster/DUD-E-result/rock1

> <s_m_Source_File>
dock_pv.maegz

> <i_m_Source_File_Index>
801

> <chembl_id>
CHEMBL3238165

> <chembl_pref_name>
None

> <i_lp_mmshare_version>
53161

> <r_lp_tautomer_probability>
1

> <s_lp_Force_Field>
OPLS_2005

> <r_lp_Energy>
75.063224

> <b_lp_Chiralities_Consistent>
1

> <s_lp_Variant>
CHEMBL3231_lig464-1

> <s_i_glide_gridfile>
glide-grid_2etr

> <i_i_glide_lignum>
653

> <i_i_glide_rotatable_bonds>
8

> <r_i_docking_score>
-6.89399123735667

> <r_i_glide_ligand_efficiency>
-0.229799707911889

> <r_i_glide_ligand_efficiency_sa>
-0.714041121472992

> <r_i_glide_ligand_efficiency_ln>
-1.56638992517829

> <r_i_glide_gscore>
-6.89399123735667

> <r_i_glide_lipo>
-2.04588679465459

> <r_i_glide_hbond>
-0.381618655248208

> <r_i_glide_metal>
0

> <r_i_glide_rewards>
-1.95852107712976

> <r_i_glide_evdw>
-43.6749687194824

> <r_i_glide_ecoul>
-6.65819978713989

> <r_i_glide_erotb>
0.821888256867053

> <r_i_glide_esite>
-0.147374563146058

> <r_i_glide_emodel>
-67.488054938491

> <r_i_glide_energy>
-50.3331685066223

> <r_i_glide_einternal>
10.7804794311523

> <i_i_glide_confnum>
28

> <i_i_glide_posenum>
73

> <r_i_glide_eff_state_penalty>
0

> <s_user_duplicate_titles>
CHEMBL3231_lig464

> <i_f3d_flags>
0

> <s_m_subgroup_title>
dock_pv

> <s_m_subgroupid>
dock_pv

> <b_m_subgroup_collapsed>
1

$$$$
CHEMBL3231_lig1669
                    3D
 Schrodinger Suite 2021-1.
 25 27  0  0  1  0            999 V2000
   50.8082   99.2032   27.2354 N   0  0  0  0  0  0
   50.0433   98.3852   25.2275 N   0  0  0  0  0  0
   51.1637  100.1833   28.1436 C   0  0  0  0  0  0
   50.2770   99.5061   25.9609 C   0  0  0  0  0  0
   51.7849   99.8102   29.4568 C   0  0  0  0  0  0
   50.8791   97.8344   27.2521 C   0  0  0  0  0  0
   50.9673  101.5154   27.7698 C   0  0  0  0  0  0
   50.0804  100.8477   25.6114 C   0  0  0  0  0  0
   50.4432   97.4095   26.0094 C   0  0  0  0  0  0
   50.4430  101.8395   26.5225 C   0  0  0  0  0  0
   51.3315   98.7315   30.2338 C   0  0  0  0  0  0
   52.8633  100.5658   29.9368 C   0  0  0  0  0  0
   51.9787   98.3840   31.4184 C   0  0  0  0  0  0
   53.5101  100.2258   31.1211 C   0  0  0  0  0  0
   53.0682   99.1302   31.8540 C   0  0  0  0  0  0
   51.2732   97.2639   28.0774 H   0  0  0  0  0  0
   51.2340  102.3117   28.4485 H   0  0  0  0  0  0
   49.6678  101.1030   24.6457 H   0  0  0  0  0  0
   50.4429   96.3801   25.6786 H   0  0  0  0  0  0
   50.3042  102.8782   26.2592 H   0  0  0  0  0  0
   50.4770   98.1478   29.9258 H   0  0  0  0  0  0
   53.2362  101.4055   29.3706 H   0  0  0  0  0  0
   51.6426   97.5381   32.0015 H   0  0  0  0  0  0
   54.3610  100.8012   31.4585 H   0  0  0  0  0  0
   53.5770   98.8568   32.7665 H   0  0  0  0  0  0
  1  3  1  0  0  0
  1  4  1  0  0  0
  1  6  1  0  0  0
  2  4  2  0  0  0
  2  9  1  0  0  0
  3  5  1  0  0  0
  3  7  2  0  0  0
  4  8  1  0  0  0
  5 11  2  0  0  0
  5 12  1  0  0  0
  6  9  2  0  0  0
  6 16  1  0  0  0
  7 10  1  0  0  0
  7 17  1  0  0  0
  8 10  2  0  0  0
  8 18  1  0  0  0
  9 19  1  0  0  0
 10 20  1  0  0  0
 11 13  1  0  0  0
 11 21  1  0  0  0
 12 14  2  0  0  0
 12 22  1  0  0  0
 13 15  2  0  0  0
 13 23  1  0  0  0
 14 15  1  0  0  0
 14 24  1  0  0  0
 15 25  1  0  0  0
M  END
> <s_m_entry_id>
28642

> <s_m_entry_name>
dock_pv.803

> <s_m_Source_Path>
/home/csk/Desktop/cluster/DUD-E-result/rock1

> <s_m_Source_File>
dock_pv.maegz

> <i_m_Source_File_Index>
803

> <chembl_id>
CHEMBL1992723

> <chembl_pref_name>
None

> <i_lp_mmshare_version>
53161

> <r_lp_tautomer_probability>
1

> <s_lp_Force_Field>
OPLS_2005

> <r_lp_Energy>
14.378061

> <b_lp_Chiralities_Consistent>
1

> <s_lp_Variant>
CHEMBL3231_lig1669-1

> <s_i_glide_gridfile>
glide-grid_2etr

> <i_i_glide_lignum>
2381

> <i_i_glide_rotatable_bonds>
1

> <r_i_docking_score>
-6.89276073984454

> <r_i_glide_ligand_efficiency>
-0.459517382656303

> <r_i_glide_ligand_efficiency_sa>
-1.13326731644873

> <r_i_glide_ligand_efficiency_ln>
-1.8588639220137

> <r_i_glide_gscore>
-6.89276073984454

> <r_i_glide_lipo>
-2.11457573926975

> <r_i_glide_hbond>
-0.188094408223189

> <r_i_glide_metal>
0

> <r_i_glide_rewards>
-3.15683655066973

> <r_i_glide_evdw>
-28.4646053314209

> <r_i_glide_ecoul>
-2.92484021186829

> <r_i_glide_erotb>
0.428702256669407

> <r_i_glide_esite>
0

> <r_i_glide_emodel>
-43.8580235649461

> <r_i_glide_energy>
-31.3894455432892

> <r_i_glide_einternal>
0.417434066534042

> <i_i_glide_confnum>
1

> <i_i_glide_posenum>
87

> <r_i_glide_eff_state_penalty>
0

> <s_user_duplicate_titles>
CHEMBL3231_lig1669

> <i_f3d_flags>
0

> <s_m_subgroup_title>
dock_pv

> <s_m_subgroupid>
dock_pv

> <b_m_subgroup_collapsed>
1

$$$$
CHEMBL3231_lig2048
                    3D
 Schrodinger Suite 2021-1.
 39 41  0  0  1  0            999 V2000
   50.0979   98.3333   25.4892 F   0  0  0  0  0  0
   52.0434  100.8678   31.0282 N   0  0  0  0  0  0
   52.6298  104.7030   33.6090 N   0  0  0  0  0  0
   52.0704  101.4443   29.7935 C   0  0  0  0  0  0
   51.5451  100.6197   28.6575 C   0  0  0  0  0  0
   53.0104  102.8727   31.9860 C   0  0  0  0  0  0
   52.5922  102.7344   29.6099 C   0  0  0  0  0  0
   52.5085  101.5709   32.0920 C   0  0  0  0  0  0
   53.0727  103.4455   30.7115 C   0  0  0  0  0  0
   50.9381  101.2288   27.5472 C   0  0  0  0  0  0
   51.6429   99.2172   28.6723 C   0  0  0  0  0  0
   53.5329  103.6237   33.2045 C   0  0  0  0  0  0
   50.5657   99.0775   26.5195 C   0  0  0  0  0  0
   51.5162  104.5126   34.4457 C   0  0  0  0  0  0
   50.4527  100.4659   26.4844 C   0  0  0  0  0  0
   51.1578   98.4510   27.6123 C   0  0  0  0  0  0
   50.7844  105.6449   34.8099 C   0  0  0  0  0  0
   51.1131  103.2519   34.9069 C   0  0  0  0  0  0
   49.2235  104.2591   36.0191 C   0  0  0  0  0  0
   49.6377  105.5225   35.5927 C   0  0  0  0  0  0
   49.9698  103.1262   35.6931 C   0  0  0  0  0  0
   47.9660  104.1205   36.8548 C   0  0  0  0  0  0
   52.8436  105.6500   33.2844 H   0  0  0  0  0  0
   52.6448  103.1801   28.6317 H   0  0  0  0  0  0
   52.4805  101.0585   33.0425 H   0  0  0  0  0  0
   53.5049  104.4271   30.5791 H   0  0  0  0  0  0
   50.8308  102.3029   27.5021 H   0  0  0  0  0  0
   52.1067   98.7132   29.5076 H   0  0  0  0  0  0
   54.4982  104.0666   32.9513 H   0  0  0  0  0  0
   53.7286  102.9371   34.0303 H   0  0  0  0  0  0
   49.9873  100.9467   25.6348 H   0  0  0  0  0  0
   51.2430   97.3752   27.6358 H   0  0  0  0  0  0
   51.0975  106.6244   34.4752 H   0  0  0  0  0  0
   51.6724  102.3622   34.6638 H   0  0  0  0  0  0
   49.0700  106.4045   35.8526 H   0  0  0  0  0  0
   49.6634  102.1482   36.0374 H   0  0  0  0  0  0
   48.0464  103.2858   37.5543 H   0  0  0  0  0  0
   47.0942  103.9548   36.2177 H   0  0  0  0  0  0
   47.7989  105.0157   37.4556 H   0  0  0  0  0  0
  1 13  1  0  0  0
  2  4  1  0  0  0
  2  8  2  0  0  0
  3 12  1  0  0  0
  3 14  1  0  0  0
  3 23  1  0  0  0
  4  5  1  0  0  0
  4  7  2  0  0  0
  5 10  2  0  0  0
  5 11  1  0  0  0
  6  8  1  0  0  0
  6  9  2  0  0  0
  6 12  1  0  0  0
  7  9  1  0  0  0
  7 24  1  0  0  0
  8 25  1  0  0  0
  9 26  1  0  0  0
 10 15  1  0  0  0
 10 27  1  0  0  0
 11 16  2  0  0  0
 11 28  1  0  0  0
 12 29  1  0  0  0
 12 30  1  0  0  0
 13 15  2  0  0  0
 13 16  1  0  0  0
 14 17  2  0  0  0
 14 18  1  0  0  0
 15 31  1  0  0  0
 16 32  1  0  0  0
 17 20  1  0  0  0
 17 33  1  0  0  0
 18 21  2  0  0  0
 18 34  1  0  0  0
 19 20  2  0  0  0
 19 21  1  0  0  0
 19 22  1  0  0  0
 20 35  1  0  0  0
 21 36  1  0  0  0
 22 37  1  0  0  0
 22 38  1  0  0  0
 22 39  1  0  0  0
M  END
> <s_m_entry_id>
28643

> <s_m_entry_name>
dock_pv.804

> <s_m_Source_Path>
/home/csk/Desktop/cluster/DUD-E-result/rock1

> <s_m_Source_File>
dock_pv.maegz

> <i_m_Source_File_Index>
804

> <chembl_id>
CHEMBL1986899

> <chembl_pref_name>
None

> <i_lp_mmshare_version>
53161

> <r_lp_tautomer_probability>
1

> <s_lp_Force_Field>
OPLS_2005

> <r_lp_Energy>
18.833422

> <b_lp_Chiralities_Consistent>
1

> <s_lp_Variant>
CHEMBL3231_lig2048-1

> <s_i_glide_gridfile>
glide-grid_2etr

> <i_i_glide_lignum>
2972

> <i_i_glide_rotatable_bonds>
4

> <r_i_docking_score>
-6.89196019190013

> <r_i_glide_ligand_efficiency>
-0.313270917813642

> <r_i_glide_ligand_efficiency_sa>
-0.8777974319599

> <r_i_glide_ligand_efficiency_ln>
-1.68464646125648

> <r_i_glide_gscore>
-6.89196019190013

> <r_i_glide_lipo>
-2.5589723996679

> <r_i_glide_hbond>
-0.16

> <r_i_glide_metal>
0

> <r_i_glide_rewards>
-2.45746135056234

> <r_i_glide_evdw>
-34.8041839599609

> <r_i_glide_ecoul>
-5.07269239425659

> <r_i_glide_erotb>
0.854376128210999

> <r_i_glide_esite>
-0.068789512744351

> <r_i_glide_emodel>
-57.3650575994588

> <r_i_glide_energy>
-39.8768763542175

> <r_i_glide_einternal>
1.59106194972992

> <i_i_glide_confnum>
84

> <i_i_glide_posenum>
67

> <r_i_glide_eff_state_penalty>
0

> <s_user_duplicate_titles>
CHEMBL3231_lig2048

> <i_f3d_flags>
0

> <s_m_subgroup_title>
dock_pv

> <s_m_subgroupid>
dock_pv

> <b_m_subgroup_collapsed>
1

$$$$
CHEMBL3231_lig1539
                    3D
 Schrodinger Suite 2021-1.
 36 38  0  0  1  0            999 V2000
   52.0313  104.7030   33.2793 O   0  0  0  0  0  0
   51.8199   97.5030   31.2110 N   0  0  0  0  0  0
   53.3672   98.4901   32.7717 N   0  0  0  0  0  0
   54.1317  100.7093   32.1423 N   0  0  0  0  0  0
   53.3645  101.8139   30.1704 N   0  0  0  0  0  0
   52.5710   99.5679   30.7012 C   0  0  0  0  0  0
   51.6714   99.1313   29.6493 C   0  0  0  0  0  0
   52.6400   98.5080   31.6523 C   0  0  0  0  0  0
   53.3668  100.6930   31.0152 C   0  0  0  0  0  0
   51.2460   99.8207   28.4028 C   0  0  0  0  0  0
   51.2430   97.8697   30.0253 C   0  0  0  0  0  0
   54.0994   99.6182   32.9430 C   0  0  0  0  0  0
   51.2430   99.0965   27.2058 C   0  0  0  0  0  0
   50.8430  101.1576   28.4125 C   0  0  0  0  0  0
   54.0478  103.0632   30.5018 C   0  0  0  0  0  0
   50.8407   99.7055   26.0223 C   0  0  0  0  0  0
   50.4430  101.7683   27.2283 C   0  0  0  0  0  0
   50.4419  101.0378   26.0426 C   0  0  0  0  0  0
   53.1551  104.0737   31.2410 C   0  0  0  0  0  0
   52.8680  103.7225   32.7079 C   0  0  0  0  0  0
   52.4430  105.5766   33.1520 H   0  0  0  0  0  0
   51.6541   96.6044   31.6566 H   0  0  0  0  0  0
   52.7320  101.8053   29.3843 H   0  0  0  0  0  0
   50.5687   97.1850   29.5300 H   0  0  0  0  0  0
   54.7295   99.6525   33.8205 H   0  0  0  0  0  0
   51.5580   98.0629   27.1912 H   0  0  0  0  0  0
   50.8107  101.7136   29.3376 H   0  0  0  0  0  0
   54.4430  103.5036   29.5859 H   0  0  0  0  0  0
   54.9294  102.8561   31.1094 H   0  0  0  0  0  0
   50.8347   99.1499   25.0965 H   0  0  0  0  0  0
   50.1180  102.7986   27.2285 H   0  0  0  0  0  0
   50.1114  101.5030   25.1305 H   0  0  0  0  0  0
   52.2133  104.1757   30.7029 H   0  0  0  0  0  0
   53.6430  105.0486   31.2110 H   0  0  0  0  0  0
   53.8002  103.6359   33.2681 H   0  0  0  0  0  0
   52.3896  102.7465   32.7890 H   0  0  0  0  0  0
  1 20  1  0  0  0
  1 21  1  0  0  0
  2  8  1  0  0  0
  2 11  1  0  0  0
  2 22  1  0  0  0
  3  8  1  0  0  0
  3 12  2  0  0  0
  4  9  2  0  0  0
  4 12  1  0  0  0
  5  9  1  0  0  0
  5 15  1  0  0  0
  5 23  1  0  0  0
  6  7  1  0  0  0
  6  8  2  0  0  0
  6  9  1  0  0  0
  7 10  1  0  0  0
  7 11  2  0  0  0
 10 13  2  0  0  0
 10 14  1  0  0  0
 11 24  1  0  0  0
 12 25  1  0  0  0
 13 16  1  0  0  0
 13 26  1  0  0  0
 14 17  2  0  0  0
 14 27  1  0  0  0
 15 19  1  0  0  0
 15 28  1  0  0  0
 15 29  1  0  0  0
 16 18  2  0  0  0
 16 30  1  0  0  0
 17 18  1  0  0  0
 17 31  1  0  0  0
 18 32  1  0  0  0
 19 20  1  0  0  0
 19 33  1  0  0  0
 19 34  1  0  0  0
 20 35  1  0  0  0
 20 36  1  0  0  0
M  END
> <s_m_entry_id>
28645

> <s_m_entry_name>
dock_pv.806

> <s_m_Source_Path>
/home/csk/Desktop/cluster/DUD-E-result/rock1

> <s_m_Source_File>
dock_pv.maegz

> <i_m_Source_File_Index>
806

> <chembl_id>
CHEMBL2000071

> <chembl_pref_name>
None

> <i_lp_mmshare_version>
53161

> <r_lp_tautomer_probability>
1

> <s_lp_Force_Field>
OPLS_2005

> <r_lp_Energy>
7.716651

> <b_lp_Chiralities_Consistent>
1

> <s_lp_Variant>
CHEMBL3231_lig1539-1

> <s_i_glide_gridfile>
glide-grid_2etr

> <i_i_glide_lignum>
2183

> <i_i_glide_rotatable_bonds>
6

> <r_i_docking_score>
-6.88815175074887

> <r_i_glide_ligand_efficiency>
-0.344407587537443

> <r_i_glide_ligand_efficiency_sa>
-0.934866021967053

> <r_i_glide_ligand_efficiency_ln>
-1.72387719676279

> <r_i_glide_gscore>
-6.88815175074887

> <r_i_glide_lipo>
-1.99855054496099

> <r_i_glide_hbond>
-0.456

> <r_i_glide_metal>
0

> <r_i_glide_rewards>
-2.93764100817709

> <r_i_glide_evdw>
-30.5141448974609

> <r_i_glide_ecoul>
-7.45116281509399

> <r_i_glide_erotb>
1.23958198289923

> <r_i_glide_esite>
-0.092160513372877

> <r_i_glide_emodel>
-52.893417035326

> <r_i_glide_energy>
-37.9653077125549

> <r_i_glide_einternal>
2.25886607170105

> <i_i_glide_confnum>
75

> <i_i_glide_posenum>
30

> <r_i_glide_eff_state_penalty>
0

> <s_user_duplicate_titles>
CHEMBL3231_lig1539

> <i_f3d_flags>
0

> <s_m_subgroup_title>
dock_pv

> <s_m_subgroupid>
dock_pv

> <b_m_subgroup_collapsed>
1

$$$$
CHEMBL3231_lig881
                    3D
 Schrodinger Suite 2021-1.
 42 45  0  0  1  0            999 V2000
   52.4850   99.8756   31.4801 N   0  0  0  0  0  0
   52.7743  100.6207   32.4984 C   0  0  0  0  0  0
   52.5024  101.9803   32.4588 N   0  0  0  0  0  0
   51.9043  102.7007   31.4556 C   0  0  0  0  0  0
   51.9497  100.4690   30.3773 C   0  0  0  0  0  0
   51.6434  101.8283   30.3181 C   0  0  0  0  0  0
   50.9125  102.2686   28.8108 S   0  0  0  0  0  0
   51.0575  100.6252   28.2223 C   0  0  0  0  0  0
   51.6438   99.8080   29.1897 C   0  0  0  0  0  0
   50.6041  100.2462   26.8839 C   0  0  0  0  0  0
   50.2091  101.0992   25.8693 C   0  0  0  0  0  0
   49.8797  100.3015   24.8112 N   0  0  0  0  0  0
   50.0425   99.0067   25.0746 N   0  0  0  0  0  0
   50.4549   98.9575   26.3225 C   0  0  0  0  0  0
   51.6442  103.8955   31.5827 O   0  0  0  0  0  0
   50.7009   97.6110   26.9543 C   0  0  0  0  0  0
   53.3878  100.0453   33.8015 C   0  0  2  0  0  0
   53.8897   98.6517   33.6989 N   0  0  0  0  0  0
   55.0150   98.4599   32.7808 C   0  0  0  0  0  0
   55.4929   97.0319   33.0320 C   0  0  0  0  0  0
   55.1663   96.7933   34.5048 C   0  0  0  0  0  0
   54.4206   98.0627   34.9276 C   0  0  0  0  0  0
   52.3321  100.1105   34.9396 C   0  0  0  0  0  0
   52.7517  102.5311   33.2649 H   0  0  0  0  0  0
   51.8393   98.7557   29.0636 H   0  0  0  0  0  0
   50.1302  102.1738   25.8251 H   0  0  0  0  0  0
   49.5398  100.6227   23.9117 H   0  0  0  0  0  0
   51.7528   97.5030   27.2088 H   0  0  0  0  0  0
   50.1310   97.5030   27.8768 H   0  0  0  0  0  0
   50.4356   96.7715   26.3095 H   0  0  0  0  0  0
   54.2638  100.6183   34.1111 H   0  0  0  0  0  0
   55.7990   99.2068   32.9234 H   0  0  0  0  0  0
   54.6906   98.5952   31.7500 H   0  0  0  0  0  0
   56.5564   96.9255   32.8161 H   0  0  0  0  0  0
   54.9673   96.3330   32.3807 H   0  0  0  0  0  0
   54.5450   95.9059   34.6334 H   0  0  0  0  0  0
   56.0708   96.6547   35.0981 H   0  0  0  0  0  0
   53.5984   97.8360   35.6067 H   0  0  0  0  0  0
   55.0577   98.7604   35.4746 H   0  0  0  0  0  0
   51.7484  101.0317   34.9306 H   0  0  0  0  0  0
   51.6294   99.2779   34.8870 H   0  0  0  0  0  0
   52.8103  100.0691   35.9185 H   0  0  0  0  0  0
  1  5  1  0  0  0
  1  2  2  0  0  0
  2  3  1  0  0  0
  2 17  1  0  0  0
  3  4  1  0  0  0
  3 24  1  0  0  0
  4  6  1  0  0  0
  4 15  2  0  0  0
  5  6  2  0  0  0
  5  9  1  0  0  0
  6  7  1  0  0  0
  7  8  1  0  0  0
  8  9  2  0  0  0
  8 10  1  0  0  0
  9 25  1  0  0  0
 10 11  2  0  0  0
 10 14  1  0  0  0
 11 12  1  0  0  0
 11 26  1  0  0  0
 12 13  1  0  0  0
 12 27  1  0  0  0
 13 14  2  0  0  0
 14 16  1  0  0  0
 16 28  1  0  0  0
 16 29  1  0  0  0
 16 30  1  0  0  0
 17 18  1  0  0  0
 17 23  1  0  0  0
 17 31  1  0  0  0
 18 19  1  0  0  0
 18 22  1  0  0  0
 19 20  1  0  0  0
 19 32  1  0  0  0
 19 33  1  0  0  0
 20 21  1  0  0  0
 20 34  1  0  0  0
 20 35  1  0  0  0
 21 22  1  0  0  0
 21 36  1  0  0  0
 21 37  1  0  0  0
 22 38  1  0  0  0
 22 39  1  0  0  0
 23 40  1  0  0  0
 23 41  1  0  0  0
 23 42  1  0  0  0
M  END
> <s_m_entry_id>
28646

> <s_m_entry_name>
dock_pv.807

> <s_m_Source_Path>
/home/csk/Desktop/cluster/DUD-E-result/rock1

> <s_m_Source_File>
dock_pv.maegz

> <i_m_Source_File_Index>
807

> <chembl_id>
CHEMBL4086790

> <chembl_pref_name>
None

> <i_lp_mmshare_version>
53161

> <r_lp_tautomer_probability>
0.5

> <s_lp_Force_Field>
OPLS_2005

> <r_lp_Energy>
40.458169

> <b_lp_Chiralities_Consistent>
1

> <s_lp_Variant>
CHEMBL3231_lig881-1

> <s_i_glide_gridfile>
glide-grid_2etr

> <i_i_glide_lignum>
1250

> <i_i_glide_rotatable_bonds>
3

> <r_i_docking_score>
-6.88577555362372

> <r_i_glide_ligand_efficiency>
-0.299381545809727

> <r_i_glide_ligand_efficiency_sa>
-0.851401291615347

> <r_i_glide_ligand_efficiency_ln>
-1.66504296562694

> <r_i_glide_gscore>
-6.88577555362372

> <r_i_glide_lipo>
-1.99887796540237

> <r_i_glide_hbond>
-0.35692254851929

> <r_i_glide_metal>
0

> <r_i_glide_rewards>
-2.41364896969947

> <r_i_glide_evdw>
-35.6751327514648

> <r_i_glide_ecoul>
-5.50764989852905

> <r_i_glide_erotb>
0.519580534212525

> <r_i_glide_esite>
-0.0260024818625167

> <r_i_glide_emodel>
-58.7204518802008

> <r_i_glide_energy>
-41.1827826499939

> <r_i_glide_einternal>
0.375169605016708

> <i_i_glide_confnum>
40

> <i_i_glide_posenum>
318

> <r_i_glide_eff_state_penalty>
0

> <s_user_duplicate_titles>
CHEMBL3231_lig881,CHEMBL3231_lig881

> <i_f3d_flags>
0

> <s_m_subgroup_title>
dock_pv

> <s_m_subgroupid>
dock_pv

> <b_m_subgroup_collapsed>
1

$$$$
CHEMBL3231_lig535
                    3D
 Schrodinger Suite 2021-1.
 52 55  0  0  1  0            999 V2000
   57.6341   99.5360   36.8594 C   0  0  0  0  0  0
   56.2428   99.3217   37.0789 O   0  0  0  0  0  0
   55.3321  100.1674   36.4769 C   0  0  0  0  0  0
   54.0021   99.7703   36.4969 C   0  0  0  0  0  0
   53.0216  100.5425   35.8835 C   0  0  0  0  0  0
   53.3174  101.7297   35.1890 C   0  0  0  0  0  0
   52.2624  102.5257   34.6459 N   0  0  0  0  0  0
   50.9325  102.4555   35.2833 C   0  0  0  0  0  0
   52.2571  103.1167   33.4078 C   0  0  0  0  0  0
   51.2433  103.5036   32.8129 O   0  0  0  0  0  0
   53.6475  103.3218   32.7541 C   0  0  2  0  0  0
   54.2432  102.0584   32.0567 C   0  0  0  0  0  0
   53.4032  101.3862   30.9689 C   0  0  0  0  0  0
   52.5475  102.1190   30.1445 C   0  0  0  0  0  0
   51.8333  101.4805   29.1378 C   0  0  0  0  0  0
   51.9762  100.1039   28.9062 C   0  0  0  0  0  0
   52.8237   99.3772   29.7538 C   0  0  0  0  0  0
   53.5333  100.0108   30.7699 C   0  0  0  0  0  0
   51.2911   99.4477   27.7465 C   0  0  0  0  0  0
   51.0092   98.0700   27.7109 C   0  0  0  0  0  0
   50.4378   97.5117   26.5619 C   0  0  0  0  0  0
   50.0916   98.2442   25.4798 N   0  0  0  0  0  0
   50.3611   99.5650   25.5228 C   0  0  0  0  0  0
   50.0419  100.3139   24.4110 N   0  0  0  0  0  0
   50.9516  100.1953   26.6108 C   0  0  0  0  0  0
   54.5858  104.0032   33.6452 N   0  0  0  0  0  0
   55.1721  103.5221   34.7494 C   0  0  0  0  0  0
   56.0429  104.1496   35.3494 O   0  0  0  0  0  0
   54.6689  102.1820   35.2571 C   0  0  0  0  0  0
   55.6531  101.3900   35.8762 C   0  0  0  0  0  0
   58.2010   98.7436   37.3479 H   0  0  0  0  0  0
   57.9729  100.4850   37.2777 H   0  0  0  0  0  0
   57.8783   99.5029   35.7966 H   0  0  0  0  0  0
   53.7298   98.8465   36.9858 H   0  0  0  0  0  0
   52.0070  100.1760   35.9253 H   0  0  0  0  0  0
   50.3709  101.6020   34.9043 H   0  0  0  0  0  0
   51.0310  102.3450   36.3634 H   0  0  0  0  0  0
   50.3380  103.3555   35.1171 H   0  0  0  0  0  0
   53.5002  104.0711   31.9748 H   0  0  0  0  0  0
   55.1995  102.3316   31.6108 H   0  0  0  0  0  0
   54.4919  101.2996   32.7973 H   0  0  0  0  0  0
   52.4349  103.1857   30.2626 H   0  0  0  0  0  0
   51.1802  102.0837   28.5258 H   0  0  0  0  0  0
   52.9795   98.3190   29.6100 H   0  0  0  0  0  0
   54.2060   99.4302   31.3855 H   0  0  0  0  0  0
   51.2431   97.4286   28.5468 H   0  0  0  0  0  0
   50.2558   96.4516   26.4703 H   0  0  0  0  0  0
   50.1966  101.3090   24.4348 H   0  0  0  0  0  0
   49.4983   99.9022   23.6588 H   0  0  0  0  0  0
   51.1675  101.2506   26.5501 H   0  0  0  0  0  0
   54.8438  104.9502   33.4038 H   0  0  0  0  0  0
   56.6814  101.7262   35.8910 H   0  0  0  0  0  0
  1  2  1  0  0  0
  1 31  1  0  0  0
  1 32  1  0  0  0
  1 33  1  0  0  0
  2  3  1  0  0  0
  3  4  2  0  0  0
  3 30  1  0  0  0
  4  5  1  0  0  0
  4 34  1  0  0  0
  5  6  2  0  0  0
  5 35  1  0  0  0
  6  7  1  0  0  0
  6 29  1  0  0  0
  7  8  1  0  0  0
  7  9  1  0  0  0
  8 36  1  0  0  0
  8 37  1  0  0  0
  8 38  1  0  0  0
  9 10  2  0  0  0
  9 11  1  0  0  0
 11 12  1  0  0  0
 11 26  1  0  0  0
 11 39  1  0  0  0
 12 13  1  0  0  0
 12 40  1  0  0  0
 12 41  1  0  0  0
 13 14  2  0  0  0
 13 18  1  0  0  0
 14 15  1  0  0  0
 14 42  1  0  0  0
 15 16  2  0  0  0
 15 43  1  0  0  0
 16 17  1  0  0  0
 16 19  1  0  0  0
 17 18  2  0  0  0
 17 44  1  0  0  0
 18 45  1  0  0  0
 19 20  2  0  0  0
 19 25  1  0  0  0
 20 21  1  0  0  0
 20 46  1  0  0  0
 21 22  2  0  0  0
 21 47  1  0  0  0
 22 23  1  0  0  0
 23 24  1  0  0  0
 23 25  2  0  0  0
 24 48  1  0  0  0
 24 49  1  0  0  0
 25 50  1  0  0  0
 26 27  1  0  0  0
 26 51  1  0  0  0
 27 28  2  0  0  0
 27 29  1  0  0  0
 29 30  2  0  0  0
 30 52  1  0  0  0
M  END
> <s_m_entry_id>
28648

> <s_m_entry_name>
dock_pv.809

> <s_m_Source_Path>
/home/csk/Desktop/cluster/DUD-E-result/rock1

> <s_m_Source_File>
dock_pv.maegz

> <i_m_Source_File_Index>
809

> <chembl_id>
CHEMBL3649657

> <chembl_pref_name>
None

> <i_lp_mmshare_version>
53161

> <r_lp_tautomer_probability>
0.999999772200052

> <s_lp_Force_Field>
OPLS_2005

> <r_lp_Energy>
43.236591

> <b_lp_Chiralities_Consistent>
1

> <s_lp_Variant>
CHEMBL3231_lig535-1

> <s_i_glide_gridfile>
glide-grid_2etr

> <i_i_glide_lignum>
811

> <i_i_glide_rotatable_bonds>
4

> <r_i_docking_score>
-6.88143655575081

> <r_i_glide_ligand_efficiency>
-0.229381218525027

> <r_i_glide_ligand_efficiency_sa>
-0.712740777648212

> <r_i_glide_ligand_efficiency_ln>
-1.56353736472323

> <r_i_glide_gscore>
-6.88143655575081

> <r_i_glide_lipo>
-2.02568331258544

> <r_i_glide_hbond>
-0.441683843375615

> <r_i_glide_metal>
0

> <r_i_glide_rewards>
-1.2193931516839

> <r_i_glide_evdw>
-39.279712677002

> <r_i_glide_ecoul>
-9.53300952911377

> <r_i_glide_erotb>
0.254441998661924

> <r_i_glide_esite>
-0.0551811835506232

> <r_i_glide_emodel>
-69.1955582897667

> <r_i_glide_energy>
-48.8127222061157

> <r_i_glide_einternal>
2.17360544204712

> <i_i_glide_confnum>
20

> <i_i_glide_posenum>
164

> <r_i_glide_eff_state_penalty>
0

> <s_user_duplicate_titles>
CHEMBL3231_lig535

> <i_f3d_flags>
0

> <s_m_subgroup_title>
dock_pv

> <s_m_subgroupid>
dock_pv

> <b_m_subgroup_collapsed>
1

$$$$
CHEMBL3231_lig1773
                    3D
 Schrodinger Suite 2021-1.
 44 48  0  0  1  0            999 V2000
   55.6431   93.6287   32.8109 O   0  0  0  0  0  0
   55.1684   94.9209   33.1259 C   0  0  0  0  0  0
   54.5291   94.9407   34.5326 C   0  0  0  0  0  0
   53.9949   96.2606   34.8906 N   0  0  0  0  0  0
   53.6453   97.3147   34.0815 C   0  0  0  0  0  0
   53.0917   98.2915   34.9007 C   0  0  0  0  0  0
   53.1778   97.7124   36.1774 C   0  0  0  0  0  0
   53.6897   96.5015   36.1714 N   0  0  0  0  0  0
   52.5218   99.6069   34.4980 C   0  0  0  0  0  0
   51.6539  100.3320   35.3285 C   0  0  0  0  0  0
   51.0799  101.5080   34.9447 N   0  0  0  0  0  0
   51.4115  101.9348   33.7188 C   0  0  0  0  0  0
   51.0089  103.0514   33.0505 N   0  0  0  0  0  0
   51.6368  103.0355   31.8167 N   0  0  0  0  0  0
   52.4284  101.9434   31.7400 N   0  0  0  0  0  0
   53.1811  101.6520   30.5266 C   0  0  0  0  0  0
   52.4137  100.8056   29.5192 C   0  0  0  0  0  0
   52.2588   99.4351   29.7270 C   0  0  0  0  0  0
   51.6061   98.6389   28.7884 C   0  0  0  0  0  0
   51.1038   99.2061   27.5932 C   0  0  0  0  0  0
   50.5060   98.3927   26.6749 N   0  0  0  0  0  0
   50.0431   98.9532   25.5308 C   0  0  0  0  0  0
   50.1306  100.3117   25.2437 C   0  0  0  0  0  0
   50.7284  101.1567   26.1765 C   0  0  0  0  0  0
   51.2427  100.6123   27.3830 C   0  0  0  0  0  0
   51.8892  101.4006   28.3684 C   0  0  0  0  0  0
   52.3001  101.2003   32.8993 C   0  0  0  0  0  0
   52.8608  100.0389   33.2466 N   0  0  0  0  0  0
   56.3475   93.3953   33.4348 H   0  0  0  0  0  0
   55.9675   95.6631   33.0556 H   0  0  0  0  0  0
   54.4419   95.2215   32.3686 H   0  0  0  0  0  0
   53.6826   94.2469   34.5802 H   0  0  0  0  0  0
   55.2807   94.6907   35.2878 H   0  0  0  0  0  0
   53.7863   97.2776   33.0127 H   0  0  0  0  0  0
   52.8486   98.1683   37.0996 H   0  0  0  0  0  0
   51.3919   99.9750   36.3106 H   0  0  0  0  0  0
   53.5172  102.5904   30.0856 H   0  0  0  0  0  0
   54.0919  101.1253   30.8181 H   0  0  0  0  0  0
   52.6612   98.9750   30.6170 H   0  0  0  0  0  0
   51.4919   97.5774   28.9588 H   0  0  0  0  0  0
   49.5732   98.2841   24.8257 H   0  0  0  0  0  0
   49.7377  100.7022   24.3148 H   0  0  0  0  0  0
   50.8115  102.2170   25.9854 H   0  0  0  0  0  0
   52.0006  102.4604   28.2056 H   0  0  0  0  0  0
  1  2  1  0  0  0
  1 29  1  0  0  0
  2  3  1  0  0  0
  2 30  1  0  0  0
  2 31  1  0  0  0
  3  4  1  0  0  0
  3 32  1  0  0  0
  3 33  1  0  0  0
  4  5  1  0  0  0
  4  8  1  0  0  0
  5  6  2  0  0  0
  5 34  1  0  0  0
  6  7  1  0  0  0
  6  9  1  0  0  0
  7  8  2  0  0  0
  7 35  1  0  0  0
  9 10  2  0  0  0
  9 28  1  0  0  0
 10 11  1  0  0  0
 10 36  1  0  0  0
 11 12  2  0  0  0
 12 13  1  0  0  0
 12 27  1  0  0  0
 13 14  2  0  0  0
 14 15  1  0  0  0
 15 16  1  0  0  0
 15 27  1  0  0  0
 16 17  1  0  0  0
 16 37  1  0  0  0
 16 38  1  0  0  0
 17 18  2  0  0  0
 17 26  1  0  0  0
 18 19  1  0  0  0
 18 39  1  0  0  0
 19 20  2  0  0  0
 19 40  1  0  0  0
 20 21  1  0  0  0
 20 25  1  0  0  0
 21 22  2  0  0  0
 22 23  1  0  0  0
 22 41  1  0  0  0
 23 24  2  0  0  0
 23 42  1  0  0  0
 24 25  1  0  0  0
 24 43  1  0  0  0
 25 26  2  0  0  0
 26 44  1  0  0  0
 27 28  2  0  0  0
M  END
> <s_m_entry_id>
28649

> <s_m_entry_name>
dock_pv.810

> <s_m_Source_Path>
/home/csk/Desktop/cluster/DUD-E-result/rock1

> <s_m_Source_File>
dock_pv.maegz

> <i_m_Source_File_Index>
810

> <chembl_id>
CHEMBL2001019

> <chembl_pref_name>
PF-04217903

> <i_lp_mmshare_version>
53161

> <r_lp_tautomer_probability>
1

> <s_lp_Force_Field>
OPLS_2005

> <r_lp_Energy>
24.225802

> <b_lp_Chiralities_Consistent>
1

> <s_lp_Variant>
CHEMBL3231_lig1773-1

> <s_i_glide_gridfile>
glide-grid_2etr

> <i_i_glide_lignum>
2538

> <i_i_glide_rotatable_bonds>
6

> <r_i_docking_score>
-6.88068726892799

> <r_i_glide_ligand_efficiency>
-0.245738831033142

> <r_i_glide_ligand_efficiency_sa>
-0.746207823448018

> <r_i_glide_ligand_efficiency_ln>
-1.58826464742536

> <r_i_glide_gscore>
-6.88068726892799

> <r_i_glide_lipo>
-2.43898409334083

> <r_i_glide_hbond>
-0.456

> <r_i_glide_metal>
0

> <r_i_glide_rewards>
-1.240649210117

> <r_i_glide_evdw>
-42.7025146484375

> <r_i_glide_ecoul>
-7.75060939788818

> <r_i_glide_erotb>
0.696387991045396

> <r_i_glide_esite>
-0.143724814410455

> <r_i_glide_emodel>
-70.6342848320111

> <r_i_glide_energy>
-50.4531240463257

> <r_i_glide_einternal>
5.2512993812561

> <i_i_glide_confnum>
24

> <i_i_glide_posenum>
194

> <r_i_glide_eff_state_penalty>
0

> <s_user_duplicate_titles>
CHEMBL3231_lig1773

> <i_f3d_flags>
0

> <s_m_subgroup_title>
dock_pv

> <s_m_subgroupid>
dock_pv

> <b_m_subgroup_collapsed>
1

$$$$
CHEMBL3231_lig1097
                    3D
 Schrodinger Suite 2021-1.
 36 39  0  0  1  0            999 V2000
   50.0524   99.8707   25.5349 C   0  0  0  0  0  0
   50.6100   98.7239   26.1000 C   0  0  0  0  0  0
   51.2438   98.7468   27.3451 C   0  0  0  0  0  0
   50.0996  101.0953   26.2004 C   0  0  0  0  0  0
   50.7202  101.1486   27.4564 C   0  0  0  0  0  0
   51.2991   99.9800   28.0147 C   0  0  0  0  0  0
   51.8517  100.4025   29.2207 N   0  0  0  0  0  0
   51.5181  101.7532   29.3272 C   0  0  0  0  0  0
   50.8597  102.2188   28.2935 N   0  0  0  0  0  0
   51.8059  102.5888   30.4909 C   0  0  0  0  0  0
   50.9406  102.7029   31.4640 N   0  0  0  0  0  0
   51.5760  103.5037   32.4055 O   0  0  0  0  0  0
   52.8244  103.9102   31.9465 N   0  0  0  0  0  0
   52.9313  103.3647   30.7643 C   0  0  0  0  0  0
   54.0430  103.5738   30.0110 N   0  0  0  0  0  0
   52.5284   99.6062   30.1827 C   0  0  0  0  0  0
   53.6899  100.0796   30.8119 C   0  0  0  0  0  0
   54.3563   99.3254   31.7820 C   0  0  0  0  0  0
   53.8889   98.0351   32.0660 C   0  0  0  0  0  0
   52.7742   97.5308   31.4013 C   0  0  0  0  0  0
   52.0865   98.3116   30.4754 C   0  0  0  0  0  0
   55.4374   99.9205   32.4032 O   0  0  0  0  0  0
   56.0717   99.2499   33.4896 C   0  0  0  0  0  0
   49.5767   99.8131   24.5645 H   0  0  0  0  0  0
   50.5590   97.7915   25.5585 H   0  0  0  0  0  0
   51.6855   97.8487   27.7507 H   0  0  0  0  0  0
   49.6614  101.9790   25.7595 H   0  0  0  0  0  0
   54.1974  103.1258   29.1202 H   0  0  0  0  0  0
   54.7707  104.2028   30.3409 H   0  0  0  0  0  0
   54.1039  101.0418   30.5666 H   0  0  0  0  0  0
   54.3871   97.4088   32.7891 H   0  0  0  0  0  0
   52.4442   96.5307   31.6109 H   0  0  0  0  0  0
   51.2054   97.9042   30.0021 H   0  0  0  0  0  0
   56.9093   99.8482   33.8426 H   0  0  0  0  0  0
   55.3836   99.1221   34.3263 H   0  0  0  0  0  0
   56.4651   98.2734   33.2084 H   0  0  0  0  0  0
  1  2  2  0  0  0
  1  4  1  0  0  0
  1 24  1  0  0  0
  2  3  1  0  0  0
  2 25  1  0  0  0
  3  6  2  0  0  0
  3 26  1  0  0  0
  4  5  2  0  0  0
  4 27  1  0  0  0
  5  9  1  0  0  0
  5  6  1  0  0  0
  6  7  1  0  0  0
  7 16  1  0  0  0
  7  8  1  0  0  0
  8 10  1  0  0  0
  8  9  2  0  0  0
 10 14  1  0  0  0
 10 11  2  0  0  0
 11 12  1  0  0  0
 12 13  1  0  0  0
 13 14  2  0  0  0
 14 15  1  0  0  0
 15 28  1  0  0  0
 15 29  1  0  0  0
 16 17  2  0  0  0
 16 21  1  0  0  0
 17 18  1  0  0  0
 17 30  1  0  0  0
 18 19  2  0  0  0
 18 22  1  0  0  0
 19 20  1  0  0  0
 19 31  1  0  0  0
 20 21  2  0  0  0
 20 32  1  0  0  0
 21 33  1  0  0  0
 22 23  1  0  0  0
 23 34  1  0  0  0
 23 35  1  0  0  0
 23 36  1  0  0  0
M  END
> <s_m_entry_id>
28650

> <s_m_entry_name>
dock_pv.811

> <s_m_Source_Path>
/home/csk/Desktop/cluster/DUD-E-result/rock1

> <s_m_Source_File>
dock_pv.maegz

> <i_m_Source_File_Index>
811

> <chembl_id>
CHEMBL1078155

> <chembl_pref_name>
None

> <i_lp_mmshare_version>
53161

> <r_lp_tautomer_probability>
1

> <s_lp_Force_Field>
OPLS_2005

> <r_lp_Energy>
30.46651

> <b_lp_Chiralities_Consistent>
1

> <s_lp_Variant>
CHEMBL3231_lig1097-1

> <s_i_glide_gridfile>
glide-grid_2etr

> <i_i_glide_lignum>
1522

> <i_i_glide_rotatable_bonds>
3

> <r_i_docking_score>
-6.88039736285394

> <r_i_glide_ligand_efficiency>
-0.299147711428432

> <r_i_glide_ligand_efficiency_sa>
-0.850736297740323

> <r_i_glide_ligand_efficiency_ln>
-1.66374247033207

> <r_i_glide_gscore>
-6.88039736285394

> <r_i_glide_lipo>
-2.24752263942146

> <r_i_glide_hbond>
-0.32

> <r_i_glide_metal>
0

> <r_i_glide_rewards>
-1.94963787666066

> <r_i_glide_evdw>
-38.7506294250488

> <r_i_glide_ecoul>
-4.14371967315674

> <r_i_glide_erotb>
0.39147357090397

> <r_i_glide_esite>
-0.195620995449835

> <r_i_glide_emodel>
-56.8461307487985

> <r_i_glide_energy>
-42.8943490982056

> <r_i_glide_einternal>
8.0006217956543

> <i_i_glide_confnum>
12

> <i_i_glide_posenum>
80

> <r_i_glide_eff_state_penalty>
0

> <s_user_duplicate_titles>
CHEMBL3231_lig1097

> <i_f3d_flags>
0

> <s_m_subgroup_title>
dock_pv

> <s_m_subgroupid>
dock_pv

> <b_m_subgroup_collapsed>
1

$$$$
CHEMBL3231_lig473
                    3D
 Schrodinger Suite 2021-1.
 35 37  0  0  1  0            999 V2000
   51.8941   99.3538   29.8379 N   0  0  0  0  0  0
   52.4639   99.8226   30.9772 C   0  0  0  0  0  0
   51.6797  100.1878   28.7846 C   0  0  0  0  0  0
   52.8535  101.1830   31.1318 C   0  0  0  0  0  0
   52.6459  102.0471   30.0161 C   0  0  0  0  0  0
   52.0481  101.5374   28.8433 C   0  0  0  0  0  0
   53.6430  103.9046   31.2508 N   0  0  0  0  0  0
   51.0808   99.5658   27.5550 C   0  0  0  0  0  0
   50.0417   98.3736   25.2101 N   0  0  0  0  0  0
   52.6957   98.9141   32.0261 N   0  0  0  0  0  0
   53.0739  103.3883   30.1422 C   0  0  0  0  0  0
   55.2429   97.4219   32.4899 N   0  0  0  0  0  0
   53.4614  101.7308   32.3015 C   0  0  0  0  0  0
   53.8286  103.0766   32.3044 C   0  0  0  0  0  0
   50.4421   97.6192   26.2580 C   0  0  0  0  0  0
   50.1277   99.7215   25.3297 C   0  0  0  0  0  0
   50.9546   98.1699   27.4301 C   0  0  0  0  0  0
   50.6330  100.3467   26.4703 C   0  0  0  0  0  0
   52.8661   97.4796   31.7834 C   0  0  0  0  0  0
   54.3170   97.1062   31.4165 C   0  0  0  0  0  0
   51.9109  102.2049   28.0106 H   0  0  0  0  0  0
   53.2552   99.2724   32.7845 H   0  0  0  0  0  0
   52.9679  104.0689   29.3083 H   0  0  0  0  0  0
   56.1894   97.2093   32.1798 H   0  0  0  0  0  0
   55.2607   98.4190   32.6338 H   0  0  0  0  0  0
   53.6470  101.1177   33.1706 H   0  0  0  0  0  0
   54.3027  103.5153   33.1729 H   0  0  0  0  0  0
   50.3669   96.5494   26.1412 H   0  0  0  0  0  0
   49.7821  100.3024   24.4837 H   0  0  0  0  0  0
   51.2701   97.5051   28.2180 H   0  0  0  0  0  0
   50.6700  101.4268   26.4870 H   0  0  0  0  0  0
   52.5576   96.9454   32.6819 H   0  0  0  0  0  0
   52.1925   97.1376   30.9957 H   0  0  0  0  0  0
   54.4100   96.0392   31.2129 H   0  0  0  0  0  0
   54.6292   97.6263   30.5072 H   0  0  0  0  0  0
  1  2  2  0  0  0
  1  3  1  0  0  0
  2  4  1  0  0  0
  2 10  1  0  0  0
  3  6  2  0  0  0
  3  8  1  0  0  0
  4 13  2  0  0  0
  4  5  1  0  0  0
  5  6  1  0  0  0
  5 11  2  0  0  0
  6 21  1  0  0  0
  7 11  1  0  0  0
  7 14  2  0  0  0
  8 17  2  0  0  0
  8 18  1  0  0  0
  9 16  1  0  0  0
  9 15  2  0  0  0
 10 19  1  0  0  0
 10 22  1  0  0  0
 11 23  1  0  0  0
 12 20  1  0  0  0
 12 24  1  0  0  0
 12 25  1  0  0  0
 13 14  1  0  0  0
 13 26  1  0  0  0
 14 27  1  0  0  0
 15 17  1  0  0  0
 15 28  1  0  0  0
 16 18  2  0  0  0
 16 29  1  0  0  0
 17 30  1  0  0  0
 18 31  1  0  0  0
 19 20  1  0  0  0
 19 32  1  0  0  0
 19 33  1  0  0  0
 20 34  1  0  0  0
 20 35  1  0  0  0
M  END
> <s_m_entry_id>
28651

> <s_m_entry_name>
dock_pv.812

> <s_m_Source_Path>
/home/csk/Desktop/cluster/DUD-E-result/rock1

> <s_m_Source_File>
dock_pv.maegz

> <i_m_Source_File_Index>
812

> <chembl_id>
CHEMBL1214929

> <chembl_pref_name>
None

> <i_lp_mmshare_version>
53161

> <r_lp_tautomer_probability>
1

> <s_lp_Force_Field>
OPLS_2005

> <r_lp_Energy>
14.794489

> <b_lp_Chiralities_Consistent>
1

> <s_lp_Variant>
CHEMBL3231_lig473-1

> <s_i_glide_gridfile>
glide-grid_2etr

> <i_i_glide_lignum>
666

> <i_i_glide_rotatable_bonds>
4

> <r_i_docking_score>
-6.87933309379298

> <r_i_glide_ligand_efficiency>
-0.343966654689649

> <r_i_glide_ligand_efficiency_sa>
-0.933669146078459

> <r_i_glide_ligand_efficiency_ln>
-1.7216701777855

> <r_i_glide_gscore>
-6.87933309379298

> <r_i_glide_lipo>
-2.15187402850318

> <r_i_glide_hbond>
-0.286483216006524

> <r_i_glide_metal>
0

> <r_i_glide_rewards>
-2.9218223031316

> <r_i_glide_evdw>
-36.4145927429199

> <r_i_glide_ecoul>
-3.045086145401

> <r_i_glide_erotb>
0.758339012804475

> <r_i_glide_esite>
0

> <r_i_glide_emodel>
-55.3268445617406

> <r_i_glide_energy>
-39.4596788883209

> <r_i_glide_einternal>
1.39192485809326

> <i_i_glide_confnum>
17

> <i_i_glide_posenum>
142

> <r_i_glide_eff_state_penalty>
0

> <s_user_duplicate_titles>
CHEMBL3231_lig473

> <i_f3d_flags>
0

> <s_m_subgroup_title>
dock_pv

> <s_m_subgroupid>
dock_pv

> <b_m_subgroup_collapsed>
1

$$$$
CHEMBL3231_lig663
                    3D
 Schrodinger Suite 2021-1.
 40 42  0  0  1  0            999 V2000
   51.4165   97.5030   30.4115 C   0  0  0  0  0  0
   51.2436   98.2838   29.2311 O   0  0  0  0  0  0
   51.4089   99.6575   29.2750 C   0  0  0  0  0  0
   51.8219  100.3312   30.4404 C   0  0  0  0  0  0
   51.9393  101.7264   30.4829 C   0  0  0  0  0  0
   51.6662  102.4560   29.3223 C   0  0  0  0  0  0
   51.2433  101.8030   28.1688 C   0  0  0  0  0  0
   51.1081  100.4105   28.1205 C   0  0  0  0  0  0
   50.6056   99.8151   26.8292 C   0  0  0  0  0  0
   50.0433  100.4826   25.7433 C   0  0  0  0  0  0
   49.7297   99.5343   24.8111 N   0  0  0  0  0  0
   50.0430   98.3029   25.2110 N   0  0  0  0  0  0
   50.5732   98.4725   26.4014 C   0  0  0  0  0  0
   52.2487  102.4190   31.7877 C   0  0  0  0  0  0
   51.7592  101.9959   32.8338 O   0  0  0  0  0  0
   53.0232  103.5191   31.7185 N   0  0  0  0  0  0
   53.3074  104.4728   32.8036 C   0  0  0  0  0  0
   53.8602  103.8803   34.1056 C   0  0  0  0  0  0
   55.2266  103.5891   34.1856 C   0  0  0  0  0  0
   56.0429  103.8922   33.1553 F   0  0  0  0  0  0
   55.7668  103.0041   35.3297 C   0  0  0  0  0  0
   54.9486  102.7322   36.4228 C   0  0  0  0  0  0
   53.5930  103.0567   36.3769 C   0  0  0  0  0  0
   52.8200  102.8086   37.4594 F   0  0  0  0  0  0
   53.0427  103.6356   35.2263 C   0  0  0  0  0  0
   51.3574  104.0497   35.2257 Cl  0  0  0  0  0  0
   51.2134   96.4570   30.1827 H   0  0  0  0  0  0
   52.4384   97.5628   30.7897 H   0  0  0  0  0  0
   50.7228   97.8037   31.1985 H   0  0  0  0  0  0
   52.0292   99.7761   31.3427 H   0  0  0  0  0  0
   51.7356  103.5341   29.3120 H   0  0  0  0  0  0
   51.0004  102.3976   27.3038 H   0  0  0  0  0  0
   49.8287  101.5240   25.5570 H   0  0  0  0  0  0
   49.2994   99.7208   23.9097 H   0  0  0  0  0  0
   50.9347   97.6209   26.9580 H   0  0  0  0  0  0
   53.5021  103.6967   30.8472 H   0  0  0  0  0  0
   52.4263  105.0847   32.9948 H   0  0  0  0  0  0
   54.0436  105.1814   32.4161 H   0  0  0  0  0  0
   56.8200  102.7593   35.3615 H   0  0  0  0  0  0
   55.3651  102.2752   37.3090 H   0  0  0  0  0  0
  1  2  1  0  0  0
  1 27  1  0  0  0
  1 28  1  0  0  0
  1 29  1  0  0  0
  2  3  1  0  0  0
  3  4  2  0  0  0
  3  8  1  0  0  0
  4  5  1  0  0  0
  4 30  1  0  0  0
  5  6  2  0  0  0
  5 14  1  0  0  0
  6  7  1  0  0  0
  6 31  1  0  0  0
  7  8  2  0  0  0
  7 32  1  0  0  0
  8  9  1  0  0  0
  9 10  2  0  0  0
  9 13  1  0  0  0
 10 11  1  0  0  0
 10 33  1  0  0  0
 11 12  1  0  0  0
 11 34  1  0  0  0
 12 13  2  0  0  0
 13 35  1  0  0  0
 14 15  2  0  0  0
 14 16  1  0  0  0
 16 17  1  0  0  0
 16 36  1  0  0  0
 17 18  1  0  0  0
 17 37  1  0  0  0
 17 38  1  0  0  0
 18 19  2  0  0  0
 18 25  1  0  0  0
 19 20  1  0  0  0
 19 21  1  0  0  0
 21 22  2  0  0  0
 21 39  1  0  0  0
 22 23  1  0  0  0
 22 40  1  0  0  0
 23 24  1  0  0  0
 23 25  2  0  0  0
 25 26  1  0  0  0
M  END
> <s_m_entry_id>
28652

> <s_m_entry_name>
dock_pv.813

> <s_m_Source_Path>
/home/csk/Desktop/cluster/DUD-E-result/rock1

> <s_m_Source_File>
dock_pv.maegz

> <i_m_Source_File_Index>
813

> <chembl_id>
CHEMBL3948586

> <chembl_pref_name>
None

> <i_lp_mmshare_version>
53161

> <r_lp_tautomer_probability>
0.5

> <s_lp_Force_Field>
OPLS_2005

> <r_lp_Energy>
21.706033

> <b_lp_Chiralities_Consistent>
1

> <s_lp_Variant>
CHEMBL3231_lig663-1

> <s_i_glide_gridfile>
glide-grid_2etr

> <i_i_glide_lignum>
953

> <i_i_glide_rotatable_bonds>
6

> <r_i_docking_score>
-6.8788460596141

> <r_i_glide_ligand_efficiency>
-0.26457100229285

> <r_i_glide_ligand_efficiency_sa>
-0.783790553255943

> <r_i_glide_ligand_efficiency_ln>
-1.61547442576545

> <r_i_glide_gscore>
-6.8788460596141

> <r_i_glide_lipo>
-1.82888252525756

> <r_i_glide_hbond>
-0.535598256054224

> <r_i_glide_metal>
0

> <r_i_glide_rewards>
-1.76941821800612

> <r_i_glide_evdw>
-38.7941703796387

> <r_i_glide_ecoul>
-7.08592844009399

> <r_i_glide_erotb>
0.380078509584032

> <r_i_glide_esite>
-0.12242778488419

> <r_i_glide_emodel>
-63.5602054257527

> <r_i_glide_energy>
-45.8800988197327

> <r_i_glide_einternal>
2.25395345687866

> <i_i_glide_confnum>
3

> <i_i_glide_posenum>
123

> <r_i_glide_eff_state_penalty>
0

> <s_user_duplicate_titles>
CHEMBL3231_lig663

> <i_f3d_flags>
0

> <s_m_subgroup_title>
dock_pv

> <s_m_subgroupid>
dock_pv

> <b_m_subgroup_collapsed>
1

$$$$
CHEMBL3231_lig30
                    3D
 Schrodinger Suite 2021-1.
 43 46  0  0  1  0            999 V2000
   53.2617  102.2781   31.3590 N   0  0  0  0  0  0
   53.1770  101.1381   30.6244 C   0  0  0  0  0  0
   53.8704   99.9598   30.9425 C   0  0  0  0  0  0
   54.4985   99.9414   32.1867 C   0  0  0  0  0  0
   54.5753  101.0967   32.9910 C   0  0  0  0  0  0
   53.9750  102.2703   32.5149 C   0  0  0  0  0  0
   55.0888   98.9446   32.9371 N   0  0  0  0  0  0
   55.5438   99.5599   34.0980 C   0  0  0  0  0  0
   55.2435  100.8401   34.1528 N   0  0  0  0  0  0
   56.2706   98.8869   35.1762 C   0  0  0  0  0  0
   55.9491   99.0873   36.4322 N   0  0  0  0  0  0
   56.8391   98.2940   37.1509 O   0  0  0  0  0  0
   57.7197   97.6320   36.2995 N   0  0  0  0  0  0
   57.3639   98.0176   35.1017 C   0  0  0  0  0  0
   55.1010   97.5197   32.5841 C   0  0  0  0  0  0
   53.6800   96.9273   32.6151 C   0  0  0  0  0  0
   58.0432   97.5619   34.0111 N   0  0  0  0  0  0
   52.3526  101.2520   29.5224 O   0  0  0  0  0  0
   51.7258  100.1648   28.9407 C   0  0  0  0  0  0
   51.3853   98.9903   29.6311 C   0  0  0  0  0  0
   50.8431   97.9031   28.9555 C   0  0  0  0  0  0
   50.5617   98.0014   27.5965 C   0  0  0  0  0  0
   50.8060   99.1946   26.9042 C   0  0  0  0  0  0
   51.4018  100.2652   27.5885 C   0  0  0  0  0  0
   50.4428   99.2837   25.4619 C   0  0  0  0  0  0
   50.5316  100.6454   24.7770 C   0  0  0  0  0  0
   50.0427   98.3199   24.8110 O   0  0  0  0  0  0
   53.8544   99.0858   30.3121 H   0  0  0  0  0  0
   54.0195  103.1942   33.0724 H   0  0  0  0  0  0
   55.5589   97.4111   31.5994 H   0  0  0  0  0  0
   55.7124   96.9592   33.2835 H   0  0  0  0  0  0
   53.7036   95.8572   32.4084 H   0  0  0  0  0  0
   53.2174   97.0563   33.5944 H   0  0  0  0  0  0
   53.0261   97.3830   31.8728 H   0  0  0  0  0  0
   57.8833   97.9027   33.0606 H   0  0  0  0  0  0
   58.8037   96.9078   34.1136 H   0  0  0  0  0  0
   51.5527   98.9025   30.6934 H   0  0  0  0  0  0
   50.6253   96.9913   29.4920 H   0  0  0  0  0  0
   50.1314   97.1446   27.0951 H   0  0  0  0  0  0
   51.6429  101.1899   27.0846 H   0  0  0  0  0  0
   51.5648  100.9887   24.7453 H   0  0  0  0  0  0
   49.9481  101.3796   25.3317 H   0  0  0  0  0  0
   50.1406  100.5967   23.7606 H   0  0  0  0  0  0
  1  2  2  0  0  0
  1  6  1  0  0  0
  2  3  1  0  0  0
  2 18  1  0  0  0
  3  4  2  0  0  0
  3 28  1  0  0  0
  4  5  1  0  0  0
  4  7  1  0  0  0
  5  6  2  0  0  0
  5  9  1  0  0  0
  6 29  1  0  0  0
  7 15  1  0  0  0
  7  8  1  0  0  0
  8  9  2  0  0  0
  8 10  1  0  0  0
 10 14  1  0  0  0
 10 11  2  0  0  0
 11 12  1  0  0  0
 12 13  1  0  0  0
 13 14  2  0  0  0
 14 17  1  0  0  0
 15 16  1  0  0  0
 15 30  1  0  0  0
 15 31  1  0  0  0
 16 32  1  0  0  0
 16 33  1  0  0  0
 16 34  1  0  0  0
 17 35  1  0  0  0
 17 36  1  0  0  0
 18 19  1  0  0  0
 19 20  2  0  0  0
 19 24  1  0  0  0
 20 21  1  0  0  0
 20 37  1  0  0  0
 21 22  2  0  0  0
 21 38  1  0  0  0
 22 23  1  0  0  0
 22 39  1  0  0  0
 23 24  2  0  0  0
 23 25  1  0  0  0
 24 40  1  0  0  0
 25 26  1  0  0  0
 25 27  2  0  0  0
 26 41  1  0  0  0
 26 42  1  0  0  0
 26 43  1  0  0  0
M  END
> <s_m_entry_id>
28653

> <s_m_entry_name>
dock_pv.814

> <s_m_Source_Path>
/home/csk/Desktop/cluster/DUD-E-result/rock1

> <s_m_Source_File>
dock_pv.maegz

> <i_m_Source_File_Index>
814

> <chembl_id>
CHEMBL387338

> <chembl_pref_name>
None

> <i_lp_mmshare_version>
53161

> <r_lp_tautomer_probability>
0.99995

> <s_lp_Force_Field>
OPLS_2005

> <r_lp_Energy>
35.212728

> <b_lp_Chiralities_Consistent>
1

> <s_lp_Variant>
CHEMBL3231_lig30-1

> <s_i_glide_gridfile>
glide-grid_2etr

> <i_i_glide_lignum>
30

> <i_i_glide_rotatable_bonds>
5

> <r_i_docking_score>
-6.87807702152857

> <r_i_glide_ligand_efficiency>
-0.254743593389947

> <r_i_glide_ligand_efficiency_sa>
-0.764230779330248

> <r_i_glide_ligand_efficiency_ln>
-1.60110293664993

> <r_i_glide_gscore>
-6.87807702152857

> <r_i_glide_lipo>
-1.73783418046966

> <r_i_glide_hbond>
-0.431015015662364

> <r_i_glide_metal>
0

> <r_i_glide_rewards>
-2.22878260046683

> <r_i_glide_evdw>
-35.6719779968262

> <r_i_glide_ecoul>
-6.37389659881592

> <r_i_glide_erotb>
0.434416200120019

> <r_i_glide_esite>
-0.175178035386033

> <r_i_glide_emodel>
-56.9069486576871

> <r_i_glide_energy>
-42.0458745956421

> <r_i_glide_einternal>
8.05460262298584

> <i_i_glide_confnum>
8

> <i_i_glide_posenum>
379

> <r_i_glide_eff_state_penalty>
0

> <s_user_duplicate_titles>
CHEMBL3231_lig30,365403

> <i_f3d_flags>
0

> <s_m_subgroup_title>
dock_pv

> <s_m_subgroupid>
dock_pv

> <b_m_subgroup_collapsed>
1

$$$$
CHEMBL3231_lig1346
                    3D
 Schrodinger Suite 2021-1.
 44 46  0  0  1  0            999 V2000
   52.4423   99.2863   29.9925 S   0  0  0  0  0  0
   54.5273  101.5719   32.4490 O   0  0  0  0  0  0
   55.5341   93.9951   32.2493 O   0  0  0  0  0  0
   52.2184  101.5683   28.8548 N   0  0  0  0  0  0
   54.2499   99.3119   32.3695 N   0  0  0  0  0  0
   50.0414   98.7117   25.1306 N   0  0  0  0  0  0
   53.2351  100.6685   30.7223 C   0  0  0  0  0  0
   51.9039  100.3054   28.6928 C   0  0  0  0  0  0
   52.9450  101.7980   29.9373 C   0  0  0  0  0  0
   54.0560  100.5687   31.9166 C   0  0  0  0  0  0
   51.2108   99.7493   27.4785 C   0  0  0  0  0  0
   55.0822   98.8340   33.4787 C   0  0  2  0  0  0
   54.7603   97.3487   33.7127 C   0  0  0  0  0  0
   50.9536   98.3751   27.3410 C   0  0  0  0  0  0
   50.8448  100.5925   26.4163 C   0  0  0  0  0  0
   55.0344   95.0119   33.0367 C   0  0  0  0  0  0
   55.3197   96.3787   32.8671 C   0  0  0  0  0  0
   53.3909  103.2354   30.1401 C   0  0  0  0  0  0
   53.9242   96.9249   34.7574 C   0  0  0  0  0  0
   54.1821   94.6269   34.0711 C   0  0  0  0  0  0
   56.5216   94.3022   31.2696 C   0  0  0  0  0  0
   50.3769   97.9026   26.1639 C   0  0  0  0  0  0
   50.2709  100.0400   25.2697 C   0  0  0  0  0  0
   53.6429   95.5731   34.9365 C   0  0  0  0  0  0
   54.9767   99.6914   34.7650 C   0  0  0  0  0  0
   56.8432   93.3789   30.7886 H   0  0  0  0  0  0
   56.1331   94.9646   30.4931 H   0  0  0  0  0  0
   57.4034   94.7539   31.7252 H   0  0  0  0  0  0
   53.9382   98.5764   31.7535 H   0  0  0  0  0  0
   56.1248   98.8849   33.1515 H   0  0  0  0  0  0
   51.2063   97.6656   28.1142 H   0  0  0  0  0  0
   51.0239  101.6571   26.4652 H   0  0  0  0  0  0
   55.9802   96.7037   32.0746 H   0  0  0  0  0  0
   52.9997  103.6538   31.0666 H   0  0  0  0  0  0
   54.4777  103.3057   30.2066 H   0  0  0  0  0  0
   53.0894  103.9100   29.3351 H   0  0  0  0  0  0
   53.4772   97.6373   35.4342 H   0  0  0  0  0  0
   53.9447   93.5829   34.2121 H   0  0  0  0  0  0
   50.1766   96.8487   26.0364 H   0  0  0  0  0  0
   49.9898  100.6641   24.4343 H   0  0  0  0  0  0
   52.9911   95.2591   35.7381 H   0  0  0  0  0  0
   55.5071   99.2268   35.5971 H   0  0  0  0  0  0
   55.4242  100.6760   34.6247 H   0  0  0  0  0  0
   53.9397   99.8449   35.0645 H   0  0  0  0  0  0
  1  7  1  0  0  0
  1  8  1  0  0  0
  2 10  2  0  0  0
  3 16  1  0  0  0
  3 21  1  0  0  0
  4  8  2  0  0  0
  4  9  1  0  0  0
  5 10  1  0  0  0
  5 12  1  0  0  0
  5 29  1  0  0  0
  6 22  2  0  0  0
  6 23  1  0  0  0
  7  9  2  0  0  0
  7 10  1  0  0  0
  8 11  1  0  0  0
  9 18  1  0  0  0
 11 14  2  0  0  0
 11 15  1  0  0  0
 12 13  1  0  0  0
 12 25  1  0  0  0
 12 30  1  0  0  0
 13 17  2  0  0  0
 13 19  1  0  0  0
 14 22  1  0  0  0
 14 31  1  0  0  0
 15 23  2  0  0  0
 15 32  1  0  0  0
 16 17  1  0  0  0
 16 20  2  0  0  0
 17 33  1  0  0  0
 18 34  1  0  0  0
 18 35  1  0  0  0
 18 36  1  0  0  0
 19 24  2  0  0  0
 19 37  1  0  0  0
 20 24  1  0  0  0
 20 38  1  0  0  0
 21 26  1  0  0  0
 21 27  1  0  0  0
 21 28  1  0  0  0
 22 39  1  0  0  0
 23 40  1  0  0  0
 24 41  1  0  0  0
 25 42  1  0  0  0
 25 43  1  0  0  0
 25 44  1  0  0  0
M  ISO  3  26   2  27   2  28   2
M  END
> <s_m_entry_id>
28654

> <s_m_entry_name>
dock_pv.815

> <s_m_Source_Path>
/home/csk/Desktop/cluster/DUD-E-result/rock1

> <s_m_Source_File>
dock_pv.maegz

> <i_m_Source_File_Index>
815

> <chembl_id>
CHEMBL1998110

> <chembl_pref_name>
None

> <i_lp_mmshare_version>
53161

> <r_lp_tautomer_probability>
1

> <s_lp_Force_Field>
OPLS_2005

> <r_lp_Energy>
14.821383

> <b_lp_Chiralities_Consistent>
1

> <s_lp_Variant>
CHEMBL3231_lig1346-1

> <s_i_glide_gridfile>
glide-grid_2etr

> <i_i_glide_lignum>
1874

> <i_i_glide_rotatable_bonds>
6

> <r_i_docking_score>
-6.87648084914248

> <r_i_glide_ligand_efficiency>
-0.275059233965699

> <r_i_glide_ligand_efficiency_sa>
-0.80427807831199

> <r_i_glide_ligand_efficiency_ln>
-1.62993203274887

> <r_i_glide_gscore>
-6.87648084914248

> <r_i_glide_lipo>
-2.4338977882225

> <r_i_glide_hbond>
-0.237369135258032

> <r_i_glide_metal>
0

> <r_i_glide_rewards>
-2.28204778678682

> <r_i_glide_evdw>
-46.4329414367676

> <r_i_glide_ecoul>
-2.01633930206299

> <r_i_glide_erotb>
0.764368210817223

> <r_i_glide_esite>
-0.0634363825445121

> <r_i_glide_emodel>
-66.3058179088546

> <r_i_glide_energy>
-48.4492807388306

> <r_i_glide_einternal>
5.56758069992065

> <i_i_glide_confnum>
22

> <i_i_glide_posenum>
47

> <r_i_glide_eff_state_penalty>
0

> <s_user_duplicate_titles>
CHEMBL3231_lig1346,CHEMBL3231_lig1463

> <i_f3d_flags>
0

> <s_m_subgroup_title>
dock_pv

> <s_m_subgroupid>
dock_pv

> <b_m_subgroup_collapsed>
1

$$$$
CHEMBL3231_lig1333
                    3D
 Schrodinger Suite 2021-1.
 51 55  0  0  1  0            999 V2000
   53.1338   99.9856   31.0144 C   0  0  0  0  0  0
   51.9935   99.1891   31.1096 C   0  0  0  0  0  0
   52.0389   97.8958   31.6112 C   0  0  0  0  0  0
   54.3757   99.5062   31.4538 C   0  0  0  0  0  0
   54.4256   98.2555   32.0811 C   0  0  0  0  0  0
   53.2592   97.4663   32.1351 C   0  0  0  0  0  0
   54.9303   96.3137   33.1333 N   0  0  0  0  0  0
   55.4058   97.4662   32.7500 C   0  0  0  0  0  0
   52.9854  101.3496   30.4430 C   0  0  0  0  0  0
   52.3134  101.8103   29.2862 C   0  0  0  0  0  0
   53.5059  102.4844   31.0430 N   0  0  0  0  0  0
   53.1555  103.5036   30.2124 C   0  0  0  0  0  0
   52.4113  103.1304   29.2107 N   0  0  0  0  0  0
   51.5686  101.0515   28.2029 C   0  0  0  0  0  0
   51.7623   99.6780   28.0128 C   0  0  0  0  0  0
   51.1136   98.9865   26.9928 C   0  0  0  0  0  0
   50.2651   99.6701   26.1315 C   0  0  0  0  0  0
   50.0568  101.0350   26.2932 C   0  0  0  0  0  0
   50.6936  101.7169   27.3297 C   0  0  0  0  0  0
   49.6477   99.0051   25.1279 F   0  0  0  0  0  0
   54.1987  102.6631   32.3231 C   0  0  0  0  0  0
   53.2743  103.2828   33.4023 C   0  0  0  0  0  0
   52.0557  102.5129   33.6951 N   0  0  0  0  0  0
   51.1405  103.2862   34.5469 C   0  0  0  0  0  0
   49.8666  102.4789   34.8951 C   0  0  0  0  0  0
   50.2088  101.2261   35.4809 O   0  0  0  0  0  0
   51.0334  100.4381   34.6269 C   0  0  0  0  0  0
   52.3369  101.1978   34.2955 C   0  0  0  0  0  0
   53.6430   96.3008   32.7615 N   0  0  0  0  0  0
   51.0464   99.5686   30.7522 H   0  0  0  0  0  0
   51.1589   97.2713   31.6178 H   0  0  0  0  0  0
   55.2741  100.1010   31.3518 H   0  0  0  0  0  0
   56.4435   97.7159   32.9121 H   0  0  0  0  0  0
   53.4774  104.5069   30.4488 H   0  0  0  0  0  0
   52.4517   99.1255   28.6274 H   0  0  0  0  0  0
   51.2850   97.9285   26.8591 H   0  0  0  0  0  0
   49.4043  101.5614   25.6130 H   0  0  0  0  0  0
   50.5128  102.7766   27.4354 H   0  0  0  0  0  0
   55.0472  103.3254   32.1406 H   0  0  0  0  0  0
   54.6258  101.7275   32.6693 H   0  0  0  0  0  0
   53.0014  104.2879   33.0748 H   0  0  0  0  0  0
   53.8443  103.4182   34.3231 H   0  0  0  0  0  0
   50.8647  104.2094   34.0369 H   0  0  0  0  0  0
   51.6511  103.5894   35.4621 H   0  0  0  0  0  0
   49.2566  103.0370   35.6056 H   0  0  0  0  0  0
   49.2474  102.3255   34.0114 H   0  0  0  0  0  0
   51.2694   99.5035   35.1353 H   0  0  0  0  0  0
   50.4978  100.1705   33.7134 H   0  0  0  0  0  0
   52.9377  101.3222   35.1977 H   0  0  0  0  0  0
   52.9422  100.5946   33.6226 H   0  0  0  0  0  0
   53.0533   95.4985   32.9459 H   0  0  0  0  0  0
  1  2  2  0  0  0
  1  4  1  0  0  0
  1  9  1  0  0  0
  2  3  1  0  0  0
  2 30  1  0  0  0
  3  6  2  0  0  0
  3 31  1  0  0  0
  4  5  2  0  0  0
  4 32  1  0  0  0
  5  6  1  0  0  0
  5  8  1  0  0  0
  6 29  1  0  0  0
  7  8  2  0  0  0
  7 29  1  0  0  0
  8 33  1  0  0  0
  9 10  2  0  0  0
  9 11  1  0  0  0
 10 13  1  0  0  0
 10 14  1  0  0  0
 11 12  1  0  0  0
 11 21  1  0  0  0
 12 13  2  0  0  0
 12 34  1  0  0  0
 14 15  2  0  0  0
 14 19  1  0  0  0
 15 16  1  0  0  0
 15 35  1  0  0  0
 16 17  2  0  0  0
 16 36  1  0  0  0
 17 18  1  0  0  0
 17 20  1  0  0  0
 18 19  2  0  0  0
 18 37  1  0  0  0
 19 38  1  0  0  0
 21 22  1  0  0  0
 21 39  1  0  0  0
 21 40  1  0  0  0
 22 23  1  0  0  0
 22 41  1  0  0  0
 22 42  1  0  0  0
 23 24  1  0  0  0
 23 28  1  0  0  0
 24 25  1  0  0  0
 24 43  1  0  0  0
 24 44  1  0  0  0
 25 26  1  0  0  0
 25 45  1  0  0  0
 25 46  1  0  0  0
 26 27  1  0  0  0
 27 28  1  0  0  0
 27 47  1  0  0  0
 27 48  1  0  0  0
 28 49  1  0  0  0
 28 50  1  0  0  0
 29 51  1  0  0  0
M  END
> <s_m_entry_id>
28656

> <s_m_entry_name>
dock_pv.817

> <s_m_Source_Path>
/home/csk/Desktop/cluster/DUD-E-result/rock1

> <s_m_Source_File>
dock_pv.maegz

> <i_m_Source_File_Index>
817

> <chembl_id>
CHEMBL1682558

> <chembl_pref_name>
None

> <i_lp_mmshare_version>
53161

> <r_lp_tautomer_probability>
0.980392156862745

> <s_lp_Force_Field>
OPLS_2005

> <r_lp_Energy>
36.239655

> <b_lp_Chiralities_Consistent>
1

> <s_lp_Variant>
CHEMBL3231_lig1333-1

> <s_i_glide_gridfile>
glide-grid_2etr

> <i_i_glide_lignum>
1852

> <i_i_glide_rotatable_bonds>
5

> <r_i_docking_score>
-6.87292683003206

> <r_i_glide_ligand_efficiency>
-0.236997476897657

> <r_i_glide_ligand_efficiency_sa>
-0.728131335100488

> <r_i_glide_ligand_efficiency_ln>
-1.57372596169043

> <r_i_glide_gscore>
-6.87292683003206

> <r_i_glide_lipo>
-2.37453064841177

> <r_i_glide_hbond>
-0.220398249681577

> <r_i_glide_metal>
0

> <r_i_glide_rewards>
-1.8513382347332

> <r_i_glide_evdw>
-40.7231407165527

> <r_i_glide_ecoul>
-6.57455778121948

> <r_i_glide_erotb>
0.636792041517734

> <r_i_glide_esite>
-0.0411110357126911

> <r_i_glide_emodel>
-67.6778769734672

> <r_i_glide_energy>
-47.2976984977722

> <r_i_glide_einternal>
0.638300836086273

> <i_i_glide_confnum>
259

> <i_i_glide_posenum>
314

> <r_i_glide_eff_state_penalty>
0

> <s_user_duplicate_titles>
CHEMBL3231_lig1333

> <i_f3d_flags>
0

> <s_m_subgroup_title>
dock_pv

> <s_m_subgroupid>
dock_pv

> <b_m_subgroup_collapsed>
1

$$$$
CHEMBL3231_lig202
                    3D
 Schrodinger Suite 2021-1.
 28 30  0  0  1  0            999 V2000
   53.5963  102.9476   30.9619 C   0  0  0  0  0  0
   54.1916  102.7025   32.1950 C   0  0  0  0  0  0
   54.0754  101.4643   32.8156 C   0  0  0  0  0  0
   53.3546  100.4291   32.2218 C   0  0  0  0  0  0
   52.8770  101.9049   30.3580 C   0  0  0  0  0  0
   52.7478  100.6220   30.9644 C   0  0  0  0  0  0
   51.9859   99.7037   30.1632 C   0  0  0  0  0  0
   51.6406  100.2546   28.9245 C   0  0  0  0  0  0
   52.0436  101.9647   28.8289 S   0  0  0  0  0  0
   51.6681   98.3037   30.6664 C   0  0  0  0  0  0
   51.0093   99.6084   27.7162 C   0  0  0  0  0  0
   50.3796  100.4306   26.8278 N   0  0  0  0  0  0
   49.9153   99.8689   25.6867 C   0  0  0  0  0  0
   50.0270   98.5653   25.3368 N   0  0  0  0  0  0
   50.6297   97.7591   26.2443 C   0  0  0  0  0  0
   51.1396   98.2388   27.4516 C   0  0  0  0  0  0
   49.2430  100.7030   24.8110 N   0  0  0  0  0  0
   53.7069  103.9122   30.4836 H   0  0  0  0  0  0
   54.7671  103.4853   32.6687 H   0  0  0  0  0  0
   54.5601  101.3019   33.7682 H   0  0  0  0  0  0
   53.2939   99.4725   32.7182 H   0  0  0  0  0  0
   51.4127   98.3012   31.7262 H   0  0  0  0  0  0
   50.8121   97.8539   30.1645 H   0  0  0  0  0  0
   52.5146   97.6271   30.5453 H   0  0  0  0  0  0
   50.7211   96.7145   25.9828 H   0  0  0  0  0  0
   51.6442   97.5666   28.1245 H   0  0  0  0  0  0
   48.9623  100.3457   23.8990 H   0  0  0  0  0  0
   49.1812  101.6848   25.0315 H   0  0  0  0  0  0
  1  5  2  0  0  0
  1  2  1  0  0  0
  1 18  1  0  0  0
  2  3  2  0  0  0
  2 19  1  0  0  0
  3  4  1  0  0  0
  3 20  1  0  0  0
  4  6  2  0  0  0
  4 21  1  0  0  0
  5  9  1  0  0  0
  5  6  1  0  0  0
  6  7  1  0  0  0
  7  8  2  0  0  0
  7 10  1  0  0  0
  8  9  1  0  0  0
  8 11  1  0  0  0
 10 22  1  0  0  0
 10 23  1  0  0  0
 10 24  1  0  0  0
 11 12  2  0  0  0
 11 16  1  0  0  0
 12 13  1  0  0  0
 13 14  2  0  0  0
 13 17  1  0  0  0
 14 15  1  0  0  0
 15 16  2  0  0  0
 15 25  1  0  0  0
 16 26  1  0  0  0
 17 27  1  0  0  0
 17 28  1  0  0  0
M  END
> <s_m_entry_id>
28657

> <s_m_entry_name>
dock_pv.818

> <s_m_Source_Path>
/home/csk/Desktop/cluster/DUD-E-result/rock1

> <s_m_Source_File>
dock_pv.maegz

> <i_m_Source_File_Index>
818

> <chembl_id>
CHEMBL1086322

> <chembl_pref_name>
None

> <i_lp_mmshare_version>
53161

> <r_lp_tautomer_probability>
0.999999987636

> <s_lp_Force_Field>
OPLS_2005

> <r_lp_Energy>
3.814409

> <b_lp_Chiralities_Consistent>
1

> <s_lp_Variant>
CHEMBL3231_lig202-1

> <s_i_glide_gridfile>
glide-grid_2etr

> <i_i_glide_lignum>
334

> <i_i_glide_rotatable_bonds>
1

> <r_i_docking_score>
-6.86920899238421

> <r_i_glide_ligand_efficiency>
-0.404071117199071

> <r_i_glide_ligand_efficiency_sa>
-1.03898062398946

> <r_i_glide_ligand_efficiency_ln>
-1.79202365634973

> <r_i_glide_gscore>
-6.86920899238421

> <r_i_glide_lipo>
-1.61063145397826

> <r_i_glide_hbond>
-0.350815876365453

> <r_i_glide_metal>
0

> <r_i_glide_rewards>
-2.71212121167979

> <r_i_glide_evdw>
-33.3708229064941

> <r_i_glide_ecoul>
-4.90215921401978

> <r_i_glide_erotb>
0.208224577066968

> <r_i_glide_esite>
0

> <r_i_glide_emodel>
-53.6618024700749

> <r_i_glide_energy>
-38.2729821205139

> <r_i_glide_einternal>
0.120234504342079

> <i_i_glide_confnum>
2

> <i_i_glide_posenum>
390

> <r_i_glide_eff_state_penalty>
0

> <s_user_duplicate_titles>
CHEMBL3231_lig202

> <i_f3d_flags>
0

> <s_m_subgroup_title>
dock_pv

> <s_m_subgroupid>
dock_pv

> <b_m_subgroup_collapsed>
1

$$$$
CHEMBL3231_lig781
                    3D
 Schrodinger Suite 2021-1.
 43 45  0  0  1  0            999 V2000
   54.0417  103.3788   30.2265 C   0  0  0  0  0  0
   52.7056  102.8804   30.2862 O   0  0  0  0  0  0
   52.5381  101.5913   29.8332 C   0  0  0  0  0  0
   51.8331  101.4310   28.6351 C   0  0  0  0  0  0
   51.5886  100.1631   28.0979 C   0  0  0  0  0  0
   52.0171   99.0414   28.8122 C   0  0  0  0  0  0
   52.6998   99.1804   30.0154 C   0  0  0  0  0  0
   52.9650  100.4512   30.5491 C   0  0  0  0  0  0
   53.6491  100.5501   31.8885 C   0  0  0  0  0  0
   53.1697  101.2424   32.7852 O   0  0  0  0  0  0
   54.7658   99.8008   32.0111 N   0  0  0  0  0  0
   55.5291   99.4525   33.2231 C   0  0  1  0  0  0
   55.4945  100.4518   34.3986 C   0  0  0  0  0  0
   55.3927   97.9823   33.6629 C   0  0  0  0  0  0
   54.1457   97.3283   33.6446 C   0  0  0  0  0  0
   53.0259   97.9627   33.2337 F   0  0  0  0  0  0
   54.0307   95.9974   34.0436 C   0  0  0  0  0  0
   55.1452   95.3072   34.5059 C   0  0  0  0  0  0
   56.3701   95.9558   34.5996 C   0  0  0  0  0  0
   56.4962   97.2884   34.2024 C   0  0  0  0  0  0
   58.0428   98.0365   34.4090 Cl  0  0  0  0  0  0
   50.9107   99.9863   26.7739 C   0  0  0  0  0  0
   50.4403  100.9563   25.8976 C   0  0  0  0  0  0
   49.9414  100.2857   24.8114 N   0  0  0  0  0  0
   50.0418   98.9622   24.9275 N   0  0  0  0  0  0
   50.6128   98.7861   26.0954 C   0  0  0  0  0  0
   54.0411  104.4291   30.5261 H   0  0  0  0  0  0
   54.7274  102.8527   30.8922 H   0  0  0  0  0  0
   54.4427  103.3274   29.2109 H   0  0  0  0  0  0
   51.5010  102.3113   28.1093 H   0  0  0  0  0  0
   51.8402   98.0450   28.4364 H   0  0  0  0  0  0
   53.0046   98.2897   30.5445 H   0  0  0  0  0  0
   55.1160   99.3743   31.1662 H   0  0  0  0  0  0
   56.5345   99.5324   32.8070 H   0  0  0  0  0  0
   56.2834  100.2434   35.1224 H   0  0  0  0  0  0
   55.6409  101.4769   34.0508 H   0  0  0  0  0  0
   54.5401  100.4082   34.9288 H   0  0  0  0  0  0
   53.0749   95.4991   33.9899 H   0  0  0  0  0  0
   55.0649   94.2763   34.8182 H   0  0  0  0  0  0
   57.2286   95.4229   34.9862 H   0  0  0  0  0  0
   50.4216  102.0358   25.9441 H   0  0  0  0  0  0
   49.5429  100.7131   23.9839 H   0  0  0  0  0  0
   50.8285   97.7905   26.4528 H   0  0  0  0  0  0
  1  2  1  0  0  0
  1 27  1  0  0  0
  1 28  1  0  0  0
  1 29  1  0  0  0
  2  3  1  0  0  0
  3  4  2  0  0  0
  3  8  1  0  0  0
  4  5  1  0  0  0
  4 30  1  0  0  0
  5  6  2  0  0  0
  5 22  1  0  0  0
  6  7  1  0  0  0
  6 31  1  0  0  0
  7  8  2  0  0  0
  7 32  1  0  0  0
  8  9  1  0  0  0
  9 10  2  0  0  0
  9 11  1  0  0  0
 11 12  1  0  0  0
 11 33  1  0  0  0
 12 13  1  0  0  0
 12 14  1  0  0  0
 12 34  1  0  0  0
 13 35  1  0  0  0
 13 36  1  0  0  0
 13 37  1  0  0  0
 14 15  2  0  0  0
 14 20  1  0  0  0
 15 16  1  0  0  0
 15 17  1  0  0  0
 17 18  2  0  0  0
 17 38  1  0  0  0
 18 19  1  0  0  0
 18 39  1  0  0  0
 19 20  2  0  0  0
 19 40  1  0  0  0
 20 21  1  0  0  0
 22 23  2  0  0  0
 22 26  1  0  0  0
 23 24  1  0  0  0
 23 41  1  0  0  0
 24 25  1  0  0  0
 24 42  1  0  0  0
 25 26  2  0  0  0
 26 43  1  0  0  0
M  END
> <s_m_entry_id>
28658

> <s_m_entry_name>
dock_pv.819

> <s_m_Source_Path>
/home/csk/Desktop/cluster/DUD-E-result/rock1

> <s_m_Source_File>
dock_pv.maegz

> <i_m_Source_File_Index>
819

> <chembl_id>
CHEMBL3908187

> <chembl_pref_name>
None

> <i_lp_mmshare_version>
53161

> <r_lp_tautomer_probability>
0.5

> <s_lp_Force_Field>
OPLS_2005

> <r_lp_Energy>
24.478454

> <b_lp_Chiralities_Consistent>
1

> <s_lp_Variant>
CHEMBL3231_lig781-2

> <s_i_glide_gridfile>
glide-grid_2etr

> <i_i_glide_lignum>
1105

> <i_i_glide_rotatable_bonds>
6

> <r_i_docking_score>
-6.86728384137696

> <r_i_glide_ligand_efficiency>
-0.264126301591421

> <r_i_glide_ligand_efficiency_sa>
-0.782473129177774

> <r_i_glide_ligand_efficiency_ln>
-1.61275907675119

> <r_i_glide_gscore>
-6.86728384137696

> <r_i_glide_lipo>
-1.93168331901637

> <r_i_glide_hbond>
-0.152049876648396

> <r_i_glide_metal>
0

> <r_i_glide_rewards>
-2.01591865760396

> <r_i_glide_evdw>
-41.8220481872559

> <r_i_glide_ecoul>
-6.48158693313599

> <r_i_glide_erotb>
0.387322339666396

> <r_i_glide_esite>
-0.0916138784414398

> <r_i_glide_emodel>
-63.5580371181076

> <r_i_glide_energy>
-48.3036351203918

> <r_i_glide_einternal>
10.8782520294189

> <i_i_glide_confnum>
1

> <i_i_glide_posenum>
129

> <r_i_glide_eff_state_penalty>
0

> <s_user_duplicate_titles>
CHEMBL3231_lig781

> <i_f3d_flags>
0

> <s_m_subgroup_title>
dock_pv

> <s_m_subgroupid>
dock_pv

> <b_m_subgroup_collapsed>
1

$$$$
CHEMBL3231_lig1303
                    3D
 Schrodinger Suite 2021-1.
 29 30  0  0  1  0            999 V2000
   50.0465   97.9033   26.0110 S   0  0  0  0  0  0
   50.8557  103.1032   30.1457 O   0  0  0  0  0  0
   52.7507  103.9009   32.2706 O   0  0  0  0  0  0
   54.0430  103.9028   30.3669 O   0  0  0  0  0  0
   52.5477  101.5576   29.9235 N   0  0  0  0  0  0
   52.4734   98.7893   30.6140 N   0  0  0  0  0  0
   49.8174   99.3128   25.0500 N   0  0  0  0  0  0
   51.9233  100.6273   29.0721 C   0  0  0  0  0  0
   51.8959   99.2544   29.4063 C   0  0  0  0  0  0
   50.8134  100.1810   26.9637 C   0  0  0  0  0  0
   50.7812   98.8156   27.3095 C   0  0  0  0  0  0
   51.3757  101.0894   27.8676 C   0  0  0  0  0  0
   51.2862   98.3473   28.5260 C   0  0  0  0  0  0
   50.2341  100.3753   25.6842 C   0  0  0  0  0  0
   52.0131  102.7210   30.3511 C   0  0  0  0  0  0
   52.9635  103.5282   31.1187 C   0  0  0  0  0  0
   53.9347   98.7457   30.6024 C   0  0  0  0  0  0
   51.8442   97.6568   31.2919 C   0  0  0  0  0  0
   54.6386  104.5190   30.8177 H   0  0  0  0  0  0
   53.4776  101.3223   30.2396 H   0  0  0  0  0  0
   51.4090  102.1410   27.6211 H   0  0  0  0  0  0
   51.2427   97.2926   28.7544 H   0  0  0  0  0  0
   50.1290  101.3380   25.2089 H   0  0  0  0  0  0
   54.3233   98.6406   31.6161 H   0  0  0  0  0  0
   54.2937   97.9037   30.0097 H   0  0  0  0  0  0
   54.3776   99.6476   30.1811 H   0  0  0  0  0  0
   52.1826   97.5988   32.3279 H   0  0  0  0  0  0
   50.7594   97.7690   31.3119 H   0  0  0  0  0  0
   52.0746   96.7078   30.8046 H   0  0  0  0  0  0
  1  7  1  0  0  0
  1 11  1  0  0  0
  2 15  2  0  0  0
  3 16  2  0  0  0
  4 16  1  0  0  0
  4 19  1  0  0  0
  5  8  1  0  0  0
  5 15  1  0  0  0
  5 20  1  0  0  0
  6  9  1  0  0  0
  6 17  1  0  0  0
  6 18  1  0  0  0
  7 14  2  0  0  0
  8  9  1  0  0  0
  8 12  2  0  0  0
  9 13  2  0  0  0
 10 11  2  0  0  0
 10 12  1  0  0  0
 10 14  1  0  0  0
 11 13  1  0  0  0
 12 21  1  0  0  0
 13 22  1  0  0  0
 14 23  1  0  0  0
 15 16  1  0  0  0
 17 24  1  0  0  0
 17 25  1  0  0  0
 17 26  1  0  0  0
 18 27  1  0  0  0
 18 28  1  0  0  0
 18 29  1  0  0  0
M  END
> <s_m_entry_id>
28659

> <s_m_entry_name>
dock_pv.820

> <s_m_Source_Path>
/home/csk/Desktop/cluster/DUD-E-result/rock1

> <s_m_Source_File>
dock_pv.maegz

> <i_m_Source_File_Index>
820

> <chembl_id>
CHEMBL1997023

> <chembl_pref_name>
None

> <i_lp_mmshare_version>
53161

> <r_lp_tautomer_probability>
1

> <s_lp_Force_Field>
OPLS_2005

> <r_lp_Energy>
21.691036

> <b_lp_Chiralities_Consistent>
1

> <s_lp_Variant>
CHEMBL3231_lig1303-1

> <s_i_glide_gridfile>
glide-grid_2etr

> <i_i_glide_lignum>
1813

> <i_i_glide_rotatable_bonds>
5

> <r_i_docking_score>
-6.86348416261522

> <r_i_glide_ligand_efficiency>
-0.381304675700845

> <r_i_glide_ligand_efficiency_sa>
-0.999300946451821

> <r_i_glide_ligand_efficiency_ln>
-1.76422321303475

> <r_i_glide_gscore>
-6.86348416261522

> <r_i_glide_lipo>
-2.18452703993063

> <r_i_glide_hbond>
-0.0701419866958121

> <r_i_glide_metal>
0

> <r_i_glide_rewards>
-2.07984742541382

> <r_i_glide_evdw>
-37.2572174072266

> <r_i_glide_ecoul>
-8.86680126190186

> <r_i_glide_erotb>
0.758456261679398

> <r_i_glide_esite>
-0.0945429126077468

> <r_i_glide_emodel>
-62.2114973974704

> <r_i_glide_energy>
-46.1240186691284

> <r_i_glide_einternal>
6.52379179000854

> <i_i_glide_confnum>
23

> <i_i_glide_posenum>
396

> <r_i_glide_eff_state_penalty>
0

> <s_user_duplicate_titles>
CHEMBL3231_lig1303

> <i_f3d_flags>
0

> <s_m_subgroup_title>
dock_pv

> <s_m_subgroupid>
dock_pv

> <b_m_subgroup_collapsed>
1

$$$$
CHEMBL3231_lig694
                    3D
 Schrodinger Suite 2021-1.
 53 55  0  0  1  0            999 V2000
   52.6772  102.7064   29.2332 C   0  0  0  0  0  0
   52.1071  101.5712   28.5826 O   0  0  0  0  0  0
   52.0366  100.3598   29.2529 C   0  0  0  0  0  0
   52.6093  100.1663   30.5237 C   0  0  0  0  0  0
   52.5009   98.9449   31.2064 C   0  0  0  0  0  0
   51.7923   97.9065   30.6010 C   0  0  0  0  0  0
   51.2430   98.0710   29.3331 C   0  0  0  0  0  0
   51.3742   99.2795   28.6347 C   0  0  0  0  0  0
   50.8081   99.3425   27.2430 C   0  0  0  0  0  0
   50.5287   98.2682   26.3737 C   0  0  0  0  0  0
   50.0431   98.6342   25.2107 N   0  0  0  0  0  0
   49.9949   99.9635   25.2828 N   0  0  0  0  0  0
   50.4411  100.4477   26.4832 C   0  0  0  0  0  0
   53.1506   98.7313   32.5536 C   0  0  0  0  0  0
   53.5269   97.6156   32.9122 O   0  0  0  0  0  0
   53.2582   99.8346   33.3127 N   0  0  0  0  0  0
   53.8318   99.9762   34.6599 C   0  0  1  0  0  0
   53.6969  101.4510   35.1478 C   0  0  0  0  0  0
   52.2575  101.9706   35.0821 C   0  0  0  0  0  0
   51.4023  101.7966   36.1738 C   0  0  0  0  0  0
   50.0683  102.1857   36.0828 C   0  0  0  0  0  0
   49.5914  102.7455   34.9026 C   0  0  0  0  0  0
   48.2908  103.1026   34.8112 F   0  0  0  0  0  0
   50.4422  102.9358   33.8165 C   0  0  0  0  0  0
   51.7802  102.5639   33.9091 C   0  0  0  0  0  0
   53.2401   98.9867   35.7089 C   0  0  0  0  0  0
   52.0436   98.7028   35.6113 O   0  0  0  0  0  0
   54.0245   98.5091   36.7111 N   0  0  0  0  0  0
   53.5165   97.5388   37.6862 C   0  0  0  0  0  0
   55.4189   98.8878   36.9588 C   0  0  0  0  0  0
   52.5001  103.6035   28.6424 H   0  0  0  0  0  0
   52.2233  102.8859   30.2092 H   0  0  0  0  0  0
   53.7553  102.5944   29.3553 H   0  0  0  0  0  0
   53.1744  100.9659   30.9777 H   0  0  0  0  0  0
   51.6877   96.9512   31.0980 H   0  0  0  0  0  0
   50.7261   97.2317   28.8936 H   0  0  0  0  0  0
   50.6918   97.2233   26.5925 H   0  0  0  0  0  0
   49.6550  100.5267   24.5147 H   0  0  0  0  0  0
   50.4583  101.5087   26.6847 H   0  0  0  0  0  0
   52.8309  100.6719   32.9555 H   0  0  0  0  0  0
   54.8855   99.7390   34.5154 H   0  0  0  0  0  0
   54.3287  102.0943   34.5319 H   0  0  0  0  0  0
   54.0856  101.5657   36.1613 H   0  0  0  0  0  0
   51.7614  101.3247   37.0779 H   0  0  0  0  0  0
   49.3986  102.0377   36.9166 H   0  0  0  0  0  0
   50.0600  103.3530   32.9001 H   0  0  0  0  0  0
   52.4350  102.7090   33.0613 H   0  0  0  0  0  0
   53.5347   97.9659   38.6897 H   0  0  0  0  0  0
   52.4931   97.2215   37.4861 H   0  0  0  0  0  0
   54.1400   96.6450   37.6865 H   0  0  0  0  0  0
   56.0773   98.0434   36.7527 H   0  0  0  0  0  0
   55.7695   99.7383   36.3745 H   0  0  0  0  0  0
   55.5484   99.1611   38.0066 H   0  0  0  0  0  0
  1  2  1  0  0  0
  1 31  1  0  0  0
  1 32  1  0  0  0
  1 33  1  0  0  0
  2  3  1  0  0  0
  3  4  2  0  0  0
  3  8  1  0  0  0
  4  5  1  0  0  0
  4 34  1  0  0  0
  5  6  2  0  0  0
  5 14  1  0  0  0
  6  7  1  0  0  0
  6 35  1  0  0  0
  7  8  2  0  0  0
  7 36  1  0  0  0
  8  9  1  0  0  0
  9 10  1  0  0  0
  9 13  2  0  0  0
 10 11  2  0  0  0
 10 37  1  0  0  0
 11 12  1  0  0  0
 12 13  1  0  0  0
 12 38  1  0  0  0
 13 39  1  0  0  0
 14 15  2  0  0  0
 14 16  1  0  0  0
 16 17  1  0  0  0
 16 40  1  0  0  0
 17 18  1  0  0  0
 17 26  1  0  0  0
 17 41  1  0  0  0
 18 19  1  0  0  0
 18 42  1  0  0  0
 18 43  1  0  0  0
 19 20  2  0  0  0
 19 25  1  0  0  0
 20 21  1  0  0  0
 20 44  1  0  0  0
 21 22  2  0  0  0
 21 45  1  0  0  0
 22 23  1  0  0  0
 22 24  1  0  0  0
 24 25  2  0  0  0
 24 46  1  0  0  0
 25 47  1  0  0  0
 26 27  2  0  0  0
 26 28  1  0  0  0
 28 29  1  0  0  0
 28 30  1  0  0  0
 29 48  1  0  0  0
 29 49  1  0  0  0
 29 50  1  0  0  0
 30 51  1  0  0  0
 30 52  1  0  0  0
 30 53  1  0  0  0
M  END
> <s_m_entry_id>
28660

> <s_m_entry_name>
dock_pv.821

> <s_m_Source_Path>
/home/csk/Desktop/cluster/DUD-E-result/rock1

> <s_m_Source_File>
dock_pv.maegz

> <i_m_Source_File_Index>
821

> <chembl_id>
CHEMBL3903654

> <chembl_pref_name>
None

> <i_lp_mmshare_version>
53161

> <r_lp_tautomer_probability>
0.5

> <s_lp_Force_Field>
OPLS_2005

> <r_lp_Energy>
26.734969

> <b_lp_Chiralities_Consistent>
1

> <s_lp_Variant>
CHEMBL3231_lig694-1

> <s_i_glide_gridfile>
glide-grid_2etr

> <i_i_glide_lignum>
989

> <i_i_glide_rotatable_bonds>
9

> <r_i_docking_score>
-6.86261964965235

> <r_i_glide_ligand_efficiency>
-0.228753988321745

> <r_i_glide_ligand_efficiency_sa>
-0.710791827574067

> <r_i_glide_ligand_efficiency_ln>
-1.55926195863104

> <r_i_glide_gscore>
-6.86261964965235

> <r_i_glide_lipo>
-2.37303495389382

> <r_i_glide_hbond>
-0.208873179173291

> <r_i_glide_metal>
0

> <r_i_glide_rewards>
-2.01535548641133

> <r_i_glide_evdw>
-43.3495903015137

> <r_i_glide_ecoul>
-5.17742300033569

> <r_i_glide_erotb>
0.701649531223609

> <r_i_glide_esite>
-0.0229125962714819

> <r_i_glide_emodel>
-68.28766702678

> <r_i_glide_energy>
-48.5270133018494

> <r_i_glide_einternal>
5.00685977935791

> <i_i_glide_confnum>
68

> <i_i_glide_posenum>
35

> <r_i_glide_eff_state_penalty>
0

> <s_user_duplicate_titles>
CHEMBL3231_lig694

> <i_f3d_flags>
0

> <s_m_subgroup_title>
dock_pv

> <s_m_subgroupid>
dock_pv

> <b_m_subgroup_collapsed>
1

$$$$
CHEMBL3231_lig167
                    3D
 Schrodinger Suite 2021-1.
 47 49  0  0  1  0            999 V2000
   51.0685  102.3527   28.5429 C   0  0  0  0  0  0
   51.2247  100.9624   28.5292 C   0  0  0  0  0  0
   51.7285  100.3427   29.6309 N   0  0  0  0  0  0
   52.0437  101.0682   30.7438 C   0  0  0  0  0  0
   51.8565  102.4755   30.7410 C   0  0  0  0  0  0
   51.3942  103.1034   29.6237 N   0  0  0  0  0  0
   52.0239  103.3217   31.8628 N   0  0  0  0  0  0
   50.8367  100.0884   27.3706 C   0  0  0  0  0  0
   50.4319  100.6336   26.1386 C   0  0  0  0  0  0
   50.0432   99.7861   25.0996 C   0  0  0  0  0  0
   50.0431   98.4356   25.2111 N   0  0  0  0  0  0
   50.4432   97.9035   26.3891 C   0  0  0  0  0  0
   50.8436   98.6835   27.4742 C   0  0  0  0  0  0
   52.6228  100.3458   31.8075 N   0  0  0  0  0  0
   53.9984  100.7271   32.1541 C   0  0  0  0  0  0
   54.8597   99.7793   32.9993 C   0  0  0  0  0  0
   52.1408   98.9745   32.0447 C   0  0  0  0  0  0
   55.2497   98.4850   32.2828 C   0  0  0  0  0  0
   52.9505   97.7511   31.5634 C   0  0  0  0  0  0
   54.2228   97.4540   32.2173 N   0  0  1  0  0  0
   54.7818   96.1530   31.8715 C   0  0  0  0  0  0
   51.5825  102.8771   33.1825 C   0  0  0  0  0  0
   53.1271  104.2769   31.8053 C   0  0  0  0  0  0
   50.6686  102.9001   27.7045 H   0  0  0  0  0  0
   50.4039  101.6980   25.9685 H   0  0  0  0  0  0
   49.7211  100.1888   24.1492 H   0  0  0  0  0  0
   50.4411   96.8247   26.4548 H   0  0  0  0  0  0
   51.1449   98.1892   28.3865 H   0  0  0  0  0  0
   54.0698  101.7406   32.5369 H   0  0  0  0  0  0
   54.5236  100.7278   31.1969 H   0  0  0  0  0  0
   54.3241   99.5350   33.9173 H   0  0  0  0  0  0
   55.7698  100.3052   33.2907 H   0  0  0  0  0  0
   51.0907   98.8639   31.7701 H   0  0  0  0  0  0
   52.0930   98.8535   33.1268 H   0  0  0  0  0  0
   55.5861   98.6942   31.2653 H   0  0  0  0  0  0
   56.1190   98.0893   32.8115 H   0  0  0  0  0  0
   53.1553   97.9596   30.5122 H   0  0  0  0  0  0
   52.3020   96.8752   31.5220 H   0  0  0  0  0  0
   54.0442   95.3678   32.0248 H   0  0  0  0  0  0
   55.1030   96.1300   30.8288 H   0  0  0  0  0  0
   55.6431   95.9112   32.4964 H   0  0  0  0  0  0
   51.3105  103.7366   33.7951 H   0  0  0  0  0  0
   50.6997  102.2409   33.1071 H   0  0  0  0  0  0
   52.3566  102.3214   33.7094 H   0  0  0  0  0  0
   53.2480  104.7009   30.8108 H   0  0  0  0  0  0
   52.9688  105.0946   32.5072 H   0  0  0  0  0  0
   54.0755  103.8029   32.0539 H   0  0  0  0  0  0
  1  6  1  0  0  0
  1  2  2  0  0  0
  1 24  1  0  0  0
  2  8  1  0  0  0
  2  3  1  0  0  0
  3  4  2  0  0  0
  4 14  1  0  0  0
  4  5  1  0  0  0
  5  7  1  0  0  0
  5  6  2  0  0  0
  7 22  1  0  0  0
  7 23  1  0  0  0
  8 13  1  0  0  0
  8  9  2  0  0  0
  9 10  1  0  0  0
  9 25  1  0  0  0
 10 11  2  0  0  0
 10 26  1  0  0  0
 11 12  1  0  0  0
 12 13  2  0  0  0
 12 27  1  0  0  0
 13 28  1  0  0  0
 14 15  1  0  0  0
 14 17  1  0  0  0
 15 16  1  0  0  0
 15 29  1  0  0  0
 15 30  1  0  0  0
 16 18  1  0  0  0
 16 31  1  0  0  0
 16 32  1  0  0  0
 17 19  1  0  0  0
 17 33  1  0  0  0
 17 34  1  0  0  0
 18 20  1  0  0  0
 18 35  1  0  0  0
 18 36  1  0  0  0
 19 20  1  0  0  0
 19 37  1  0  0  0
 19 38  1  0  0  0
 20 21  1  0  0  0
 21 39  1  0  0  0
 21 40  1  0  0  0
 21 41  1  0  0  0
 22 42  1  0  0  0
 22 43  1  0  0  0
 22 44  1  0  0  0
 23 45  1  0  0  0
 23 46  1  0  0  0
 23 47  1  0  0  0
M  END
> <s_m_entry_id>
28661

> <s_m_entry_name>
dock_pv.822

> <s_m_Source_Path>
/home/csk/Desktop/cluster/DUD-E-result/rock1

> <s_m_Source_File>
dock_pv.maegz

> <i_m_Source_File_Index>
822

> <chembl_id>
CHEMBL601834

> <chembl_pref_name>
None

> <i_lp_mmshare_version>
53161

> <r_lp_tautomer_probability>
1

> <s_lp_Force_Field>
OPLS_2005

> <r_lp_Energy>
45.019688

> <b_lp_Chiralities_Consistent>
1

> <s_lp_Variant>
CHEMBL3231_lig167-1

> <s_i_glide_gridfile>
glide-grid_2etr

> <i_i_glide_lignum>
294

> <i_i_glide_rotatable_bonds>
3

> <r_i_docking_score>
-6.86253792372888

> <r_i_glide_ligand_efficiency>
-0.298371214075169

> <r_i_glide_ligand_efficiency_sa>
-0.848528042559744

> <r_i_glide_ligand_efficiency_ln>
-1.65942389601119

> <r_i_glide_gscore>
-6.86253792372888

> <r_i_glide_lipo>
-2.16125623447092

> <r_i_glide_hbond>
-0.173094760032014

> <r_i_glide_metal>
0

> <r_i_glide_rewards>
-2.4563074036592

> <r_i_glide_evdw>
-38.0534324645996

> <r_i_glide_ecoul>
-3.22114038467407

> <r_i_glide_erotb>
0.380308005021057

> <r_i_glide_esite>
-0.0663448496567088

> <r_i_glide_emodel>
-55.1941430063562

> <r_i_glide_energy>
-41.2745728492737

> <r_i_glide_einternal>
8.17210388183594

> <i_i_glide_confnum>
13

> <i_i_glide_posenum>
112

> <r_i_glide_eff_state_penalty>
0

> <s_user_duplicate_titles>
CHEMBL3231_lig167

> <i_f3d_flags>
0

> <s_m_subgroup_title>
dock_pv

> <s_m_subgroupid>
dock_pv

> <b_m_subgroup_collapsed>
1

$$$$
CHEMBL3231_lig1
                    3D
 Schrodinger Suite 2021-1.
 27 29  0  0  1  0            999 V2000
   50.8838  102.2563   28.5098 N   0  0  0  0  0  0
   51.5093  102.8666   29.5807 N   0  0  0  0  0  0
   52.4178  102.0036   30.0699 N   0  0  0  0  0  0
   52.3649  100.8431   29.3274 C   0  0  0  0  0  0
   51.3973  101.0490   28.3455 C   0  0  0  0  0  0
   53.2383  102.3314   31.1861 C   0  0  0  0  0  0
   53.2645  103.6426   31.6891 C   0  0  0  0  0  0
   54.0528  103.9654   32.7873 C   0  0  0  0  0  0
   54.8433  102.9897   33.3834 C   0  0  0  0  0  0
   54.8410  101.6851   32.8928 C   0  0  0  0  0  0
   54.0404  101.3553   31.7989 C   0  0  0  0  0  0
   50.9427  100.1349   27.2526 C   0  0  0  0  0  0
   50.9897   98.7435   27.4155 C   0  0  0  0  0  0
   50.5250   97.9238   26.3835 C   0  0  0  0  0  0
   50.0434   98.4108   25.2121 N   0  0  0  0  0  0
   50.0263   99.7585   25.0517 C   0  0  0  0  0  0
   50.4517  100.6464   26.0417 C   0  0  0  0  0  0
   55.8549  103.4106   34.7175 Cl  0  0  0  0  0  0
   53.0145  100.0062   29.5382 H   0  0  0  0  0  0
   52.6954  104.4345   31.2292 H   0  0  0  0  0  0
   54.0701  104.9837   33.1509 H   0  0  0  0  0  0
   55.4690  100.9324   33.3485 H   0  0  0  0  0  0
   54.0740  100.3374   31.4409 H   0  0  0  0  0  0
   51.3662   98.3052   28.3293 H   0  0  0  0  0  0
   50.5392   96.8481   26.4865 H   0  0  0  0  0  0
   49.6522  100.1258   24.1061 H   0  0  0  0  0  0
   50.4009  101.7107   25.8671 H   0  0  0  0  0  0
  1  5  1  0  0  0
  1  2  2  0  0  0
  2  3  1  0  0  0
  3  6  1  0  0  0
  3  4  1  0  0  0
  4  5  2  0  0  0
  4 19  1  0  0  0
  5 12  1  0  0  0
  6 11  1  0  0  0
  6  7  2  0  0  0
  7  8  1  0  0  0
  7 20  1  0  0  0
  8  9  2  0  0  0
  8 21  1  0  0  0
  9 10  1  0  0  0
  9 18  1  0  0  0
 10 11  2  0  0  0
 10 22  1  0  0  0
 11 23  1  0  0  0
 12 13  2  0  0  0
 12 17  1  0  0  0
 13 14  1  0  0  0
 13 24  1  0  0  0
 14 15  2  0  0  0
 14 25  1  0  0  0
 15 16  1  0  0  0
 16 17  2  0  0  0
 16 26  1  0  0  0
 17 27  1  0  0  0
M  END
> <s_m_entry_id>
28662

> <s_m_entry_name>
dock_pv.823

> <s_m_Source_Path>
/home/csk/Desktop/cluster/DUD-E-result/rock1

> <s_m_Source_File>
dock_pv.maegz

> <i_m_Source_File_Index>
823

> <chembl_id>
CHEMBL1938953

> <chembl_pref_name>
None

> <i_lp_mmshare_version>
53161

> <r_lp_tautomer_probability>
1

> <s_lp_Force_Field>
OPLS_2005

> <r_lp_Energy>
8.363063

> <b_lp_Chiralities_Consistent>
1

> <s_lp_Variant>
CHEMBL3231_lig1-1

> <s_i_glide_gridfile>
glide-grid_2etr

> <i_i_glide_lignum>
1

> <i_i_glide_rotatable_bonds>
2

> <r_i_docking_score>
-6.86072678444258

> <r_i_glide_ligand_efficiency>
-0.381151488024588

> <r_i_glide_ligand_efficiency_sa>
-0.998899481167957

> <r_i_glide_ligand_efficiency_ln>
-1.76351444319366

> <r_i_glide_gscore>
-6.86072678444258

> <r_i_glide_lipo>
-1.99468061642245

> <r_i_glide_hbond>
-0.186036812611296

> <r_i_glide_metal>
0

> <r_i_glide_rewards>
-2.90401067428333

> <r_i_glide_evdw>
-34.8734931945801

> <r_i_glide_ecoul>
-3.64935159683228

> <r_i_glide_erotb>
0.535175251294729

> <r_i_glide_esite>
-0.0200965331663901

> <r_i_glide_emodel>
-54.876655948669

> <r_i_glide_energy>
-38.5228447914124

> <r_i_glide_einternal>
0.824290812015533

> <i_i_glide_confnum>
4

> <i_i_glide_posenum>
238

> <r_i_glide_eff_state_penalty>
0

> <s_user_duplicate_titles>
CHEMBL3231_lig1

> <i_f3d_flags>
0

> <s_m_subgroup_title>
dock_pv

> <s_m_subgroupid>
dock_pv

> <b_m_subgroup_collapsed>
1

$$$$
CHEMBL3231_lig313
                    3D
 Schrodinger Suite 2021-1.
 50 53  0  0  1  0            999 V2000
   51.0278   98.0946   28.9588 C   0  0  0  0  0  0
   51.2868   99.2819   28.2703 C   0  0  0  0  0  0
   51.9984  100.3243   28.8782 C   0  0  0  0  0  0
   51.4470   97.9030   30.2697 C   0  0  0  0  0  0
   52.1815   98.9135   30.8933 C   0  0  0  0  0  0
   52.4488  100.1239   30.1935 C   0  0  0  0  0  0
   53.1753  100.9422   31.0535 N   0  0  0  0  0  0
   53.4465  100.2473   32.2306 C   0  0  0  0  0  0
   52.7783   99.0343   32.1731 C   0  0  0  0  0  0
   54.1798  100.7633   33.3706 C   0  0  0  0  0  0
   53.8412  101.8420   33.8641 O   0  0  0  0  0  0
   55.1784   99.9866   33.8801 N   0  0  0  0  0  0
   55.7700   98.8075   33.2117 C   0  0  0  0  0  0
   55.2552   97.4232   33.6202 C   0  0  0  0  0  0
   55.6405   96.3244   32.8452 C   0  0  0  0  0  0
   55.1697   95.0316   33.1274 C   0  0  0  0  0  0
   54.2904   94.8585   34.1970 C   0  0  0  0  0  0
   53.9116   95.9409   34.9901 C   0  0  0  0  0  0
   54.3947   97.2182   34.7069 C   0  0  0  0  0  0
   50.7893   99.4193   26.8719 C   0  0  0  0  0  0
   50.4563   98.3893   25.9752 C   0  0  0  0  0  0
   50.0410   98.8229   24.8110 N   0  0  0  0  0  0
   50.0818  100.1502   24.9181 N   0  0  0  0  0  0
   50.5353  100.5721   26.1389 C   0  0  0  0  0  0
   55.5180   93.9029   32.4108 O   0  0  0  0  0  0
   56.5944   93.9913   31.4798 C   0  0  0  0  0  0
   55.8435  100.3440   35.1378 C   0  0  0  0  0  0
   53.6655  102.2705   30.6803 C   0  0  0  0  0  0
   50.4722   97.3018   28.4831 H   0  0  0  0  0  0
   52.2099  101.2383   28.3441 H   0  0  0  0  0  0
   51.2366   96.9767   30.7861 H   0  0  0  0  0  0
   52.7478   98.2967   32.9594 H   0  0  0  0  0  0
   56.8501   98.8192   33.3676 H   0  0  0  0  0  0
   55.6447   98.8990   32.1310 H   0  0  0  0  0  0
   56.3101   96.4920   32.0145 H   0  0  0  0  0  0
   53.9130   93.8719   34.4216 H   0  0  0  0  0  0
   53.2421   95.7876   35.8232 H   0  0  0  0  0  0
   54.0796   98.0456   35.3246 H   0  0  0  0  0  0
   50.5312   97.3306   26.1755 H   0  0  0  0  0  0
   49.7954  100.7520   24.1575 H   0  0  0  0  0  0
   50.6222  101.6230   26.3733 H   0  0  0  0  0  0
   56.8431   92.9959   31.1131 H   0  0  0  0  0  0
   56.3293   94.6055   30.6177 H   0  0  0  0  0  0
   57.4948   94.3981   31.9445 H   0  0  0  0  0  0
   55.3292  101.1361   35.6837 H   0  0  0  0  0  0
   55.9087   99.4800   35.7994 H   0  0  0  0  0  0
   56.8568  100.6870   34.9370 H   0  0  0  0  0  0
   52.8447  102.8578   30.2673 H   0  0  0  0  0  0
   54.0772  102.8090   31.5333 H   0  0  0  0  0  0
   54.4429  102.1669   29.9246 H   0  0  0  0  0  0
  1  2  2  0  0  0
  1  4  1  0  0  0
  1 29  1  0  0  0
  2  3  1  0  0  0
  2 20  1  0  0  0
  3  6  2  0  0  0
  3 30  1  0  0  0
  4  5  2  0  0  0
  4 31  1  0  0  0
  5  9  1  0  0  0
  5  6  1  0  0  0
  6  7  1  0  0  0
  7  8  1  0  0  0
  7 28  1  0  0  0
  8  9  2  0  0  0
  8 10  1  0  0  0
  9 32  1  0  0  0
 10 11  2  0  0  0
 10 12  1  0  0  0
 12 27  1  0  0  0
 12 13  1  0  0  0
 13 14  1  0  0  0
 13 33  1  0  0  0
 13 34  1  0  0  0
 14 15  2  0  0  0
 14 19  1  0  0  0
 15 16  1  0  0  0
 15 35  1  0  0  0
 16 17  2  0  0  0
 16 25  1  0  0  0
 17 18  1  0  0  0
 17 36  1  0  0  0
 18 19  2  0  0  0
 18 37  1  0  0  0
 19 38  1  0  0  0
 20 24  2  0  0  0
 20 21  1  0  0  0
 21 39  1  0  0  0
 21 22  2  0  0  0
 22 23  1  0  0  0
 23 40  1  0  0  0
 23 24  1  0  0  0
 24 41  1  0  0  0
 25 26  1  0  0  0
 26 42  1  0  0  0
 26 43  1  0  0  0
 26 44  1  0  0  0
 27 45  1  0  0  0
 27 46  1  0  0  0
 27 47  1  0  0  0
 28 48  1  0  0  0
 28 49  1  0  0  0
 28 50  1  0  0  0
M  END
> <s_m_entry_id>
28663

> <s_m_entry_name>
dock_pv.824

> <s_m_Source_Path>
/home/csk/Desktop/cluster/DUD-E-result/rock1

> <s_m_Source_File>
dock_pv.maegz

> <i_m_Source_File_Index>
824

> <chembl_id>
CHEMBL1922030

> <chembl_pref_name>
None

> <i_lp_mmshare_version>
53161

> <r_lp_tautomer_probability>
0.5

> <s_lp_Force_Field>
OPLS_2005

> <r_lp_Energy>
30.06601

> <b_lp_Chiralities_Consistent>
1

> <s_lp_Variant>
CHEMBL3231_lig313-1

> <s_i_glide_gridfile>
glide-grid_2etr

> <i_i_glide_lignum>
461

> <i_i_glide_rotatable_bonds>
6

> <r_i_docking_score>
-6.86040776158885

> <r_i_glide_ligand_efficiency>
-0.245014562913887

> <r_i_glide_ligand_efficiency_sa>
-0.74400851886685

> <r_i_glide_ligand_efficiency_ln>
-1.58358354169928

> <r_i_glide_gscore>
-6.86040776158885

> <r_i_glide_lipo>
-2.26410618315028

> <r_i_glide_hbond>
-0.397635024164143

> <r_i_glide_metal>
0

> <r_i_glide_rewards>
-1.55868270123475

> <r_i_glide_evdw>
-45.5907402038574

> <r_i_glide_ecoul>
-6.56328105926514

> <r_i_glide_erotb>
0.68957501882608

> <r_i_glide_esite>
-0.065529702783119

> <r_i_glide_emodel>
-68.5252448580573

> <r_i_glide_energy>
-52.1540212631226

> <r_i_glide_einternal>
12.1661500930786

> <i_i_glide_confnum>
31

> <i_i_glide_posenum>
356

> <r_i_glide_eff_state_penalty>
0

> <s_user_duplicate_titles>
CHEMBL3231_lig313

> <i_f3d_flags>
0

> <s_m_subgroup_title>
dock_pv

> <s_m_subgroupid>
dock_pv

> <b_m_subgroup_collapsed>
1

$$$$
CHEMBL3231_lig269
                    3D
 Schrodinger Suite 2021-1.
 45 48  0  0  1  0            999 V2000
   54.0858   99.5571   32.5188 C   0  0  0  0  0  0
   54.4915  100.8134   32.8473 N   0  0  0  0  0  0
   54.0911  101.8254   32.0438 C   0  0  0  0  0  0
   53.3001  101.7010   30.9528 N   0  0  0  0  0  0
   52.8821  100.4467   30.6153 C   0  0  0  0  0  0
   53.2677   99.3450   31.3981 C   0  0  0  0  0  0
   52.0401  100.3171   29.3709 C   0  0  0  0  0  0
   51.7316   99.0468   28.8471 C   0  0  0  0  0  0
   50.8446  101.3878   27.5090 C   0  0  0  0  0  0
   51.5713  101.4599   28.6964 C   0  0  0  0  0  0
   50.6077  100.1269   26.9497 C   0  0  0  0  0  0
   51.0502   98.9750   27.6305 C   0  0  0  0  0  0
   50.6659   97.9080   26.8393 N   0  0  0  0  0  0
   50.0430   98.3121   25.7158 N   0  0  0  0  0  0
   49.9908   99.6183   25.7698 C   0  0  0  0  0  0
   49.4174  100.3941   24.8110 N   0  0  0  0  0  0
   54.5352  103.1020   32.3636 N   0  0  0  0  0  0
   54.4825   98.4737   33.3107 N   0  0  0  0  0  0
   55.6430   98.3942   34.2454 C   0  0  1  0  0  0
   56.2820   96.9756   34.1949 C   0  0  0  0  0  0
   55.2799   95.8360   34.4305 C   0  0  0  0  0  0
   54.0544   96.0225   33.5356 C   0  0  0  0  0  0
   53.4870   97.4446   33.6739 C   0  0  0  0  0  0
   56.7649   99.4427   34.0983 C   0  0  0  0  0  0
   52.9777   98.3394   31.1470 H   0  0  0  0  0  0
   52.0425   98.1396   29.3331 H   0  0  0  0  0  0
   50.5023  102.2835   27.0120 H   0  0  0  0  0  0
   51.7853  102.4447   29.0880 H   0  0  0  0  0  0
   50.8215   96.9259   27.0155 H   0  0  0  0  0  0
   49.2603  101.3823   24.9551 H   0  0  0  0  0  0
   49.0656  100.0133   23.9349 H   0  0  0  0  0  0
   54.4532  103.8261   31.6638 H   0  0  0  0  0  0
   55.2480  103.1712   33.0730 H   0  0  0  0  0  0
   55.2184   98.5702   35.2353 H   0  0  0  0  0  0
   56.7525   96.8317   33.2192 H   0  0  0  0  0  0
   57.0792   96.8927   34.9347 H   0  0  0  0  0  0
   55.7496   94.8683   34.2439 H   0  0  0  0  0  0
   54.9721   95.8333   35.4768 H   0  0  0  0  0  0
   54.3007   95.8238   32.4913 H   0  0  0  0  0  0
   53.2886   95.2934   33.8009 H   0  0  0  0  0  0
   52.5743   97.5137   33.0811 H   0  0  0  0  0  0
   53.1770   97.6241   34.7048 H   0  0  0  0  0  0
   57.6227   99.2028   34.7263 H   0  0  0  0  0  0
   56.4413  100.4337   34.4114 H   0  0  0  0  0  0
   57.1260   99.5031   33.0716 H   0  0  0  0  0  0
  1  6  1  0  0  0
  1  2  2  0  0  0
  1 18  1  0  0  0
  2  3  1  0  0  0
  3  4  2  0  0  0
  3 17  1  0  0  0
  4  5  1  0  0  0
  5  6  2  0  0  0
  5  7  1  0  0  0
  6 25  1  0  0  0
  7  8  2  0  0  0
  7 10  1  0  0  0
  8 12  1  0  0  0
  8 26  1  0  0  0
  9 11  1  0  0  0
  9 10  2  0  0  0
  9 27  1  0  0  0
 10 28  1  0  0  0
 11 15  1  0  0  0
 11 12  2  0  0  0
 12 13  1  0  0  0
 13 14  1  0  0  0
 13 29  1  0  0  0
 14 15  2  0  0  0
 15 16  1  0  0  0
 16 30  1  0  0  0
 16 31  1  0  0  0
 17 32  1  0  0  0
 17 33  1  0  0  0
 18 19  1  0  0  0
 18 23  1  0  0  0
 19 20  1  0  0  0
 19 24  1  0  0  0
 19 34  1  0  0  0
 20 21  1  0  0  0
 20 35  1  0  0  0
 20 36  1  0  0  0
 21 22  1  0  0  0
 21 37  1  0  0  0
 21 38  1  0  0  0
 22 23  1  0  0  0
 22 39  1  0  0  0
 22 40  1  0  0  0
 23 41  1  0  0  0
 23 42  1  0  0  0
 24 43  1  0  0  0
 24 44  1  0  0  0
 24 45  1  0  0  0
M  END
> <s_m_entry_id>
28664

> <s_m_entry_name>
dock_pv.825

> <s_m_Source_Path>
/home/csk/Desktop/cluster/DUD-E-result/rock1

> <s_m_Source_File>
dock_pv.maegz

> <i_m_Source_File_Index>
825

> <chembl_id>
CHEMBL1765730

> <chembl_pref_name>
None

> <i_lp_mmshare_version>
53161

> <r_lp_tautomer_probability>
0.999999648617923

> <s_lp_Force_Field>
OPLS_2005

> <r_lp_Energy>
15.981293

> <b_lp_Chiralities_Consistent>
1

> <s_lp_Variant>
CHEMBL3231_lig269-1

> <s_i_glide_gridfile>
glide-grid_2etr

> <i_i_glide_lignum>
415

> <i_i_glide_rotatable_bonds>
2

> <r_i_docking_score>
-6.859741495229

> <r_i_glide_ligand_efficiency>
-0.285822562301208

> <r_i_glide_ligand_efficiency_sa>
-0.824454934452773

> <r_i_glide_ligand_efficiency_ln>
-1.64185091283463

> <r_i_glide_gscore>
-6.859741495229

> <r_i_glide_lipo>
-1.88832114118966

> <r_i_glide_hbond>
-0.32

> <r_i_glide_metal>
0

> <r_i_glide_rewards>
-2.28245465151515

> <r_i_glide_evdw>
-40.4294242858887

> <r_i_glide_ecoul>
-4.13751363754272

> <r_i_glide_erotb>
0.357862156708167

> <r_i_glide_esite>
-0.0847295993065124

> <r_i_glide_emodel>
-62.2461812997343

> <r_i_glide_energy>
-44.5669379234314

> <r_i_glide_einternal>
0.653595447540283

> <i_i_glide_confnum>
12

> <i_i_glide_posenum>
279

> <r_i_glide_eff_state_penalty>
0

> <s_user_duplicate_titles>
CHEMBL3231_lig269

> <i_f3d_flags>
0

> <s_m_subgroup_title>
dock_pv

> <s_m_subgroupid>
dock_pv

> <b_m_subgroup_collapsed>
1

$$$$
CHEMBL3231_lig740
                    3D
 Schrodinger Suite 2021-1.
 50 52  0  0  1  0            999 V2000
   51.1099   96.8691   30.0507 C   0  0  0  0  0  0
   51.0353   97.8711   29.0459 O   0  0  0  0  0  0
   51.3617   99.1712   29.3708 C   0  0  0  0  0  0
   51.7532   99.5275   30.6714 C   0  0  0  0  0  0
   52.0425  100.8446   31.0183 C   0  0  0  0  0  0
   51.9840  101.8257   30.0196 C   0  0  0  0  0  0
   51.5904  101.4893   28.7235 C   0  0  0  0  0  0
   51.2543  100.1703   28.3827 C   0  0  0  0  0  0
   50.7487   99.8886   26.9894 C   0  0  0  0  0  0
   50.5752   98.6529   26.3291 C   0  0  0  0  0  0
   50.0434   98.7514   25.1332 N   0  0  0  0  0  0
   49.8905  100.0631   24.9529 N   0  0  0  0  0  0
   50.3089  100.7976   26.0299 C   0  0  0  0  0  0
   52.3510  101.1685   32.4596 C   0  0  0  0  0  0
   51.8623  100.5028   33.3754 O   0  0  0  0  0  0
   53.1689  102.2087   32.6639 N   0  0  0  0  0  0
   53.6197  102.7489   33.9602 C   0  0  2  0  0  0
   52.4786  103.1586   34.9240 C   0  0  0  0  0  0
   51.2271  103.5791   34.4410 C   0  0  0  0  0  0
   50.2119  103.9562   35.3200 C   0  0  0  0  0  0
   50.4345  103.9307   36.6956 C   0  0  0  0  0  0
   51.6680  103.5085   37.1880 C   0  0  0  0  0  0
   52.6752  103.0998   36.3124 C   0  0  0  0  0  0
   53.8492  102.6643   36.8254 F   0  0  0  0  0  0
   54.6316  103.9211   33.7065 C   0  0  0  0  0  0
   53.9674  105.1027   32.9981 C   0  0  0  0  0  0
   55.3656  104.4112   34.9681 C   0  0  0  0  0  0
   55.6424  103.5031   32.8111 O   0  0  0  0  0  0
   50.8431   95.9049   29.6221 H   0  0  0  0  0  0
   52.1142   96.7697   30.4584 H   0  0  0  0  0  0
   50.4366   97.1023   30.8764 H   0  0  0  0  0  0
   51.8162   98.7824   31.4508 H   0  0  0  0  0  0
   52.2082  102.8593   30.2439 H   0  0  0  0  0  0
   51.5271  102.2751   27.9875 H   0  0  0  0  0  0
   50.8213   97.6777   26.7234 H   0  0  0  0  0  0
   49.4932  100.4391   24.0998 H   0  0  0  0  0  0
   50.2287  101.8754   26.0264 H   0  0  0  0  0  0
   53.7507  102.4828   31.8846 H   0  0  0  0  0  0
   54.1729  101.9347   34.4357 H   0  0  0  0  0  0
   51.0427  103.6228   33.3778 H   0  0  0  0  0  0
   49.2537  104.2756   34.9366 H   0  0  0  0  0  0
   49.6526  104.2319   37.3777 H   0  0  0  0  0  0
   51.8504  103.5012   38.2524 H   0  0  0  0  0  0
   53.1621  105.5025   33.6118 H   0  0  0  0  0  0
   54.6645  105.9208   32.8173 H   0  0  0  0  0  0
   53.5393  104.8269   32.0343 H   0  0  0  0  0  0
   54.6787  104.8162   35.7107 H   0  0  0  0  0  0
   55.9443  103.6139   35.4361 H   0  0  0  0  0  0
   56.0429  105.2210   34.7139 H   0  0  0  0  0  0
   55.8489  104.2408   32.2225 H   0  0  0  0  0  0
  1  2  1  0  0  0
  1 29  1  0  0  0
  1 30  1  0  0  0
  1 31  1  0  0  0
  2  3  1  0  0  0
  3  4  2  0  0  0
  3  8  1  0  0  0
  4  5  1  0  0  0
  4 32  1  0  0  0
  5  6  2  0  0  0
  5 14  1  0  0  0
  6  7  1  0  0  0
  6 33  1  0  0  0
  7  8  2  0  0  0
  7 34  1  0  0  0
  8  9  1  0  0  0
  9 10  1  0  0  0
  9 13  2  0  0  0
 10 11  2  0  0  0
 10 35  1  0  0  0
 11 12  1  0  0  0
 12 13  1  0  0  0
 12 36  1  0  0  0
 13 37  1  0  0  0
 14 15  2  0  0  0
 14 16  1  0  0  0
 16 17  1  0  0  0
 16 38  1  0  0  0
 17 18  1  0  0  0
 17 25  1  0  0  0
 17 39  1  0  0  0
 18 19  2  0  0  0
 18 23  1  0  0  0
 19 20  1  0  0  0
 19 40  1  0  0  0
 20 21  2  0  0  0
 20 41  1  0  0  0
 21 22  1  0  0  0
 21 42  1  0  0  0
 22 23  2  0  0  0
 22 43  1  0  0  0
 23 24  1  0  0  0
 25 26  1  0  0  0
 25 27  1  0  0  0
 25 28  1  0  0  0
 26 44  1  0  0  0
 26 45  1  0  0  0
 26 46  1  0  0  0
 27 47  1  0  0  0
 27 48  1  0  0  0
 27 49  1  0  0  0
 28 50  1  0  0  0
M  END
> <s_m_entry_id>
28665

> <s_m_entry_name>
dock_pv.826

> <s_m_Source_Path>
/home/csk/Desktop/cluster/DUD-E-result/rock1

> <s_m_Source_File>
dock_pv.maegz

> <i_m_Source_File_Index>
826

> <chembl_id>
CHEMBL3962377

> <chembl_pref_name>
None

> <i_lp_mmshare_version>
53161

> <r_lp_tautomer_probability>
0.5

> <s_lp_Force_Field>
OPLS_2005

> <r_lp_Energy>
25.065333

> <b_lp_Chiralities_Consistent>
1

> <s_lp_Variant>
CHEMBL3231_lig740-1

> <s_i_glide_gridfile>
glide-grid_2etr

> <i_i_glide_lignum>
1053

> <i_i_glide_rotatable_bonds>
8

> <r_i_docking_score>
-6.85920262212349

> <r_i_glide_ligand_efficiency>
-0.244971522218696

> <r_i_glide_ligand_efficiency_sa>
-0.743877821966635

> <r_i_glide_ligand_efficiency_ln>
-1.58330536012624

> <r_i_glide_gscore>
-6.85920262212349

> <r_i_glide_lipo>
-1.93533737444166

> <r_i_glide_hbond>
-0.510827973337959

> <r_i_glide_metal>
0

> <r_i_glide_rewards>
-1.94991368463164

> <r_i_glide_evdw>
-39.2540092468262

> <r_i_glide_ecoul>
-6.25571584701538

> <r_i_glide_erotb>
0.462639497467991

> <r_i_glide_esite>
-0.0247052477866048

> <r_i_glide_emodel>
-60.6264031491056

> <r_i_glide_energy>
-45.5097250938416

> <r_i_glide_einternal>
3.48832106590271

> <i_i_glide_confnum>
13

> <i_i_glide_posenum>
160

> <r_i_glide_eff_state_penalty>
0

> <s_user_duplicate_titles>
CHEMBL3231_lig740

> <i_f3d_flags>
0

> <s_m_subgroup_title>
dock_pv

> <s_m_subgroupid>
dock_pv

> <b_m_subgroup_collapsed>
1

$$$$
CHEMBL3231_lig896
                    3D
 Schrodinger Suite 2021-1.
 56 60  0  0  1  0            999 V2000
   56.2149  100.2891   35.5513 C   0  0  0  0  0  0
   55.4492   99.2485   34.6727 C   0  0  1  0  0  0
   55.9965   97.9386   34.7518 O   0  0  0  0  0  0
   53.1564   98.9517   32.6607 C   0  0  1  0  0  0
   53.0684   98.2977   34.0533 C   0  0  0  0  0  0
   53.9779   98.9581   35.1081 C   0  0  0  0  0  0
   55.6403   99.4576   33.1251 C   0  0  0  0  0  0
   54.6214   98.7418   32.2000 C   0  0  0  0  0  0
   52.2030   98.2704   31.7637 N   0  0  0  0  0  0
   52.8184  100.4017   32.7472 N   0  0  0  0  0  0
   52.3374  101.1660   31.7321 C   0  0  0  0  0  0
   51.9322   98.9476   30.5992 C   0  0  0  0  0  0
   52.0442  100.3366   30.5861 C   0  0  0  0  0  0
   51.6427  100.9610   29.0188 S   0  0  0  0  0  0
   51.2615   99.3693   28.4084 C   0  0  0  0  0  0
   51.4806   98.4089   29.3945 C   0  0  0  0  0  0
   52.1784  102.3767   31.8711 O   0  0  0  0  0  0
   50.7517   99.1472   27.0536 C   0  0  0  0  0  0
   50.5293   97.9012   26.4446 C   0  0  0  0  0  0
   50.0444   97.9876   25.2311 N   0  0  0  0  0  0
   49.9609   99.2970   25.0121 N   0  0  0  0  0  0
   50.3547  100.0591   26.0782 C   0  0  0  0  0  0
   50.2941  101.5580   26.0109 C   0  0  0  0  0  0
   55.6329  101.7377   35.3950 C   0  0  0  0  0  0
   54.6804  102.2805   36.4833 C   0  0  0  0  0  0
   55.1143  101.9095   37.9038 C   0  0  0  0  0  0
   55.2579  100.3924   38.0342 C   0  0  0  0  0  0
   56.2857   99.8146   37.0431 C   0  0  0  0  0  0
   57.2432  100.3099   35.1894 H   0  0  0  0  0  0
   56.7671   97.8970   34.1780 H   0  0  0  0  0  0
   52.0444   98.3040   34.4213 H   0  0  0  0  0  0
   53.3744   97.2514   33.9890 H   0  0  0  0  0  0
   53.5132   99.9016   35.3851 H   0  0  0  0  0  0
   53.9475   98.3834   36.0348 H   0  0  0  0  0  0
   55.5647  100.5172   32.8901 H   0  0  0  0  0  0
   56.6633   99.2378   32.8111 H   0  0  0  0  0  0
   54.8699   97.6793   32.2149 H   0  0  0  0  0  0
   54.7655   99.0763   31.1713 H   0  0  0  0  0  0
   52.1953   97.2607   31.8310 H   0  0  0  0  0  0
   53.1476  100.9097   33.5528 H   0  0  0  0  0  0
   51.2924   97.3545   29.2541 H   0  0  0  0  0  0
   50.7210   96.9381   26.8946 H   0  0  0  0  0  0
   49.6071   99.6743   24.1425 H   0  0  0  0  0  0
   50.0307  102.0182   26.9626 H   0  0  0  0  0  0
   51.2455  101.9804   25.6908 H   0  0  0  0  0  0
   49.5376  101.8774   25.2900 H   0  0  0  0  0  0
   56.5062  102.3880   35.4500 H   0  0  0  0  0  0
   55.2617  101.9534   34.3955 H   0  0  0  0  0  0
   54.6021  103.3650   36.3916 H   0  0  0  0  0  0
   53.6716  101.9077   36.3069 H   0  0  0  0  0  0
   56.0616  102.3968   38.1481 H   0  0  0  0  0  0
   54.3830  102.2757   38.6261 H   0  0  0  0  0  0
   55.5489  100.1372   39.0547 H   0  0  0  0  0  0
   54.2878   99.9187   37.8724 H   0  0  0  0  0  0
   56.3826   98.7311   37.1358 H   0  0  0  0  0  0
   57.2538  100.1653   37.4078 H   0  0  0  0  0  0
  1  2  1  0  0  0
  1 24  1  0  0  0
  1 28  1  0  0  0
  1 29  1  0  0  0
  2  3  1  0  0  0
  2  6  1  0  0  0
  2  7  1  0  0  0
  3 30  1  0  0  0
  4  5  1  0  0  0
  4  8  1  0  0  0
  4  9  1  0  0  0
  4 10  1  0  0  0
  5  6  1  0  0  0
  5 31  1  0  0  0
  5 32  1  0  0  0
  6 33  1  0  0  0
  6 34  1  0  0  0
  7  8  1  0  0  0
  7 35  1  0  0  0
  7 36  1  0  0  0
  8 37  1  0  0  0
  8 38  1  0  0  0
  9 12  1  0  0  0
  9 39  1  0  0  0
 10 11  1  0  0  0
 10 40  1  0  0  0
 11 13  1  0  0  0
 11 17  2  0  0  0
 12 13  2  0  0  0
 12 16  1  0  0  0
 13 14  1  0  0  0
 14 15  1  0  0  0
 15 16  2  0  0  0
 15 18  1  0  0  0
 16 41  1  0  0  0
 18 22  2  0  0  0
 18 19  1  0  0  0
 19 42  1  0  0  0
 19 20  2  0  0  0
 20 21  1  0  0  0
 21 43  1  0  0  0
 21 22  1  0  0  0
 22 23  1  0  0  0
 23 44  1  0  0  0
 23 45  1  0  0  0
 23 46  1  0  0  0
 24 25  1  0  0  0
 24 47  1  0  0  0
 24 48  1  0  0  0
 25 26  1  0  0  0
 25 49  1  0  0  0
 25 50  1  0  0  0
 26 27  1  0  0  0
 26 51  1  0  0  0
 26 52  1  0  0  0
 27 28  1  0  0  0
 27 53  1  0  0  0
 27 54  1  0  0  0
 28 55  1  0  0  0
 28 56  1  0  0  0
M  END
> <s_m_entry_id>
28666

> <s_m_entry_name>
dock_pv.827

> <s_m_Source_Path>
/home/csk/Desktop/cluster/DUD-E-result/rock1

> <s_m_Source_File>
dock_pv.maegz

> <i_m_Source_File_Index>
827

> <chembl_id>
CHEMBL4208876

> <chembl_pref_name>
None

> <i_lp_mmshare_version>
53161

> <r_lp_tautomer_probability>
0.499999092751646

> <s_lp_Force_Field>
OPLS_2005

> <r_lp_Energy>
39.6252

> <b_lp_Chiralities_Consistent>
1

> <s_lp_Variant>
CHEMBL3231_lig896-2

> <s_i_glide_gridfile>
glide-grid_2etr

> <i_i_glide_lignum>
1282

> <i_i_glide_rotatable_bonds>
3

> <r_i_docking_score>
-6.859174850626

> <r_i_glide_ligand_efficiency>
-0.2449705303795

> <r_i_glide_ligand_efficiency_sa>
-0.743874810158674

> <r_i_glide_ligand_efficiency_ln>
-1.58329894964922

> <r_i_glide_gscore>
-6.859174850626

> <r_i_glide_lipo>
-2.11287455385132

> <r_i_glide_hbond>
-0.449264189867582

> <r_i_glide_metal>
0

> <r_i_glide_rewards>
-1.76937911185899

> <r_i_glide_evdw>
-39.0579872131348

> <r_i_glide_ecoul>
-4.73722219467163

> <r_i_glide_erotb>
0.171085077531184

> <r_i_glide_esite>
-0.0352593827218092

> <r_i_glide_emodel>
-58.0191488774486

> <r_i_glide_energy>
-43.7952094078064

> <r_i_glide_einternal>
7.73907136917114

> <i_i_glide_confnum>
15

> <i_i_glide_posenum>
157

> <r_i_glide_eff_state_penalty>
0

> <s_user_duplicate_titles>
CHEMBL3231_lig896,CHEMBL3231_lig896

> <i_f3d_flags>
0

> <s_m_subgroup_title>
dock_pv

> <s_m_subgroupid>
dock_pv

> <b_m_subgroup_collapsed>
1

$$$$
CHEMBL3231_lig173
                    3D
 Schrodinger Suite 2021-1.
 48 51  0  0  1  0            999 V2000
   51.1185  102.4080   28.9468 C   0  0  0  0  0  0
   51.2279  101.0179   28.7839 C   0  0  0  0  0  0
   51.6975  100.2662   29.8162 N   0  0  0  0  0  0
   52.0431  100.8645   30.9884 C   0  0  0  0  0  0
   51.9097  102.2617   31.1452 C   0  0  0  0  0  0
   51.4590  103.0271   30.1098 N   0  0  0  0  0  0
   52.1642  102.9353   32.3582 N   0  0  0  0  0  0
   50.8398  100.2744   27.5326 C   0  0  0  0  0  0
   50.4425  100.9451   26.3612 C   0  0  0  0  0  0
   50.0547  100.2094   25.2371 C   0  0  0  0  0  0
   50.0429   98.8537   25.2098 N   0  0  0  0  0  0
   50.4444   98.2021   26.3267 C   0  0  0  0  0  0
   50.8428   98.8656   27.4858 C   0  0  0  0  0  0
   52.6735  100.0585   31.9292 N   0  0  0  0  0  0
   51.8784  102.4546   33.7171 C   0  0  0  0  0  0
   52.5981  103.3778   34.6903 C   0  0  0  0  0  0
   52.5442  104.7030   33.9716 C   0  0  0  0  0  0
   52.6651  104.3026   32.5001 C   0  0  0  0  0  0
   52.3179   98.6622   32.1835 C   0  0  0  0  0  0
   52.9853   97.6797   31.2076 C   0  0  0  0  0  0
   54.5029   97.8694   30.9788 C   0  0  0  0  0  0
   54.8453   99.3789   31.0001 C   0  0  0  0  0  0
   54.1233  100.1926   32.0936 C   0  0  0  0  0  0
   55.2430   97.1927   32.0253 N   0  0  0  0  0  0
   50.7488  103.0535   28.1650 H   0  0  0  0  0  0
   50.4164  102.0223   26.3045 H   0  0  0  0  0  0
   49.7359  100.7044   24.3309 H   0  0  0  0  0  0
   50.4401   97.1228   26.2843 H   0  0  0  0  0  0
   51.1360   98.2750   28.3404 H   0  0  0  0  0  0
   50.8024  102.4318   33.9000 H   0  0  0  0  0  0
   52.2591  101.4487   33.8775 H   0  0  0  0  0  0
   52.1135  103.4084   35.6669 H   0  0  0  0  0  0
   53.6241  103.0374   34.8486 H   0  0  0  0  0  0
   53.3478  105.3760   34.2753 H   0  0  0  0  0  0
   51.6028  105.2234   34.1527 H   0  0  0  0  0  0
   53.6970  104.3862   32.1531 H   0  0  0  0  0  0
   52.0451  104.9764   31.9103 H   0  0  0  0  0  0
   51.2367   98.5836   32.0803 H   0  0  0  0  0  0
   52.5545   98.3963   33.2154 H   0  0  0  0  0  0
   52.4473   97.6503   30.2621 H   0  0  0  0  0  0
   52.8086   96.6664   31.5700 H   0  0  0  0  0  0
   54.7245   97.5060   29.9746 H   0  0  0  0  0  0
   55.9204   99.5028   31.1406 H   0  0  0  0  0  0
   54.7092   99.8205   30.0128 H   0  0  0  0  0  0
   54.4210  101.2407   32.0518 H   0  0  0  0  0  0
   54.4161   99.8380   33.0825 H   0  0  0  0  0  0
   56.2365   97.3396   31.8410 H   0  0  0  0  0  0
   55.0638   97.6490   32.9052 H   0  0  0  0  0  0
  1  6  1  0  0  0
  1  2  2  0  0  0
  1 25  1  0  0  0
  2  8  1  0  0  0
  2  3  1  0  0  0
  3  4  2  0  0  0
  4 14  1  0  0  0
  4  5  1  0  0  0
  5  7  1  0  0  0
  5  6  2  0  0  0
  7 15  1  0  0  0
  7 18  1  0  0  0
  8 13  1  0  0  0
  8  9  2  0  0  0
  9 10  1  0  0  0
  9 26  1  0  0  0
 10 11  2  0  0  0
 10 27  1  0  0  0
 11 12  1  0  0  0
 12 13  2  0  0  0
 12 28  1  0  0  0
 13 29  1  0  0  0
 14 19  1  0  0  0
 14 23  1  0  0  0
 15 16  1  0  0  0
 15 30  1  0  0  0
 15 31  1  0  0  0
 16 17  1  0  0  0
 16 32  1  0  0  0
 16 33  1  0  0  0
 17 18  1  0  0  0
 17 34  1  0  0  0
 17 35  1  0  0  0
 18 36  1  0  0  0
 18 37  1  0  0  0
 19 20  1  0  0  0
 19 38  1  0  0  0
 19 39  1  0  0  0
 20 21  1  0  0  0
 20 40  1  0  0  0
 20 41  1  0  0  0
 21 22  1  0  0  0
 21 24  1  0  0  0
 21 42  1  0  0  0
 22 23  1  0  0  0
 22 43  1  0  0  0
 22 44  1  0  0  0
 23 45  1  0  0  0
 23 46  1  0  0  0
 24 47  1  0  0  0
 24 48  1  0  0  0
M  END
> <s_m_entry_id>
28667

> <s_m_entry_name>
dock_pv.828

> <s_m_Source_Path>
/home/csk/Desktop/cluster/DUD-E-result/rock1

> <s_m_Source_File>
dock_pv.maegz

> <i_m_Source_File_Index>
828

> <chembl_id>
CHEMBL602326

> <chembl_pref_name>
None

> <i_lp_mmshare_version>
53161

> <r_lp_tautomer_probability>
1

> <s_lp_Force_Field>
OPLS_2005

> <r_lp_Energy>
56.455695

> <b_lp_Chiralities_Consistent>
1

> <s_lp_Variant>
CHEMBL3231_lig173-1

> <s_i_glide_gridfile>
glide-grid_2etr

> <i_i_glide_lignum>
300

> <i_i_glide_rotatable_bonds>
3

> <r_i_docking_score>
-6.8585417827348

> <r_i_glide_ligand_efficiency>
-0.285772574280617

> <r_i_glide_ligand_efficiency_sa>
-0.824310744050488

> <r_i_glide_ligand_efficiency_ln>
-1.64156376658355

> <r_i_glide_gscore>
-6.8585417827348

> <r_i_glide_lipo>
-2.09578478222897

> <r_i_glide_hbond>
-0.16

> <r_i_glide_metal>
0

> <r_i_glide_rewards>
-2.51378012121212

> <r_i_glide_evdw>
-39.6607208251953

> <r_i_glide_ecoul>
-3.97147464752197

> <r_i_glide_erotb>
0.533796770552723

> <r_i_glide_esite>
-0.0440164114583658

> <r_i_glide_emodel>
-59.0967911847013

> <r_i_glide_energy>
-43.6321954727173

> <r_i_glide_einternal>
5.87954616546631

> <i_i_glide_confnum>
137

> <i_i_glide_posenum>
199

> <r_i_glide_eff_state_penalty>
0

> <s_user_duplicate_titles>
CHEMBL3231_lig173,599133

> <i_f3d_flags>
0

> <s_m_subgroup_title>
dock_pv

> <s_m_subgroupid>
dock_pv

> <b_m_subgroup_collapsed>
1

$$$$
CHEMBL3231_lig1095
                    3D
 Schrodinger Suite 2021-1.
 33 36  0  0  1  0            999 V2000
   50.1509   99.8641   25.7985 C   0  0  0  0  0  0
   50.7129   98.7275   26.3759 C   0  0  0  0  0  0
   51.3776   98.7785   27.6030 C   0  0  0  0  0  0
   50.2202  101.1015   26.4382 C   0  0  0  0  0  0
   50.8633  101.1791   27.6813 C   0  0  0  0  0  0
   51.4535  100.0211   28.2442 C   0  0  0  0  0  0
   52.0516  100.4652   29.4169 N   0  0  0  0  0  0
   51.7039  101.8072   29.5208 C   0  0  0  0  0  0
   51.0235  102.2624   28.4980 N   0  0  0  0  0  0
   52.0043  102.6272   30.6797 C   0  0  0  0  0  0
   51.2480  102.5763   31.7477 N   0  0  0  0  0  0
   51.8462  103.4682   32.6316 O   0  0  0  0  0  0
   52.9865  104.0381   32.0710 N   0  0  0  0  0  0
   53.0515  103.5272   30.8697 C   0  0  0  0  0  0
   54.0429  103.9026   30.0131 N   0  0  0  0  0  0
   52.8138   99.7047   30.3403 C   0  0  0  0  0  0
   54.0398  100.2008   30.8048 C   0  0  0  0  0  0
   54.8184   99.4503   31.6805 C   0  0  0  0  0  0
   54.3753   98.1934   32.0925 C   0  0  0  0  0  0
   53.1692   97.6834   31.6121 C   0  0  0  0  0  0
   52.3860   98.4339   30.7380 C   0  0  0  0  0  0
   55.1640   97.4079   33.0324 C   0  0  0  0  0  0
   55.7831   96.7824   33.7835 N   0  0  0  0  0  0
   49.6535   99.7865   24.8412 H   0  0  0  0  0  0
   50.6452   97.7831   25.8548 H   0  0  0  0  0  0
   51.8337   97.9029   28.0240 H   0  0  0  0  0  0
   49.7830  101.9774   25.9896 H   0  0  0  0  0  0
   54.0952  103.5813   29.0598 H   0  0  0  0  0  0
   54.7400  104.5852   30.3074 H   0  0  0  0  0  0
   54.4159  101.1578   30.4759 H   0  0  0  0  0  0
   55.7659   99.8483   32.0210 H   0  0  0  0  0  0
   52.8431   96.7030   31.9173 H   0  0  0  0  0  0
   51.4496   98.0255   30.3855 H   0  0  0  0  0  0
  1  2  2  0  0  0
  1  4  1  0  0  0
  1 24  1  0  0  0
  2  3  1  0  0  0
  2 25  1  0  0  0
  3  6  2  0  0  0
  3 26  1  0  0  0
  4  5  2  0  0  0
  4 27  1  0  0  0
  5  9  1  0  0  0
  5  6  1  0  0  0
  6  7  1  0  0  0
  7 16  1  0  0  0
  7  8  1  0  0  0
  8 10  1  0  0  0
  8  9  2  0  0  0
 10 14  1  0  0  0
 10 11  2  0  0  0
 11 12  1  0  0  0
 12 13  1  0  0  0
 13 14  2  0  0  0
 14 15  1  0  0  0
 15 28  1  0  0  0
 15 29  1  0  0  0
 16 17  2  0  0  0
 16 21  1  0  0  0
 17 18  1  0  0  0
 17 30  1  0  0  0
 18 19  2  0  0  0
 18 31  1  0  0  0
 19 20  1  0  0  0
 19 22  1  0  0  0
 20 21  2  0  0  0
 20 32  1  0  0  0
 21 33  1  0  0  0
 22 23  3  0  0  0
M  END
> <s_m_entry_id>
28668

> <s_m_entry_name>
dock_pv.829

> <s_m_Source_Path>
/home/csk/Desktop/cluster/DUD-E-result/rock1

> <s_m_Source_File>
dock_pv.maegz

> <i_m_Source_File_Index>
829

> <chembl_id>
CHEMBL1078538

> <chembl_pref_name>
None

> <i_lp_mmshare_version>
53161

> <r_lp_tautomer_probability>
1

> <s_lp_Force_Field>
OPLS_2005

> <r_lp_Energy>
27.422293

> <b_lp_Chiralities_Consistent>
1

> <s_lp_Variant>
CHEMBL3231_lig1095-1

> <s_i_glide_gridfile>
glide-grid_2etr

> <i_i_glide_lignum>
1520

> <i_i_glide_rotatable_bonds>
2

> <r_i_docking_score>
-6.8553193310031

> <r_i_glide_ligand_efficiency>
-0.298057362217526

> <r_i_glide_ligand_efficiency_sa>
-0.847635489626162

> <r_i_glide_ligand_efficiency_ln>
-1.65767837483551

> <r_i_glide_gscore>
-6.8553193310031

> <r_i_glide_lipo>
-2.0879496586795

> <r_i_glide_hbond>
-0.32

> <r_i_glide_metal>
0

> <r_i_glide_rewards>
-1.89629182828314

> <r_i_glide_evdw>
-38.9384651184082

> <r_i_glide_ecoul>
-5.12356948852539

> <r_i_glide_erotb>
0.40293274179685

> <r_i_glide_esite>
-0.238551906638096

> <r_i_glide_emodel>
-59.4143937507083

> <r_i_glide_energy>
-44.0620346069336

> <r_i_glide_einternal>
4.47717571258545

> <i_i_glide_confnum>
6

> <i_i_glide_posenum>
88

> <r_i_glide_eff_state_penalty>
0

> <s_user_duplicate_titles>
CHEMBL3231_lig1095

> <i_f3d_flags>
0

> <s_m_subgroup_title>
dock_pv

> <s_m_subgroupid>
dock_pv

> <b_m_subgroup_collapsed>
1

$$$$
CHEMBL3231_lig978 
                    3D
 Schrodinger Suite 2021-1.
 61 64  0  0  1  0            999 V2000
   50.1523   99.6119   25.0014 C   0  0  0  0  0  0
   50.0431   98.2766   25.2079 N   0  0  0  0  0  0
   50.4431   97.8166   26.4168 C   0  0  0  0  0  0
   50.9159   98.5727   27.4353 N   0  0  0  0  0  0
   51.0050   99.9174   27.2152 C   0  0  0  0  0  0
   50.6421  100.4778   25.9786 C   0  0  0  0  0  0
   51.4844  100.7460   28.3602 C   0  0  0  0  0  0
   52.2699  100.1999   29.3863 C   0  0  0  0  0  0
   52.6587  100.9449   30.5039 C   0  0  0  0  0  0
   52.2718  102.3024   30.5863 C   0  0  0  0  0  0
   51.5210  102.8578   29.5426 C   0  0  0  0  0  0
   51.1245  102.0915   28.4577 C   0  0  0  0  0  0
   52.5452  103.1875   31.7705 C   0  0  0  0  0  0
   53.7845  103.1973   32.2846 N   0  0  0  0  0  0
   51.6432  103.9031   32.1950 O   0  0  0  0  0  0
   54.2334  104.1022   33.3510 C   0  0  1  0  0  0
   53.3329  104.1115   34.5955 C   0  0  0  0  0  0
   53.0596  102.9277   35.2884 C   0  0  0  0  0  0
   52.1982  102.9322   36.3831 C   0  0  0  0  0  0
   51.5954  104.1232   36.7879 C   0  0  0  0  0  0
   51.8454  105.3183   36.1100 C   0  0  0  0  0  0
   52.7261  105.3022   35.0148 C   0  0  0  0  0  0
   51.1860  106.4446   36.5654 O   0  0  0  0  0  0
   51.4049  107.6860   35.9026 C   0  0  0  0  0  0
   55.6904  103.8119   33.7219 C   0  0  0  0  0  0
   53.3728  100.2614   31.4922 N   0  0  0  0  0  0
   52.7933   99.5562   32.6319 C   0  0  0  0  0  0
   53.8985   98.6596   33.2071 C   0  0  1  0  0  0
   55.1602   99.4630   32.9072 C   0  0  0  0  0  0
   54.8271  100.1640   31.5912 C   0  0  0  0  0  0
   53.7173   98.2338   34.6832 C   0  0  0  0  0  0
   53.5633   99.3574   35.5932 N   0  0  0  0  0  0
   49.8442   99.9782   24.0324 H   0  0  0  0  0  0
   50.3900   96.7516   26.5831 H   0  0  0  0  0  0
   50.7233  101.5341   25.7748 H   0  0  0  0  0  0
   52.5633   99.1603   29.3373 H   0  0  0  0  0  0
   51.2108  103.8919   29.5751 H   0  0  0  0  0  0
   50.5100  102.5582   27.7020 H   0  0  0  0  0  0
   54.5086  102.7254   31.7645 H   0  0  0  0  0  0
   54.2175  105.1059   32.9133 H   0  0  0  0  0  0
   53.5026  102.0005   34.9606 H   0  0  0  0  0  0
   51.9879  102.0092   36.9032 H   0  0  0  0  0  0
   50.9193  104.1210   37.6282 H   0  0  0  0  0  0
   52.9217  106.2025   34.4509 H   0  0  0  0  0  0
   50.8246  108.4671   36.3962 H   0  0  0  0  0  0
   52.4546  107.9824   35.9397 H   0  0  0  0  0  0
   51.0833  107.6450   34.8603 H   0  0  0  0  0  0
   56.0458  104.5156   34.4750 H   0  0  0  0  0  0
   55.8116  102.8073   34.1233 H   0  0  0  0  0  0
   56.3406  103.9030   32.8510 H   0  0  0  0  0  0
   52.4014  100.2565   33.3723 H   0  0  0  0  0  0
   51.9542   98.9337   32.3142 H   0  0  0  0  0  0
   53.9241   97.7367   32.6263 H   0  0  0  0  0  0
   56.0372   98.8208   32.8011 H   0  0  0  0  0  0
   55.3822  100.1938   33.6855 H   0  0  0  0  0  0
   55.2534   99.6315   30.7406 H   0  0  0  0  0  0
   55.2440  101.1660   31.6089 H   0  0  0  0  0  0
   52.8447   97.5856   34.7775 H   0  0  0  0  0  0
   54.5762   97.6412   35.0007 H   0  0  0  0  0  0
   53.4882   99.0234   36.5458 H   0  0  0  0  0  0
   54.4029   99.9172   35.5608 H   0  0  0  0  0  0
  1  2  2  0  0  0
  1  6  1  0  0  0
  1 33  1  0  0  0
  2  3  1  0  0  0
  3  4  2  0  0  0
  3 34  1  0  0  0
  4  5  1  0  0  0
  5  6  2  0  0  0
  5  7  1  0  0  0
  6 35  1  0  0  0
  7  8  2  0  0  0
  7 12  1  0  0  0
  8  9  1  0  0  0
  8 36  1  0  0  0
  9 10  2  0  0  0
  9 26  1  0  0  0
 10 11  1  0  0  0
 10 13  1  0  0  0
 11 12  2  0  0  0
 11 37  1  0  0  0
 12 38  1  0  0  0
 13 14  1  0  0  0
 13 15  2  0  0  0
 14 16  1  0  0  0
 14 39  1  0  0  0
 16 17  1  0  0  0
 16 25  1  0  0  0
 16 40  1  0  0  0
 17 18  2  0  0  0
 17 22  1  0  0  0
 18 19  1  0  0  0
 18 41  1  0  0  0
 19 20  2  0  0  0
 19 42  1  0  0  0
 20 21  1  0  0  0
 20 43  1  0  0  0
 21 22  2  0  0  0
 21 23  1  0  0  0
 22 44  1  0  0  0
 23 24  1  0  0  0
 24 45  1  0  0  0
 24 46  1  0  0  0
 24 47  1  0  0  0
 25 48  1  0  0  0
 25 49  1  0  0  0
 25 50  1  0  0  0
 26 27  1  0  0  0
 26 30  1  0  0  0
 27 28  1  0  0  0
 27 51  1  0  0  0
 27 52  1  0  0  0
 28 29  1  0  0  0
 28 31  1  0  0  0
 28 53  1  0  0  0
 29 30  1  0  0  0
 29 54  1  0  0  0
 29 55  1  0  0  0
 30 56  1  0  0  0
 30 57  1  0  0  0
 31 32  1  0  0  0
 31 58  1  0  0  0
 31 59  1  0  0  0
 32 60  1  0  0  0
 32 61  1  0  0  0
M  END
> <s_m_entry_id>
28669

> <s_m_entry_name>
dock_pv.830

> <s_m_Source_Path>
/home/csk/Desktop/cluster/DUD-E-result/rock1

> <s_m_Source_File>
dock_pv.maegz

> <i_m_Source_File_Index>
830

> <chembl_id>
CHEMBL4550282

> <chembl_pref_name>
None

> <i_lp_mmshare_version>
53161

> <r_lp_tautomer_probability>
1

> <s_lp_Force_Field>
OPLS_2005

> <r_lp_Energy>
44.623144

> <b_lp_Chiralities_Consistent>
1

> <s_lp_Variant>
CHEMBL3231_lig978 -1

> <s_i_glide_gridfile>
glide-grid_2etr

> <i_i_glide_lignum>
1392

> <i_i_glide_rotatable_bonds>
8

> <r_i_docking_score>
-6.85329389247708

> <r_i_glide_ligand_efficiency>
-0.214165434139909

> <r_i_glide_ligand_efficiency_sa>
-0.679932870112346

> <r_i_glide_ligand_efficiency_ln>
-1.53463931626152

> <r_i_glide_gscore>
-6.85329389247708

> <r_i_glide_lipo>
-1.53712235274636

> <r_i_glide_hbond>
-0.36554646505436

> <r_i_glide_metal>
0

> <r_i_glide_rewards>
-2.07510170634229

> <r_i_glide_evdw>
-45.4100379943848

> <r_i_glide_ecoul>
-7.66359043121338

> <r_i_glide_erotb>
0.640882555628847

> <r_i_glide_esite>
-0.0963654595616645

> <r_i_glide_emodel>
-72.261335756385

> <r_i_glide_energy>
-53.0736284255981

> <r_i_glide_einternal>
7.03540086746216

> <i_i_glide_confnum>
34

> <i_i_glide_posenum>
385

> <r_i_glide_eff_state_penalty>
0

> <s_user_duplicate_titles>
CHEMBL3231_lig978 

> <i_f3d_flags>
0

> <s_m_subgroup_title>
dock_pv

> <s_m_subgroupid>
dock_pv

> <b_m_subgroup_collapsed>
1

$$$$
CHEMBL3231_lig1835
                    3D
 Schrodinger Suite 2021-1.
 59 64  0  0  1  0            999 V2000
   56.1981   94.1520   32.4113 S   0  0  0  0  0  0
   50.4385  100.3070   34.4217 O   0  0  0  0  0  0
   55.0668   96.4457   32.0409 N   0  0  0  0  0  0
   55.0952   96.0453   34.2385 N   0  0  0  0  0  0
   53.1720   98.4808   30.8942 N   0  0  0  0  0  0
   53.1602  100.8305   30.3673 N   0  0  0  0  0  0
   51.8663   99.2163   29.1416 N   0  0  0  0  0  0
   51.8060  100.9160   36.1436 N   0  0  0  0  0  0
   54.4778   97.5338   32.6682 C   0  0  0  0  0  0
   54.4935   97.2097   34.0362 C   0  0  0  0  0  0
   55.4117   95.5841   33.0526 C   0  0  0  0  0  0
   54.0316   98.7288   31.9146 C   0  0  0  0  0  0
   54.0885   98.0724   35.2025 C   0  0  0  0  0  0
   55.4283   96.0181   30.7736 C   0  0  0  0  0  0
   56.0427   94.7810   30.7891 C   0  0  0  0  0  0
   54.4878  100.0153   32.2097 C   0  0  0  0  0  0
   53.0929   99.0571   35.0836 C   0  0  0  0  0  0
   54.7264   97.9124   36.4409 C   0  0  0  0  0  0
   52.7569   99.5456   30.1689 C   0  0  0  0  0  0
   52.7603   99.8825   36.1736 C   0  0  0  0  0  0
   54.0283  101.0473   31.3902 C   0  0  0  0  0  0
   54.4039   98.7271   37.5222 C   0  0  0  0  0  0
   53.4323   99.7140   37.3845 C   0  0  0  0  0  0
   51.2673   99.9434   28.0999 C   0  0  0  0  0  0
   50.7530  101.0916   35.3165 C   0  0  0  0  0  0
   50.8537   99.2648   26.9356 C   0  0  0  0  0  0
   49.9007  102.3122   35.6068 C   0  0  0  0  0  0
   51.0443  101.3212   28.2002 C   0  0  0  0  0  0
   50.2492   99.9694   25.8933 C   0  0  0  0  0  0
   50.4432  102.0141   27.1551 C   0  0  0  0  0  0
   50.4370  103.4557   36.2219 C   0  0  0  0  0  0
   48.5400  102.3079   35.2584 C   0  0  0  0  0  0
   50.0451  101.3380   26.0064 C   0  0  0  0  0  0
   51.0746   97.7725   26.7592 C   0  0  0  0  0  0
   49.6320  104.5631   36.4833 C   0  0  0  0  0  0
   47.7373  103.4167   35.5181 C   0  0  0  0  0  0
   48.2861  104.5383   36.1315 C   0  0  0  0  0  0
   51.6657   98.2292   29.1147 H   0  0  0  0  0  0
   51.9001  101.5947   36.8828 H   0  0  0  0  0  0
   55.2430   96.6528   29.9199 H   0  0  0  0  0  0
   56.4430   94.2202   29.9544 H   0  0  0  0  0  0
   55.1902  100.1954   33.0100 H   0  0  0  0  0  0
   52.5956   99.1843   34.1356 H   0  0  0  0  0  0
   55.4965   97.1651   36.5653 H   0  0  0  0  0  0
   54.3648  102.0637   31.5361 H   0  0  0  0  0  0
   54.9119   98.5984   38.4657 H   0  0  0  0  0  0
   53.1986  100.3349   38.2377 H   0  0  0  0  0  0
   51.3160  101.8705   29.0875 H   0  0  0  0  0  0
   49.9294   99.4611   24.9950 H   0  0  0  0  0  0
   50.2656  103.0759   27.2416 H   0  0  0  0  0  0
   51.4797  103.5087   36.4922 H   0  0  0  0  0  0
   48.0899  101.4380   34.8060 H   0  0  0  0  0  0
   49.5455  101.8711   25.2130 H   0  0  0  0  0  0
   51.0943   97.4801   25.7091 H   0  0  0  0  0  0
   52.0432   97.5031   27.1791 H   0  0  0  0  0  0
   50.3045   97.2029   27.2773 H   0  0  0  0  0  0
   50.0523  105.4375   36.9589 H   0  0  0  0  0  0
   46.6870  103.4005   35.2566 H   0  0  0  0  0  0
   47.6585  105.3929   36.3369 H   0  0  0  0  0  0
  1 11  1  0  0  0
  1 15  1  0  0  0
  2 25  2  0  0  0
  3  9  1  0  0  0
  3 11  1  0  0  0
  3 14  1  0  0  0
  4 10  1  0  0  0
  4 11  2  0  0  0
  5 12  2  0  0  0
  5 19  1  0  0  0
  6 19  2  0  0  0
  6 21  1  0  0  0
  7 19  1  0  0  0
  7 24  1  0  0  0
  7 38  1  0  0  0
  8 20  1  0  0  0
  8 25  1  0  0  0
  8 39  1  0  0  0
  9 10  2  0  0  0
  9 12  1  0  0  0
 10 13  1  0  0  0
 12 16  1  0  0  0
 13 17  1  0  0  0
 13 18  2  0  0  0
 14 15  2  0  0  0
 14 40  1  0  0  0
 15 41  1  0  0  0
 16 21  2  0  0  0
 16 42  1  0  0  0
 17 20  2  0  0  0
 17 43  1  0  0  0
 18 22  1  0  0  0
 18 44  1  0  0  0
 20 23  1  0  0  0
 21 45  1  0  0  0
 22 23  2  0  0  0
 22 46  1  0  0  0
 23 47  1  0  0  0
 24 26  1  0  0  0
 24 28  2  0  0  0
 25 27  1  0  0  0
 26 29  2  0  0  0
 26 34  1  0  0  0
 27 31  2  0  0  0
 27 32  1  0  0  0
 28 30  1  0  0  0
 28 48  1  0  0  0
 29 33  1  0  0  0
 29 49  1  0  0  0
 30 33  2  0  0  0
 30 50  1  0  0  0
 31 35  1  0  0  0
 31 51  1  0  0  0
 32 36  2  0  0  0
 32 52  1  0  0  0
 33 53  1  0  0  0
 34 54  1  0  0  0
 34 55  1  0  0  0
 34 56  1  0  0  0
 35 37  2  0  0  0
 35 57  1  0  0  0
 36 37  1  0  0  0
 36 58  1  0  0  0
 37 59  1  0  0  0
M  END
> <s_m_entry_id>
28670

> <s_m_entry_name>
dock_pv.831

> <s_m_Source_Path>
/home/csk/Desktop/cluster/DUD-E-result/rock1

> <s_m_Source_File>
dock_pv.maegz

> <i_m_Source_File_Index>
831

> <chembl_id>
CHEMBL1988076

> <chembl_pref_name>
None

> <i_lp_mmshare_version>
53161

> <r_lp_tautomer_probability>
0.999999987636

> <s_lp_Force_Field>
OPLS_2005

> <r_lp_Energy>
34.367666

> <b_lp_Chiralities_Consistent>
1

> <s_lp_Variant>
CHEMBL3231_lig1835-1

> <s_i_glide_gridfile>
glide-grid_2etr

> <i_i_glide_lignum>
2638

> <i_i_glide_rotatable_bonds>
7

> <r_i_docking_score>
-6.85199394235327

> <r_i_glide_ligand_efficiency>
-0.185189025469007

> <r_i_glide_ligand_efficiency_sa>
-0.61709091661009

> <r_i_glide_ligand_efficiency_ln>
-1.48603685256757

> <r_i_glide_gscore>
-6.85199394235327

> <r_i_glide_lipo>
-3.53268941526952

> <r_i_glide_hbond>
0

> <r_i_glide_metal>
0

> <r_i_glide_rewards>
-0.929294388854986

> <r_i_glide_evdw>
-55.303539276123

> <r_i_glide_ecoul>
-0.927074372768402

> <r_i_glide_erotb>
0.566275069044996

> <r_i_glide_esite>
-0.0520470875523467

> <r_i_glide_emodel>
-71.4367377053747

> <r_i_glide_energy>
-56.2306136488914

> <r_i_glide_einternal>
12.8187217712402

> <i_i_glide_confnum>
77

> <i_i_glide_posenum>
374

> <r_i_glide_eff_state_penalty>
0

> <s_user_duplicate_titles>
CHEMBL3231_lig1835

> <i_f3d_flags>
0

> <s_m_subgroup_title>
dock_pv

> <s_m_subgroupid>
dock_pv

> <b_m_subgroup_collapsed>
1

$$$$
CHEMBL3231_lig583
                    3D
 Schrodinger Suite 2021-1.
 46 48  0  0  1  0            999 V2000
   48.3904  103.9447   37.1554 C   0  0  0  0  0  0
   49.7701  103.7420   36.8925 O   0  0  0  0  0  0
   50.3341  104.1892   35.7381 C   0  0  0  0  0  0
   49.7099  104.8084   34.8691 O   0  0  0  0  0  0
   51.7779  103.8051   35.5966 C   0  0  0  0  0  0
   52.5071  103.2436   36.6584 C   0  0  0  0  0  0
   53.8412  102.8713   36.4920 C   0  0  0  0  0  0
   54.4651  103.0421   35.2574 C   0  0  0  0  0  0
   53.7615  103.5975   34.1868 C   0  0  0  0  0  0
   54.4270  103.7360   32.8182 C   0  0  0  0  0  0
   53.7695  103.0193   31.7185 N   0  0  0  0  0  0
   53.4135  101.7189   31.7185 C   0  0  0  0  0  0
   53.6243  100.9763   32.6795 O   0  0  0  0  0  0
   52.6989  101.1961   30.4861 C   0  0  0  0  0  0
   52.4088  102.0175   29.3896 C   0  0  0  0  0  0
   51.7627  101.5011   28.2719 C   0  0  0  0  0  0
   51.3899  100.1570   28.1956 C   0  0  0  0  0  0
   51.6433   99.3183   29.2973 C   0  0  0  0  0  0
   51.2202   98.0023   29.2336 O   0  0  0  0  0  0
   51.2431   97.1922   30.4073 C   0  0  0  0  0  0
   52.3017   99.8516   30.4216 C   0  0  0  0  0  0
   50.7445   99.7004   26.9172 C   0  0  0  0  0  0
   50.6454   98.4018   26.3789 C   0  0  0  0  0  0
   50.0430   98.3526   25.2118 N   0  0  0  0  0  0
   49.7238   99.6219   24.9560 N   0  0  0  0  0  0
   50.1140  100.4752   25.9500 C   0  0  0  0  0  0
   52.4321  103.9925   34.3673 C   0  0  0  0  0  0
   48.1280  103.5048   38.1155 H   0  0  0  0  0  0
   47.7714  103.4741   36.3897 H   0  0  0  0  0  0
   48.1500  105.0061   37.1929 H   0  0  0  0  0  0
   52.0446  103.0828   37.6217 H   0  0  0  0  0  0
   54.3863  102.4281   37.3138 H   0  0  0  0  0  0
   55.4902  102.7211   35.1317 H   0  0  0  0  0  0
   54.4428  104.7963   32.5639 H   0  0  0  0  0  0
   55.4744  103.4298   32.8576 H   0  0  0  0  0  0
   53.7743  103.4971   30.8302 H   0  0  0  0  0  0
   52.6822  103.0618   29.3770 H   0  0  0  0  0  0
   51.5592  102.1644   27.4499 H   0  0  0  0  0  0
   50.8450   96.2084   30.1631 H   0  0  0  0  0  0
   52.2533   97.0486   30.7950 H   0  0  0  0  0  0
   50.6181   97.6148   31.1941 H   0  0  0  0  0  0
   52.5160   99.2163   31.2679 H   0  0  0  0  0  0
   51.0322   97.5032   26.8323 H   0  0  0  0  0  0
   49.2466   99.9007   24.1063 H   0  0  0  0  0  0
   49.9192  101.5347   25.8769 H   0  0  0  0  0  0
   51.9064  104.4236   33.5257 H   0  0  0  0  0  0
  1  2  1  0  0  0
  1 28  1  0  0  0
  1 29  1  0  0  0
  1 30  1  0  0  0
  2  3  1  0  0  0
  3  4  2  0  0  0
  3  5  1  0  0  0
  5  6  2  0  0  0
  5 27  1  0  0  0
  6  7  1  0  0  0
  6 31  1  0  0  0
  7  8  2  0  0  0
  7 32  1  0  0  0
  8  9  1  0  0  0
  8 33  1  0  0  0
  9 10  1  0  0  0
  9 27  2  0  0  0
 10 11  1  0  0  0
 10 34  1  0  0  0
 10 35  1  0  0  0
 11 12  1  0  0  0
 11 36  1  0  0  0
 12 13  2  0  0  0
 12 14  1  0  0  0
 14 15  2  0  0  0
 14 21  1  0  0  0
 15 16  1  0  0  0
 15 37  1  0  0  0
 16 17  2  0  0  0
 16 38  1  0  0  0
 17 18  1  0  0  0
 17 22  1  0  0  0
 18 19  1  0  0  0
 18 21  2  0  0  0
 19 20  1  0  0  0
 20 39  1  0  0  0
 20 40  1  0  0  0
 20 41  1  0  0  0
 21 42  1  0  0  0
 22 23  1  0  0  0
 22 26  2  0  0  0
 23 24  2  0  0  0
 23 43  1  0  0  0
 24 25  1  0  0  0
 25 26  1  0  0  0
 25 44  1  0  0  0
 26 45  1  0  0  0
 27 46  1  0  0  0
M  END
> <s_m_entry_id>
28671

> <s_m_entry_name>
dock_pv.832

> <s_m_Source_Path>
/home/csk/Desktop/cluster/DUD-E-result/rock1

> <s_m_Source_File>
dock_pv.maegz

> <i_m_Source_File_Index>
832

> <chembl_id>
CHEMBL3928809

> <chembl_pref_name>
None

> <i_lp_mmshare_version>
53161

> <r_lp_tautomer_probability>
0.5

> <s_lp_Force_Field>
OPLS_2005

> <r_lp_Energy>
23.678451

> <b_lp_Chiralities_Consistent>
1

> <s_lp_Variant>
CHEMBL3231_lig583-1

> <s_i_glide_gridfile>
glide-grid_2etr

> <i_i_glide_lignum>
863

> <i_i_glide_rotatable_bonds>
8

> <r_i_docking_score>
-6.84800954647943

> <r_i_glide_ligand_efficiency>
-0.253629983202942

> <r_i_glide_ligand_efficiency_sa>
-0.760889948772902

> <r_i_glide_ligand_efficiency_ln>
-1.59410372415956

> <r_i_glide_gscore>
-6.84800954647943

> <r_i_glide_lipo>
-1.82822785559341

> <r_i_glide_hbond>
-0.496130004459525

> <r_i_glide_metal>
0

> <r_i_glide_rewards>
-2.03146311924313

> <r_i_glide_evdw>
-44.7393379211426

> <r_i_glide_ecoul>
-5.30972766876221

> <r_i_glide_erotb>
0.605142222847848

> <r_i_glide_esite>
-0.0639047436597457

> <r_i_glide_emodel>
-69.7243986211512

> <r_i_glide_energy>
-50.0490655899048

> <r_i_glide_einternal>
1.125736951828

> <i_i_glide_confnum>
11

> <i_i_glide_posenum>
78

> <r_i_glide_eff_state_penalty>
0

> <s_user_duplicate_titles>
CHEMBL3231_lig583

> <i_f3d_flags>
0

> <s_m_subgroup_title>
dock_pv

> <s_m_subgroupid>
dock_pv

> <b_m_subgroup_collapsed>
1

$$$$
CHEMBL3231_lig1094
                    3D
 Schrodinger Suite 2021-1.
 33 36  0  0  1  0            999 V2000
   50.1427  100.2062   25.3667 C   0  0  0  0  0  0
   50.6638   99.0325   25.9051 C   0  0  0  0  0  0
   51.2429   98.9938   27.1744 C   0  0  0  0  0  0
   50.1763  101.3998   26.0859 C   0  0  0  0  0  0
   50.7319  101.3917   27.3727 C   0  0  0  0  0  0
   51.2622  100.1924   27.9078 C   0  0  0  0  0  0
   51.7279  100.5500   29.1708 N   0  0  0  0  0  0
   51.4353  101.9059   29.3059 C   0  0  0  0  0  0
   50.8430  102.4236   28.2605 N   0  0  0  0  0  0
   51.6929  102.6947   30.5047 C   0  0  0  0  0  0
   50.8432  102.7030   31.4992 N   0  0  0  0  0  0
   51.4456  103.5030   32.4634 O   0  0  0  0  0  0
   52.6674  103.9928   32.0118 N   0  0  0  0  0  0
   52.7910  103.5026   30.8064 C   0  0  0  0  0  0
   53.8942  103.7814   30.0581 N   0  0  0  0  0  0
   52.2840   99.6868   30.1505 C   0  0  0  0  0  0
   53.3453  100.1015   30.9694 C   0  0  0  0  0  0
   53.8672   99.2443   31.9432 C   0  0  0  0  0  0
   53.3998   97.9327   32.0387 C   0  0  0  0  0  0
   52.3841   97.5033   31.1899 C   0  0  0  0  0  0
   51.8063   98.3772   30.2754 C   0  0  0  0  0  0
   54.8638   99.7255   32.8857 C   0  0  0  0  0  0
   55.6431  100.1116   33.6461 N   0  0  0  0  0  0
   49.7041  100.1924   24.3775 H   0  0  0  0  0  0
   50.6279   98.1270   25.3174 H   0  0  0  0  0  0
   51.6644   98.0749   27.5519 H   0  0  0  0  0  0
   49.7600  102.3031   25.6683 H   0  0  0  0  0  0
   54.0463  103.3853   29.1438 H   0  0  0  0  0  0
   54.6045  104.4239   30.4010 H   0  0  0  0  0  0
   53.7694  101.0889   30.8646 H   0  0  0  0  0  0
   53.8134   97.2430   32.7617 H   0  0  0  0  0  0
   52.0429   96.4840   31.2110 H   0  0  0  0  0  0
   50.9896   98.0159   29.6684 H   0  0  0  0  0  0
  1  2  2  0  0  0
  1  4  1  0  0  0
  1 24  1  0  0  0
  2  3  1  0  0  0
  2 25  1  0  0  0
  3  6  2  0  0  0
  3 26  1  0  0  0
  4  5  2  0  0  0
  4 27  1  0  0  0
  5  9  1  0  0  0
  5  6  1  0  0  0
  6  7  1  0  0  0
  7 16  1  0  0  0
  7  8  1  0  0  0
  8 10  1  0  0  0
  8  9  2  0  0  0
 10 14  1  0  0  0
 10 11  2  0  0  0
 11 12  1  0  0  0
 12 13  1  0  0  0
 13 14  2  0  0  0
 14 15  1  0  0  0
 15 28  1  0  0  0
 15 29  1  0  0  0
 16 17  2  0  0  0
 16 21  1  0  0  0
 17 18  1  0  0  0
 17 30  1  0  0  0
 18 19  2  0  0  0
 18 22  1  0  0  0
 19 20  1  0  0  0
 19 31  1  0  0  0
 20 21  2  0  0  0
 20 32  1  0  0  0
 21 33  1  0  0  0
 22 23  3  0  0  0
M  END
> <s_m_entry_id>
28673

> <s_m_entry_name>
dock_pv.834

> <s_m_Source_Path>
/home/csk/Desktop/cluster/DUD-E-result/rock1

> <s_m_Source_File>
dock_pv.maegz

> <i_m_Source_File_Index>
834

> <chembl_id>
CHEMBL1078537

> <chembl_pref_name>
None

> <i_lp_mmshare_version>
53161

> <r_lp_tautomer_probability>
1

> <s_lp_Force_Field>
OPLS_2005

> <r_lp_Energy>
27.941614

> <b_lp_Chiralities_Consistent>
1

> <s_lp_Variant>
CHEMBL3231_lig1094-1

> <s_i_glide_gridfile>
glide-grid_2etr

> <i_i_glide_lignum>
1519

> <i_i_glide_rotatable_bonds>
2

> <r_i_docking_score>
-6.84724167658544

> <r_i_glide_ligand_efficiency>
-0.297706159851541

> <r_i_glide_ligand_efficiency_sa>
-0.846636716815334

> <r_i_glide_ligand_efficiency_ln>
-1.6557251247532

> <r_i_glide_gscore>
-6.84724167658544

> <r_i_glide_lipo>
-2.22500116689047

> <r_i_glide_hbond>
-0.32

> <r_i_glide_metal>
0

> <r_i_glide_rewards>
-1.97517029482712

> <r_i_glide_evdw>
-36.4067306518555

> <r_i_glide_ecoul>
-4.43153285980225

> <r_i_glide_erotb>
0.40293274179685

> <r_i_glide_esite>
-0.244936495101592

> <r_i_glide_emodel>
-55.3985347117871

> <r_i_glide_energy>
-40.8382635116577

> <r_i_glide_einternal>
5.11488342285156

> <i_i_glide_confnum>
6

> <i_i_glide_posenum>
99

> <r_i_glide_eff_state_penalty>
0

> <s_user_duplicate_titles>
CHEMBL3231_lig1094

> <i_f3d_flags>
0

> <s_m_subgroup_title>
dock_pv

> <s_m_subgroupid>
dock_pv

> <b_m_subgroup_collapsed>
1

$$$$
CHEMBL3231_lig79
                    3D
 Schrodinger Suite 2021-1.
 54 58  0  0  1  0            999 V2000
   55.2881  103.5030   32.6841 C   0  0  0  0  0  0
   54.0199  102.6948   32.8849 C   0  0  0  0  0  0
   53.3877  102.4631   34.0628 C   0  0  0  0  0  0
   52.1021  101.5917   34.0664 C   0  0  2  0  0  0
   51.7405  101.0244   32.7458 N   0  0  0  0  0  0
   52.4209  101.2850   31.6851 C   0  0  0  0  0  0
   53.5280  102.1222   31.7380 N   0  0  0  0  0  0
   52.0425  100.7062   30.3863 C   0  0  0  0  0  0
   51.6539   99.3597   30.2760 C   0  0  0  0  0  0
   51.2611   98.8469   29.0391 C   0  0  0  0  0  0
   51.2430   99.7019   27.9302 C   0  0  0  0  0  0
   51.6280  101.0048   28.0118 N   0  0  0  0  0  0
   52.0307  101.4824   29.2185 C   0  0  0  0  0  0
   50.7544   99.2372   26.5565 C   0  0  0  0  0  0
   49.6089   99.8506   26.2660 F   0  0  0  0  0  0
   51.6421   99.5450   25.6120 F   0  0  0  0  0  0
   50.5447   97.9187   26.5136 F   0  0  0  0  0  0
   50.8626  102.2833   34.6573 C   0  0  0  0  0  0
   49.8951  101.5207   35.3158 C   0  0  0  0  0  0
   48.8043  102.1480   35.9107 C   0  0  0  0  0  0
   48.6877  103.5341   35.8659 C   0  0  0  0  0  0
   47.6425  104.1455   36.4645 F   0  0  0  0  0  0
   49.6410  104.3017   35.2106 C   0  0  0  0  0  0
   50.7138  103.6758   34.5848 C   0  0  0  0  0  0
   53.8355  102.9910   35.3402 C   0  0  0  0  0  0
   53.8760  102.2895   36.3495 O   0  0  0  0  0  0
   54.1192  104.3119   35.3022 N   0  0  0  0  0  0
   54.6263  105.1713   36.2883 C   0  0  0  0  0  0
   55.0849  104.7517   37.5473 C   0  0  0  0  0  0
   55.6276  105.6531   38.4611 C   0  0  0  0  0  0
   55.7223  107.0041   38.0987 C   0  0  0  0  0  0
   56.2531  108.0238   38.8340 N   0  0  0  0  0  0
   56.1233  109.0845   38.0205 N   0  0  0  0  0  0
   55.5317  108.8278   36.8113 C   0  0  0  0  0  0
   55.2522  107.4390   36.8223 C   0  0  0  0  0  0
   54.6968  106.5195   35.9236 C   0  0  0  0  0  0
   55.0802  104.5669   32.8083 H   0  0  0  0  0  0
   56.0434  103.2189   33.4158 H   0  0  0  0  0  0
   55.7115  103.3657   31.6870 H   0  0  0  0  0  0
   52.3134  100.7424   34.7185 H   0  0  0  0  0  0
   54.0656  102.2406   30.8918 H   0  0  0  0  0  0
   51.6517   98.7158   31.1438 H   0  0  0  0  0  0
   50.9544   97.8138   28.9588 H   0  0  0  0  0  0
   52.3231  102.5235   29.2312 H   0  0  0  0  0  0
   49.9891  100.4455   35.3741 H   0  0  0  0  0  0
   48.0454  101.5641   36.4094 H   0  0  0  0  0  0
   49.5473  105.3781   35.1851 H   0  0  0  0  0  0
   51.4462  104.2833   34.0711 H   0  0  0  0  0  0
   53.9510  104.7552   34.4124 H   0  0  0  0  0  0
   55.0460  103.7132   37.8373 H   0  0  0  0  0  0
   55.9830  105.3092   39.4230 H   0  0  0  0  0  0
   56.4609  109.9966   38.2991 H   0  0  0  0  0  0
   55.4027  109.6130   36.0808 H   0  0  0  0  0  0
   54.3541  106.8525   34.9527 H   0  0  0  0  0  0
  1  2  1  0  0  0
  1 37  1  0  0  0
  1 38  1  0  0  0
  1 39  1  0  0  0
  2  3  2  0  0  0
  2  7  1  0  0  0
  3  4  1  0  0  0
  3 25  1  0  0  0
  4  5  1  0  0  0
  4 18  1  0  0  0
  4 40  1  0  0  0
  5  6  2  0  0  0
  6  7  1  0  0  0
  6  8  1  0  0  0
  7 41  1  0  0  0
  8  9  2  0  0  0
  8 13  1  0  0  0
  9 10  1  0  0  0
  9 42  1  0  0  0
 10 11  2  0  0  0
 10 43  1  0  0  0
 11 12  1  0  0  0
 11 14  1  0  0  0
 12 13  2  0  0  0
 13 44  1  0  0  0
 14 15  1  0  0  0
 14 16  1  0  0  0
 14 17  1  0  0  0
 18 19  2  0  0  0
 18 24  1  0  0  0
 19 20  1  0  0  0
 19 45  1  0  0  0
 20 21  2  0  0  0
 20 46  1  0  0  0
 21 22  1  0  0  0
 21 23  1  0  0  0
 23 24  2  0  0  0
 23 47  1  0  0  0
 24 48  1  0  0  0
 25 26  2  0  0  0
 25 27  1  0  0  0
 27 49  1  0  0  0
 27 28  1  0  0  0
 28 29  1  0  0  0
 28 36  2  0  0  0
 29 30  2  0  0  0
 29 50  1  0  0  0
 30 31  1  0  0  0
 30 51  1  0  0  0
 31 32  2  0  0  0
 31 35  1  0  0  0
 32 33  1  0  0  0
 33 52  1  0  0  0
 33 34  1  0  0  0
 34 35  2  0  0  0
 34 53  1  0  0  0
 35 36  1  0  0  0
 36 54  1  0  0  0
M  END
> <s_m_entry_id>
28674

> <s_m_entry_name>
dock_pv.835

> <s_m_Source_Path>
/home/csk/Desktop/cluster/DUD-E-result/rock1

> <s_m_Source_File>
dock_pv.maegz

> <i_m_Source_File_Index>
835

> <chembl_id>
CHEMBL485598

> <chembl_pref_name>
GSK-317354A

> <i_lp_mmshare_version>
53161

> <r_lp_tautomer_probability>
0.0196078431372549

> <s_lp_Force_Field>
OPLS_2005

> <r_lp_Energy>
55.167499

> <b_lp_Chiralities_Consistent>
1

> <s_lp_Variant>
CHEMBL3231_lig79-3

> <s_i_glide_gridfile>
glide-grid_2etr

> <i_i_glide_lignum>
114

> <i_i_glide_rotatable_bonds>
6

> <r_i_docking_score>
-6.84661746843273

> <r_i_glide_ligand_efficiency>
-0.190183818567576

> <r_i_glide_ligand_efficiency_sa>
-0.627973132076993

> <r_i_glide_ligand_efficiency_ln>
-1.49374695738443

> <r_i_glide_gscore>
-6.84661746843273

> <r_i_glide_lipo>
-2.02727094094304

> <r_i_glide_hbond>
0

> <r_i_glide_metal>
0

> <r_i_glide_rewards>
-2.16682122051818

> <r_i_glide_evdw>
-42.9637603759766

> <r_i_glide_ecoul>
-5.80970525741577

> <r_i_glide_erotb>
0.41678168079608

> <r_i_glide_esite>
-0.0496631803564005

> <r_i_glide_emodel>
-66.8452806225072

> <r_i_glide_energy>
-48.7734656333923

> <r_i_glide_einternal>
6.7208137512207

> <i_i_glide_confnum>
11

> <i_i_glide_posenum>
285

> <r_i_glide_eff_state_penalty>
0

> <s_user_duplicate_titles>
CHEMBL3231_lig79

> <i_f3d_flags>
0

> <s_m_subgroup_title>
dock_pv

> <s_m_subgroupid>
dock_pv

> <b_m_subgroup_collapsed>
1

$$$$
CHEMBL3231_lig1687
                    3D
 Schrodinger Suite 2021-1.
 45 48  0  0  1  0            999 V2000
   52.8936   98.7005   29.6857 Cl  0  0  0  0  0  0
   50.1046   98.0458   25.1259 O   0  0  0  0  0  0
   50.7836  102.5200   33.1409 N   0  0  0  0  0  0
   52.2355  104.4322   33.4641 N   0  0  0  0  0  0
   52.1318  103.4028   31.3973 N   0  0  0  0  0  0
   50.8882   99.6690   27.3772 N   0  0  0  0  0  0
   49.3950  102.0161   35.0746 N   0  0  0  0  0  0
   50.7773  103.7824   35.2503 C   0  0  0  0  0  0
   50.3517  102.7337   34.3898 C   0  0  0  0  0  0
   51.7644  104.6309   34.7226 C   0  0  0  0  0  0
   51.7181  103.4204   32.7306 C   0  0  0  0  0  0
   51.2594  100.5414   28.4058 C   0  0  0  0  0  0
   51.8504  102.4585   30.4051 C   0  0  0  0  0  0
   52.1103  100.2268   29.4933 C   0  0  0  0  0  0
   50.0247  103.6708   36.4688 C   0  0  0  0  0  0
   52.3839  101.1753   30.4809 C   0  0  0  0  0  0
   50.7719  101.8582   28.3306 C   0  0  0  0  0  0
   51.0581  102.8047   29.3139 C   0  0  0  0  0  0
   49.1860  102.5841   36.3089 C   0  0  0  0  0  0
   52.3366  105.8353   35.4511 C   0  0  0  0  0  0
   51.2315   99.9903   25.9831 C   0  0  0  0  0  0
   50.8451   98.1992   27.4765 C   0  0  0  0  0  0
   50.1457   99.4635   25.0329 C   0  0  0  0  0  0
   49.8683   97.5813   26.4476 C   0  0  0  0  0  0
   51.3742  107.0341   35.4436 C   0  0  0  0  0  0
   52.8506  104.0819   31.1844 H   0  0  0  0  0  0
   48.8943  101.2034   34.7473 H   0  0  0  0  0  0
   50.0820  104.3000   37.3449 H   0  0  0  0  0  0
   53.0293  100.9193   31.3090 H   0  0  0  0  0  0
   50.1377  102.1520   27.5044 H   0  0  0  0  0  0
   50.6597  103.8045   29.2241 H   0  0  0  0  0  0
   48.4469  102.1561   36.9754 H   0  0  0  0  0  0
   52.5722  105.5464   36.4753 H   0  0  0  0  0  0
   53.2845  106.1376   34.9917 H   0  0  0  0  0  0
   51.3523  101.0635   25.8309 H   0  0  0  0  0  0
   52.1740   99.5065   25.7287 H   0  0  0  0  0  0
   51.8470   97.7855   27.3526 H   0  0  0  0  0  0
   50.4966   97.9204   28.4707 H   0  0  0  0  0  0
   50.4076   99.7361   24.0100 H   0  0  0  0  0  0
   49.1696   99.8997   25.2444 H   0  0  0  0  0  0
   49.9798   96.4983   26.4113 H   0  0  0  0  0  0
   48.8447   97.7943   26.7439 H   0  0  0  0  0  0
   51.8044  107.8829   35.9761 H   0  0  0  0  0  0
   51.1620  107.3654   34.4255 H   0  0  0  0  0  0
   50.4263  106.7920   35.9250 H   0  0  0  0  0  0
  1 14  1  0  0  0
  2 23  1  0  0  0
  2 24  1  0  0  0
  3  9  1  0  0  0
  3 11  2  0  0  0
  4 10  2  0  0  0
  4 11  1  0  0  0
  5 11  1  0  0  0
  5 13  1  0  0  0
  5 26  1  0  0  0
  6 12  1  0  0  0
  6 21  1  0  0  0
  6 22  1  0  0  0
  7  9  1  0  0  0
  7 19  1  0  0  0
  7 27  1  0  0  0
  8  9  2  0  0  0
  8 10  1  0  0  0
  8 15  1  0  0  0
 10 20  1  0  0  0
 12 14  1  0  0  0
 12 17  2  0  0  0
 13 16  1  0  0  0
 13 18  2  0  0  0
 14 16  2  0  0  0
 15 19  2  0  0  0
 15 28  1  0  0  0
 16 29  1  0  0  0
 17 18  1  0  0  0
 17 30  1  0  0  0
 18 31  1  0  0  0
 19 32  1  0  0  0
 20 25  1  0  0  0
 20 33  1  0  0  0
 20 34  1  0  0  0
 21 23  1  0  0  0
 21 35  1  0  0  0
 21 36  1  0  0  0
 22 24  1  0  0  0
 22 37  1  0  0  0
 22 38  1  0  0  0
 23 39  1  0  0  0
 23 40  1  0  0  0
 24 41  1  0  0  0
 24 42  1  0  0  0
 25 43  1  0  0  0
 25 44  1  0  0  0
 25 45  1  0  0  0
M  END
> <s_m_entry_id>
28675

> <s_m_entry_name>
dock_pv.836

> <s_m_Source_Path>
/home/csk/Desktop/cluster/DUD-E-result/rock1

> <s_m_Source_File>
dock_pv.maegz

> <i_m_Source_File_Index>
836

> <chembl_id>
CHEMBL2004118

> <chembl_pref_name>
None

> <i_lp_mmshare_version>
53161

> <r_lp_tautomer_probability>
1

> <s_lp_Force_Field>
OPLS_2005

> <r_lp_Energy>
20.561101

> <b_lp_Chiralities_Consistent>
1

> <s_lp_Variant>
CHEMBL3231_lig1687-1

> <s_i_glide_gridfile>
glide-grid_2etr

> <i_i_glide_lignum>
2404

> <i_i_glide_rotatable_bonds>
4

> <r_i_docking_score>
-6.84495341328694

> <r_i_glide_ligand_efficiency>
-0.273798136531477

> <r_i_glide_ligand_efficiency_sa>
-0.800590607048667

> <r_i_glide_ligand_efficiency_ln>
-1.62245908565009

> <r_i_glide_gscore>
-6.84495341328694

> <r_i_glide_lipo>
-2.41918072118333

> <r_i_glide_hbond>
-0.32

> <r_i_glide_metal>
0

> <r_i_glide_rewards>
-2.00635103490474

> <r_i_glide_evdw>
-38.6943016052246

> <r_i_glide_ecoul>
-3.32466149330139

> <r_i_glide_erotb>
0.448632991737424

> <r_i_glide_esite>
-0.114640344679849

> <r_i_glide_emodel>
-55.3120018032022

> <r_i_glide_energy>
-42.018963098526

> <r_i_glide_einternal>
5.20541191101074

> <i_i_glide_confnum>
10

> <i_i_glide_posenum>
162

> <r_i_glide_eff_state_penalty>
0

> <s_user_duplicate_titles>
CHEMBL3231_lig1687

> <i_f3d_flags>
0

> <s_m_subgroup_title>
dock_pv

> <s_m_subgroupid>
dock_pv

> <b_m_subgroup_collapsed>
1

$$$$
CHEMBL3231_lig180
                    3D
 Schrodinger Suite 2021-1.
 48 50  0  0  1  0            999 V2000
   51.6028  102.0941   28.7794 C   0  0  0  0  0  0
   51.5193  100.6996   28.6930 C   0  0  0  0  0  0
   51.9707   99.9478   29.7353 N   0  0  0  0  0  0
   52.5175  100.5533   30.8289 C   0  0  0  0  0  0
   52.6103  101.9659   30.8876 C   0  0  0  0  0  0
   52.1526  102.7212   29.8468 N   0  0  0  0  0  0
   53.1373  102.6463   32.0145 N   0  0  0  0  0  0
   50.9840   99.9633   27.4937 C   0  0  0  0  0  0
   50.0428   98.5630   25.2118 N   0  0  0  0  0  0
   50.0978   99.9166   25.2330 C   0  0  0  0  0  0
   50.5566  100.6413   26.3361 C   0  0  0  0  0  0
   52.9858   99.6948   31.8243 N   0  0  0  0  0  0
   52.3403  102.5288   33.2336 C   0  0  0  0  0  0
   50.4432   97.9037   26.3254 C   0  0  0  0  0  0
   50.9105   98.5568   27.4668 C   0  0  0  0  0  0
   52.4089   98.3735   32.1063 C   0  0  0  0  0  0
   53.3622   97.2401   31.7031 C   0  0  0  0  0  0
   54.5585   97.3154   32.5453 N   0  0  0  0  0  0
   55.2430   98.5699   32.2009 C   0  0  0  0  0  0
   54.3266   99.8035   32.4383 C   0  0  0  0  0  0
   55.4399   96.1548   32.3493 C   0  0  0  0  0  0
   54.8699   94.9203   33.0860 C   0  0  0  0  0  0
   55.6429   93.7715   32.8109 O   0  0  0  0  0  0
   53.7510  103.9542   31.8098 C   0  0  0  0  0  0
   51.2434  102.7470   28.0026 H   0  0  0  0  0  0
   49.7678  100.4216   24.3357 H   0  0  0  0  0  0
   50.5804  101.7168   26.2656 H   0  0  0  0  0  0
   52.0254  101.5036   33.4260 H   0  0  0  0  0  0
   52.9151  102.8581   34.1006 H   0  0  0  0  0  0
   51.4379  103.1373   33.1609 H   0  0  0  0  0  0
   50.3947   96.8244   26.2929 H   0  0  0  0  0  0
   51.2219   97.9623   28.3136 H   0  0  0  0  0  0
   52.1740   98.3164   33.1689 H   0  0  0  0  0  0
   51.4605   98.2422   31.5852 H   0  0  0  0  0  0
   53.6268   97.3268   30.6491 H   0  0  0  0  0  0
   52.8446   96.2951   31.8169 H   0  0  0  0  0  0
   56.1342   98.6738   32.8217 H   0  0  0  0  0  0
   55.5973   98.5540   31.1672 H   0  0  0  0  0  0
   54.2164   99.9970   33.5059 H   0  0  0  0  0  0
   54.8493  100.6702   32.0315 H   0  0  0  0  0  0
   56.4049   96.4101   32.7917 H   0  0  0  0  0  0
   55.5452   95.9728   31.2779 H   0  0  0  0  0  0
   53.8420   94.7028   32.7995 H   0  0  0  0  0  0
   54.8625   95.0895   34.1634 H   0  0  0  0  0  0
   56.3308   93.6718   33.4846 H   0  0  0  0  0  0
   54.4363  103.9147   30.9612 H   0  0  0  0  0  0
   53.0002  104.7144   31.6024 H   0  0  0  0  0  0
   54.3300  104.2542   32.6831 H   0  0  0  0  0  0
  1  6  1  0  0  0
  1  2  2  0  0  0
  1 25  1  0  0  0
  2  8  1  0  0  0
  2  3  1  0  0  0
  3  4  2  0  0  0
  4 12  1  0  0  0
  4  5  1  0  0  0
  5  6  2  0  0  0
  5  7  1  0  0  0
  7 13  1  0  0  0
  7 24  1  0  0  0
  8 15  2  0  0  0
  8 11  1  0  0  0
  9 14  2  0  0  0
  9 10  1  0  0  0
 10 11  2  0  0  0
 10 26  1  0  0  0
 11 27  1  0  0  0
 12 16  1  0  0  0
 12 20  1  0  0  0
 13 28  1  0  0  0
 13 29  1  0  0  0
 13 30  1  0  0  0
 14 15  1  0  0  0
 14 31  1  0  0  0
 15 32  1  0  0  0
 16 17  1  0  0  0
 16 33  1  0  0  0
 16 34  1  0  0  0
 17 18  1  0  0  0
 17 35  1  0  0  0
 17 36  1  0  0  0
 18 19  1  0  0  0
 18 21  1  0  0  0
 19 20  1  0  0  0
 19 37  1  0  0  0
 19 38  1  0  0  0
 20 39  1  0  0  0
 20 40  1  0  0  0
 21 22  1  0  0  0
 21 41  1  0  0  0
 21 42  1  0  0  0
 22 23  1  0  0  0
 22 43  1  0  0  0
 22 44  1  0  0  0
 23 45  1  0  0  0
 24 46  1  0  0  0
 24 47  1  0  0  0
 24 48  1  0  0  0
M  END
> <s_m_entry_id>
28676

> <s_m_entry_name>
dock_pv.837

> <s_m_Source_Path>
/home/csk/Desktop/cluster/DUD-E-result/rock1

> <s_m_Source_File>
dock_pv.maegz

> <i_m_Source_File_Index>
837

> <chembl_id>
CHEMBL611386

> <chembl_pref_name>
None

> <i_lp_mmshare_version>
53161

> <r_lp_tautomer_probability>
1

> <s_lp_Force_Field>
OPLS_2005

> <r_lp_Energy>
62.032263

> <b_lp_Chiralities_Consistent>
1

> <s_lp_Variant>
CHEMBL3231_lig180-1

> <s_i_glide_gridfile>
glide-grid_2etr

> <i_i_glide_lignum>
307

> <i_i_glide_rotatable_bonds>
6

> <r_i_docking_score>
-6.84430249170267

> <r_i_glide_ligand_efficiency>
-0.285179270487611

> <r_i_glide_ligand_efficiency_sa>
-0.822599359771254

> <r_i_glide_ligand_efficiency_ln>
-1.63815565084107

> <r_i_glide_gscore>
-6.84430249170267

> <r_i_glide_lipo>
-2.22575838164728

> <r_i_glide_hbond>
-0.511286895370854

> <r_i_glide_metal>
0

> <r_i_glide_rewards>
-1.81779050748814

> <r_i_glide_evdw>
-39.568359375

> <r_i_glide_ecoul>
-6.43561315536499

> <r_i_glide_erotb>
0.696538763786842

> <r_i_glide_esite>
-0.0422455289284931

> <r_i_glide_emodel>
-62.3159707009239

> <r_i_glide_energy>
-46.003972530365

> <r_i_glide_einternal>
8.07877063751221

> <i_i_glide_confnum>
194

> <i_i_glide_posenum>
253

> <r_i_glide_eff_state_penalty>
0

> <s_user_duplicate_titles>
CHEMBL3231_lig180

> <i_f3d_flags>
0

> <s_m_subgroup_title>
dock_pv

> <s_m_subgroupid>
dock_pv

> <b_m_subgroup_collapsed>
1

$$$$
CHEMBL3231_lig1708
                    3D
 Schrodinger Suite 2021-1.
 37 38  0  0  1  0            999 V2000
   50.7020  101.7688   35.2122 O   0  0  0  0  0  0
   50.9631  103.1089   30.3964 O   0  0  0  0  0  0
   51.2579  101.9080   32.9274 N   0  0  0  0  0  0
   51.9729  101.2930   29.4770 N   0  0  0  0  0  0
   54.7595   99.6591   33.4770 N   0  0  0  0  0  0
   53.2090   99.8092   36.8425 N   0  0  0  0  0  0
   50.0433   98.3962   25.6026 N   0  0  0  0  0  0
   52.7127  100.6745   34.4195 C   0  0  0  0  0  0
   52.0765  101.6001   31.8830 C   0  0  0  0  0  0
   51.5664  101.4493   34.1728 C   0  0  0  0  0  0
   53.5750  100.3926   33.3373 C   0  0  0  0  0  0
   53.2505  100.8568   32.0644 C   0  0  0  0  0  0
   51.6406  102.0832   30.5178 C   0  0  0  0  0  0
   52.9903  100.1918   35.7729 C   0  0  0  0  0  0
   51.6561  101.5823   28.0744 C   0  0  0  0  0  0
   51.0943  100.4380   27.2347 C   0  0  0  0  0  0
   49.6180  102.6735   34.9903 C   0  0  0  0  0  0
   50.5556  100.7317   25.9757 C   0  0  0  0  0  0
   51.0921   99.1044   27.6701 C   0  0  0  0  0  0
   50.0442   99.6926   25.1957 C   0  0  0  0  0  0
   50.5609   98.1236   26.8276 C   0  0  0  0  0  0
   48.8442  102.8527   36.3004 C   0  0  0  0  0  0
   52.5894  100.5130   29.6460 H   0  0  0  0  0  0
   55.0391   99.3270   34.3917 H   0  0  0  0  0  0
   55.3640   99.5172   32.6771 H   0  0  0  0  0  0
   53.9109  100.6446   31.2324 H   0  0  0  0  0  0
   50.9749  102.4315   27.9857 H   0  0  0  0  0  0
   52.5854  101.9028   27.6044 H   0  0  0  0  0  0
   48.9427  102.3017   34.2195 H   0  0  0  0  0  0
   49.9932  103.6417   34.6512 H   0  0  0  0  0  0
   50.5349  101.7496   25.6104 H   0  0  0  0  0  0
   51.4930   98.8251   28.6338 H   0  0  0  0  0  0
   49.6393   99.8913   24.2130 H   0  0  0  0  0  0
   50.5502   97.0894   27.1314 H   0  0  0  0  0  0
   48.0094  103.5423   36.1773 H   0  0  0  0  0  0
   49.4902  103.2429   37.0896 H   0  0  0  0  0  0
   48.4438  101.9003   36.6470 H   0  0  0  0  0  0
  1 10  1  0  0  0
  1 17  1  0  0  0
  2 13  2  0  0  0
  3  9  1  0  0  0
  3 10  2  0  0  0
  4 13  1  0  0  0
  4 15  1  0  0  0
  4 23  1  0  0  0
  5 11  1  0  0  0
  5 24  1  0  0  0
  5 25  1  0  0  0
  6 14  3  0  0  0
  7 20  2  0  0  0
  7 21  1  0  0  0
  8 10  1  0  0  0
  8 11  2  0  0  0
  8 14  1  0  0  0
  9 12  2  0  0  0
  9 13  1  0  0  0
 11 12  1  0  0  0
 12 26  1  0  0  0
 15 16  1  0  0  0
 15 27  1  0  0  0
 15 28  1  0  0  0
 16 18  2  0  0  0
 16 19  1  0  0  0
 17 22  1  0  0  0
 17 29  1  0  0  0
 17 30  1  0  0  0
 18 20  1  0  0  0
 18 31  1  0  0  0
 19 21  2  0  0  0
 19 32  1  0  0  0
 20 33  1  0  0  0
 21 34  1  0  0  0
 22 35  1  0  0  0
 22 36  1  0  0  0
 22 37  1  0  0  0
M  END
> <s_m_entry_id>
28677

> <s_m_entry_name>
dock_pv.838

> <s_m_Source_Path>
/home/csk/Desktop/cluster/DUD-E-result/rock1

> <s_m_Source_File>
dock_pv.maegz

> <i_m_Source_File_Index>
838

> <chembl_id>
CHEMBL1984206

> <chembl_pref_name>
None

> <i_lp_mmshare_version>
53161

> <r_lp_tautomer_probability>
1

> <s_lp_Force_Field>
OPLS_2005

> <r_lp_Energy>
11.339365

> <b_lp_Chiralities_Consistent>
1

> <s_lp_Variant>
CHEMBL3231_lig1708-1

> <s_i_glide_gridfile>
glide-grid_2etr

> <i_i_glide_lignum>
2437

> <i_i_glide_rotatable_bonds>
6

> <r_i_docking_score>
-6.84337473320897

> <r_i_glide_ligand_efficiency>
-0.311062487873135

> <r_i_glide_ligand_efficiency_sa>
-0.871609324413978

> <r_i_glide_ligand_efficiency_ln>
-1.6727704029547

> <r_i_glide_gscore>
-6.84337473320897

> <r_i_glide_lipo>
-2.28926995489653

> <r_i_glide_hbond>
-0.102752909312423

> <r_i_glide_metal>
0

> <r_i_glide_rewards>
-2.63954189461569

> <r_i_glide_evdw>
-37.703052520752

> <r_i_glide_ecoul>
-4.723792552948

> <r_i_glide_erotb>
0.829625725513786

> <r_i_glide_esite>
-0.0477141909183128

> <r_i_glide_emodel>
-61.6979668665338

> <r_i_glide_energy>
-42.4268450737

> <r_i_glide_einternal>
1.48322939872742

> <i_i_glide_confnum>
1

> <i_i_glide_posenum>
143

> <r_i_glide_eff_state_penalty>
0

> <s_user_duplicate_titles>
CHEMBL3231_lig1708

> <i_f3d_flags>
0

> <s_m_subgroup_title>
dock_pv

> <s_m_subgroupid>
dock_pv

> <b_m_subgroup_collapsed>
1

$$$$
CHEMBL3231_lig1161
                    3D
 Schrodinger Suite 2021-1.
 43 46  0  0  1  0            999 V2000
   50.0432   98.3033   24.8809 Cl  0  0  0  0  0  0
   51.4124  104.3803   37.1834 S   0  0  0  0  0  0
   53.6632   96.8999   33.7152 S   0  0  0  0  0  0
   51.6906  100.2593   31.3028 O   0  0  0  0  0  0
   47.8773  103.9725   35.5637 N   0  0  0  0  0  0
   48.8319  101.7588   35.3577 N   0  0  0  0  0  0
   50.9516  101.1602   36.0110 N   0  0  0  0  0  0
   52.8437   99.3422   33.7702 N   0  0  0  0  0  0
   52.5754   98.1818   31.6479 N   0  0  0  0  0  0
   51.8351   98.7026   29.6284 N   0  0  0  0  0  0
   50.1216  103.5109   36.3481 C   0  0  0  0  0  0
   49.0133  104.3796   36.1286 C   0  0  0  0  0  0
   49.9914  102.1734   35.9105 C   0  0  0  0  0  0
   49.2485  105.7122   36.5491 C   0  0  0  0  0  0
   52.9553   98.2964   32.9779 C   0  0  0  0  0  0
   53.2916   99.0997   34.9923 C   0  0  0  0  0  0
   50.4879  105.8612   37.1316 C   0  0  0  0  0  0
   47.8466  102.6693   35.2100 C   0  0  0  0  0  0
   53.7751   97.8091   35.1893 C   0  0  0  0  0  0
   53.2743  100.2164   36.0302 C   0  0  0  0  0  0
   52.3631  101.4309   35.7685 C   0  0  0  0  0  0
   52.0086   99.1405   30.8916 C   0  0  0  0  0  0
   51.3669   99.4069   28.5020 C   0  0  0  0  0  0
   50.9828   98.6404   27.3978 C   0  0  0  0  0  0
   50.5198   99.2559   26.2338 C   0  0  0  0  0  0
   51.2944  100.8082   28.4162 C   0  0  0  0  0  0
   50.4420  100.6450   26.1615 C   0  0  0  0  0  0
   50.8308  101.4203   27.2522 C   0  0  0  0  0  0
   50.6288  100.3035   35.5850 H   0  0  0  0  0  0
   52.7769   97.2910   31.2157 H   0  0  0  0  0  0
   52.0357   97.7297   29.4612 H   0  0  0  0  0  0
   48.5271  106.5027   36.4114 H   0  0  0  0  0  0
   50.9227  106.7658   37.5322 H   0  0  0  0  0  0
   46.9293  102.3128   34.7605 H   0  0  0  0  0  0
   54.2025   97.3770   36.0817 H   0  0  0  0  0  0
   54.2805  100.6287   35.9392 H   0  0  0  0  0  0
   53.2689   99.9156   37.0795 H   0  0  0  0  0  0
   52.5484  101.8838   34.7926 H   0  0  0  0  0  0
   52.7030  102.2207   36.4314 H   0  0  0  0  0  0
   51.0388   97.5604   27.4320 H   0  0  0  0  0  0
   51.6023  101.4420   29.2324 H   0  0  0  0  0  0
   50.0824  101.1202   25.2611 H   0  0  0  0  0  0
   50.7698  102.4970   27.1959 H   0  0  0  0  0  0
  1 25  1  0  0  0
  2 11  1  0  0  0
  2 17  1  0  0  0
  3 15  1  0  0  0
  3 19  1  0  0  0
  4 22  2  0  0  0
  5 12  1  0  0  0
  5 18  2  0  0  0
  6 13  2  0  0  0
  6 18  1  0  0  0
  7 13  1  0  0  0
  7 21  1  0  0  0
  7 29  1  0  0  0
  8 15  2  0  0  0
  8 16  1  0  0  0
  9 15  1  0  0  0
  9 22  1  0  0  0
  9 30  1  0  0  0
 10 22  1  0  0  0
 10 23  1  0  0  0
 10 31  1  0  0  0
 11 12  2  0  0  0
 11 13  1  0  0  0
 12 14  1  0  0  0
 14 17  2  0  0  0
 14 32  1  0  0  0
 16 19  2  0  0  0
 16 20  1  0  0  0
 17 33  1  0  0  0
 18 34  1  0  0  0
 19 35  1  0  0  0
 20 21  1  0  0  0
 20 36  1  0  0  0
 20 37  1  0  0  0
 21 38  1  0  0  0
 21 39  1  0  0  0
 23 24  2  0  0  0
 23 26  1  0  0  0
 24 25  1  0  0  0
 24 40  1  0  0  0
 25 27  2  0  0  0
 26 28  2  0  0  0
 26 41  1  0  0  0
 27 28  1  0  0  0
 27 42  1  0  0  0
 28 43  1  0  0  0
M  END
> <s_m_entry_id>
28678

> <s_m_entry_name>
dock_pv.839

> <s_m_Source_Path>
/home/csk/Desktop/cluster/DUD-E-result/rock1

> <s_m_Source_File>
dock_pv.maegz

> <i_m_Source_File_Index>
839

> <chembl_id>
CHEMBL1986177

> <chembl_pref_name>
None

> <i_lp_mmshare_version>
53161

> <r_lp_tautomer_probability>
0.999000488399163

> <s_lp_Force_Field>
OPLS_2005

> <r_lp_Energy>
12.371332

> <b_lp_Chiralities_Consistent>
1

> <s_lp_Variant>
CHEMBL3231_lig1161-1

> <s_i_glide_gridfile>
glide-grid_2etr

> <i_i_glide_lignum>
1608

> <i_i_glide_rotatable_bonds>
8

> <r_i_docking_score>
-6.83890009900032

> <r_i_glide_ligand_efficiency>
-0.244246432107154

> <r_i_glide_ligand_efficiency_sa>
-0.741676021332757

> <r_i_glide_ligand_efficiency_ln>
-1.57861894168144

> <r_i_glide_gscore>
-6.83890009900032

> <r_i_glide_lipo>
-2.93916475401194

> <r_i_glide_hbond>
0

> <r_i_glide_metal>
0

> <r_i_glide_rewards>
-1.64440808081954

> <r_i_glide_evdw>
-49.6198959350586

> <r_i_glide_ecoul>
-2.77877712249756

> <r_i_glide_erotb>
0.642484100958717

> <r_i_glide_esite>
0

> <r_i_glide_emodel>
-69.0301410839198

> <r_i_glide_energy>
-52.3986730575562

> <r_i_glide_einternal>
12.9727096557617

> <i_i_glide_confnum>
11

> <i_i_glide_posenum>
51

> <r_i_glide_eff_state_penalty>
0

> <s_user_duplicate_titles>
CHEMBL3231_lig1161

> <i_f3d_flags>
0

> <s_m_subgroup_title>
dock_pv

> <s_m_subgroupid>
dock_pv

> <b_m_subgroup_collapsed>
1

$$$$
CHEMBL3231_lig318
                    3D
 Schrodinger Suite 2021-1.
 46 49  0  0  1  0            999 V2000
   51.2432   98.3017   29.4049 C   0  0  0  0  0  0
   51.3781   99.3304   28.4643 C   0  0  0  0  0  0
   51.8985  100.5537   28.7496 N   0  0  0  0  0  0
   51.5973   98.5293   30.7354 C   0  0  0  0  0  0
   52.0783   99.8022   31.0754 C   0  0  0  0  0  0
   52.2303  100.7533   30.0290 C   0  0  0  0  0  0
   52.7547  101.9166   30.5707 N   0  0  0  0  0  0
   52.9100  101.7293   31.9421 C   0  0  0  0  0  0
   52.4686  100.4571   32.2804 C   0  0  0  0  0  0
   53.3710  102.7300   32.8596 C   0  0  0  0  0  0
   52.6667  103.1063   33.7977 O   0  0  0  0  0  0
   54.5941  103.1993   32.5679 N   0  0  0  0  0  0
   55.2642  104.3261   33.2113 C   0  0  0  0  0  0
   55.2601  104.3501   34.7357 C   0  0  0  0  0  0
   54.5128  105.3176   35.4146 C   0  0  0  0  0  0
   54.5219  105.3785   36.8186 C   0  0  0  0  0  0
   55.3004  104.4585   37.5244 C   0  0  0  0  0  0
   56.0557  103.4956   36.8534 C   0  0  0  0  0  0
   56.0409  103.4461   35.4607 C   0  0  0  0  0  0
   50.8755   99.1734   27.0721 C   0  0  0  0  0  0
   50.4937   97.9915   26.4212 C   0  0  0  0  0  0
   50.0430   98.1901   25.2086 N   0  0  0  0  0  0
   50.1228   99.5070   25.0279 N   0  0  0  0  0  0
   50.6382  100.1565   26.1153 C   0  0  0  0  0  0
   53.8101  106.2960   37.5656 O   0  0  0  0  0  0
   53.0088  107.2634   36.8950 C   0  0  0  0  0  0
   53.1151  103.1028   29.7853 C   0  0  0  0  0  0
   50.8313   97.3441   29.1234 H   0  0  0  0  0  0
   51.4770   97.7579   31.4838 H   0  0  0  0  0  0
   52.4599  100.0515   33.2818 H   0  0  0  0  0  0
   55.0549  102.8224   31.7504 H   0  0  0  0  0  0
   54.8421  105.2511   32.8112 H   0  0  0  0  0  0
   56.3013  104.3034   32.8741 H   0  0  0  0  0  0
   53.9187  106.0089   34.8360 H   0  0  0  0  0  0
   55.3151  104.4935   38.6036 H   0  0  0  0  0  0
   56.6523  102.7859   37.4085 H   0  0  0  0  0  0
   56.6313  102.7006   34.9480 H   0  0  0  0  0  0
   50.5384   96.9965   26.8367 H   0  0  0  0  0  0
   49.8198   99.9496   24.1686 H   0  0  0  0  0  0
   50.7614  101.2297   26.1267 H   0  0  0  0  0  0
   52.5295  107.9088   37.6323 H   0  0  0  0  0  0
   53.6088  107.9000   36.2437 H   0  0  0  0  0  0
   52.2193  106.7911   36.3073 H   0  0  0  0  0  0
   52.3519  103.2904   29.0289 H   0  0  0  0  0  0
   53.1930  103.9888   30.4161 H   0  0  0  0  0  0
   54.0721  102.9282   29.2912 H   0  0  0  0  0  0
  1  2  2  0  0  0
  1  4  1  0  0  0
  1 28  1  0  0  0
  2  3  1  0  0  0
  2 20  1  0  0  0
  3  6  2  0  0  0
  4  5  2  0  0  0
  4 29  1  0  0  0
  5  9  1  0  0  0
  5  6  1  0  0  0
  6  7  1  0  0  0
  7  8  1  0  0  0
  7 27  1  0  0  0
  8  9  2  0  0  0
  8 10  1  0  0  0
  9 30  1  0  0  0
 10 11  2  0  0  0
 10 12  1  0  0  0
 12 13  1  0  0  0
 12 31  1  0  0  0
 13 14  1  0  0  0
 13 32  1  0  0  0
 13 33  1  0  0  0
 14 15  2  0  0  0
 14 19  1  0  0  0
 15 16  1  0  0  0
 15 34  1  0  0  0
 16 17  2  0  0  0
 16 25  1  0  0  0
 17 18  1  0  0  0
 17 35  1  0  0  0
 18 19  2  0  0  0
 18 36  1  0  0  0
 19 37  1  0  0  0
 20 24  2  0  0  0
 20 21  1  0  0  0
 21 38  1  0  0  0
 21 22  2  0  0  0
 22 23  1  0  0  0
 23 39  1  0  0  0
 23 24  1  0  0  0
 24 40  1  0  0  0
 25 26  1  0  0  0
 26 41  1  0  0  0
 26 42  1  0  0  0
 26 43  1  0  0  0
 27 44  1  0  0  0
 27 45  1  0  0  0
 27 46  1  0  0  0
M  END
> <s_m_entry_id>
28679

> <s_m_entry_name>
dock_pv.840

> <s_m_Source_Path>
/home/csk/Desktop/cluster/DUD-E-result/rock1

> <s_m_Source_File>
dock_pv.maegz

> <i_m_Source_File_Index>
840

> <chembl_id>
CHEMBL1922035

> <chembl_pref_name>
None

> <i_lp_mmshare_version>
53161

> <r_lp_tautomer_probability>
0.5

> <s_lp_Force_Field>
OPLS_2005

> <r_lp_Energy>
18.662041

> <b_lp_Chiralities_Consistent>
1

> <s_lp_Variant>
CHEMBL3231_lig318-1

> <s_i_glide_gridfile>
glide-grid_2etr

> <i_i_glide_lignum>
466

> <i_i_glide_rotatable_bonds>
6

> <r_i_docking_score>
-6.83791872926359

> <r_i_glide_ligand_efficiency>
-0.253256249231985

> <r_i_glide_ligand_efficiency_sa>
-0.759768746861263

> <r_i_glide_ligand_efficiency_ln>
-1.59175474827183

> <r_i_glide_gscore>
-6.83791872926359

> <r_i_glide_lipo>
-1.79692484505786

> <r_i_glide_hbond>
-0.31822728210367

> <r_i_glide_metal>
0

> <r_i_glide_rewards>
-2.05618392375046

> <r_i_glide_evdw>
-40.6242828369141

> <r_i_glide_ecoul>
-7.31749057769775

> <r_i_glide_erotb>
0.514250208342209

> <r_i_glide_esite>
-0.0519951581934367

> <r_i_glide_emodel>
-66.5967918570922

> <r_i_glide_energy>
-47.9417734146118

> <r_i_glide_einternal>
4.93543004989624

> <i_i_glide_confnum>
9

> <i_i_glide_posenum>
77

> <r_i_glide_eff_state_penalty>
0

> <s_user_duplicate_titles>
CHEMBL3231_lig318

> <i_f3d_flags>
0

> <s_m_subgroup_title>
dock_pv

> <s_m_subgroupid>
dock_pv

> <b_m_subgroup_collapsed>
1

$$$$
CHEMBL3231_lig1678
                    3D
 Schrodinger Suite 2021-1.
 38 41  0  0  1  0            999 V2000
   51.6593  101.9976   32.1976 O   0  0  0  0  0  0
   50.0523   97.8409   25.6789 O   0  0  0  0  0  0
   53.6498  100.9441   32.6952 N   0  0  0  0  0  0
   51.4794  100.4697   29.5629 N   0  0  0  0  0  0
   55.1242   94.3441   32.8115 N   0  0  0  0  0  0
   51.9936   99.5626   31.8306 C   0  0  2  0  0  0
   53.1900   98.7715   32.2904 C   0  0  0  0  0  0
   51.5991   99.3667   30.3482 C   0  0  0  0  0  0
   54.1505   99.6529   32.7473 C   0  0  0  0  0  0
   52.3804  101.0002   32.2541 C   0  0  0  0  0  0
   51.0519  100.3445   28.2829 C   0  0  0  0  0  0
   50.8428   99.0941   27.6692 C   0  0  0  0  0  0
   53.4402   97.3984   32.3286 C   0  0  0  0  0  0
   51.2980   98.0985   29.8434 C   0  0  0  0  0  0
   55.3872   99.2030   33.2101 C   0  0  0  0  0  0
   54.6694   96.9202   32.7938 C   0  0  0  0  0  0
   50.9754   97.9688   28.4926 C   0  0  0  0  0  0
   50.7260   98.9922   26.1410 C   0  0  2  0  0  0
   55.6432   97.8285   33.2282 C   0  0  0  0  0  0
   50.6941  101.6307   27.5604 C   0  0  0  0  0  0
   50.1328  100.2619   25.5085 C   0  0  0  0  0  0
   50.8415  101.5164   26.0414 C   0  0  0  0  0  0
   54.9275   95.4857   32.8073 C   0  0  0  0  0  0
   50.4981   97.0700   26.0416 H   0  0  0  0  0  0
   54.1544  101.7587   33.0098 H   0  0  0  0  0  0
   51.1131   99.2959   32.4097 H   0  0  0  0  0  0
   52.6853   96.7029   32.0014 H   0  0  0  0  0  0
   51.3447   97.2150   30.4589 H   0  0  0  0  0  0
   56.1476   99.8900   33.5537 H   0  0  0  0  0  0
   50.8435   96.9814   28.0865 H   0  0  0  0  0  0
   51.7445   98.8820   25.7656 H   0  0  0  0  0  0
   56.6106   97.4816   33.5676 H   0  0  0  0  0  0
   49.6465  101.8352   27.7869 H   0  0  0  0  0  0
   51.2592  102.4768   27.9537 H   0  0  0  0  0  0
   49.0619  100.3057   25.7128 H   0  0  0  0  0  0
   50.1943  100.2020   24.4205 H   0  0  0  0  0  0
   50.4090  102.4163   25.6110 H   0  0  0  0  0  0
   51.8956  101.5031   25.7598 H   0  0  0  0  0  0
  1 10  2  0  0  0
  2 18  1  0  0  0
  2 24  1  0  0  0
  3  9  1  0  0  0
  3 10  1  0  0  0
  3 25  1  0  0  0
  4  8  1  0  0  0
  4 11  2  0  0  0
  5 23  3  0  0  0
  6  7  1  0  0  0
  6  8  1  0  0  0
  6 10  1  0  0  0
  6 26  1  0  0  0
  7  9  1  0  0  0
  7 13  2  0  0  0
  8 14  2  0  0  0
  9 15  2  0  0  0
 11 12  1  0  0  0
 11 20  1  0  0  0
 12 17  2  0  0  0
 12 18  1  0  0  0
 13 16  1  0  0  0
 13 27  1  0  0  0
 14 17  1  0  0  0
 14 28  1  0  0  0
 15 19  1  0  0  0
 15 29  1  0  0  0
 16 19  2  0  0  0
 16 23  1  0  0  0
 17 30  1  0  0  0
 18 21  1  0  0  0
 18 31  1  0  0  0
 19 32  1  0  0  0
 20 22  1  0  0  0
 20 33  1  0  0  0
 20 34  1  0  0  0
 21 22  1  0  0  0
 21 35  1  0  0  0
 21 36  1  0  0  0
 22 37  1  0  0  0
 22 38  1  0  0  0
M  END
> <s_m_entry_id>
28681

> <s_m_entry_name>
dock_pv.842

> <s_m_Source_Path>
/home/csk/Desktop/cluster/DUD-E-result/rock1

> <s_m_Source_File>
dock_pv.maegz

> <i_m_Source_File_Index>
842

> <chembl_id>
CHEMBL1985681

> <chembl_pref_name>
None

> <i_lp_mmshare_version>
53161

> <r_lp_tautomer_probability>
1

> <s_lp_Force_Field>
OPLS_2005

> <r_lp_Energy>
33.891136

> <b_lp_Chiralities_Consistent>
1

> <s_lp_Variant>
CHEMBL3231_lig1678-1

> <s_i_glide_gridfile>
glide-grid_2etr

> <i_i_glide_lignum>
2391

> <i_i_glide_rotatable_bonds>
2

> <r_i_docking_score>
-6.83342523976814

> <r_i_glide_ligand_efficiency>
-0.29710544520731

> <r_i_glide_ligand_efficiency_sa>
-0.84492836427608

> <r_i_glide_ligand_efficiency_ln>
-1.65238418505026

> <r_i_glide_gscore>
-6.83342523976814

> <r_i_glide_lipo>
-2.48177602333793

> <r_i_glide_hbond>
-0.0673371154875768

> <r_i_glide_metal>
0

> <r_i_glide_rewards>
-1.85844198621011

> <r_i_glide_evdw>
-37.9089698791504

> <r_i_glide_ecoul>
-4.69404077529907

> <r_i_glide_erotb>
0.197964064361684

> <r_i_glide_esite>
-0.0242795688418282

> <r_i_glide_emodel>
-57.1516571984369

> <r_i_glide_energy>
-42.6030106544495

> <r_i_glide_einternal>
4.66868114471436

> <i_i_glide_confnum>
1

> <i_i_glide_posenum>
337

> <r_i_glide_eff_state_penalty>
0

> <s_user_duplicate_titles>
CHEMBL3231_lig1678

> <i_f3d_flags>
0

> <s_m_subgroup_title>
dock_pv

> <s_m_subgroupid>
dock_pv

> <b_m_subgroup_collapsed>
1

$$$$
CHEMBL3231_lig2090
                    3D
 Schrodinger Suite 2021-1.
 35 37  0  0  1  0            999 V2000
   51.7567  100.6868   28.5616 C   0  0  0  0  0  0
   52.4136  100.0131   29.4927 N   0  0  0  0  0  0
   52.9393  100.7839   30.4156 C   0  0  0  0  0  0
   52.6787  102.4774   30.1924 S   0  0  0  0  0  0
   51.7440  102.0705   28.7824 C   0  0  0  0  0  0
   53.6469  100.3490   31.5238 N   0  0  0  0  0  0
   53.2678   99.2985   32.2850 C   0  0  0  0  0  0
   54.1590   98.9553   33.4914 C   0  0  0  0  0  0
   52.2376   98.6497   32.0862 O   0  0  0  0  0  0
   54.7357   97.5363   33.4683 C   0  0  0  0  0  0
   53.9113   96.4078   33.3565 C   0  0  0  0  0  0
   54.4568   95.1239   33.3452 C   0  0  0  0  0  0
   55.8326   94.9551   33.4671 C   0  0  0  0  0  0
   56.6624   96.0659   33.6071 C   0  0  0  0  0  0
   56.1148   97.3490   33.6110 C   0  0  0  0  0  0
   51.1323   99.9507   27.4113 C   0  0  0  0  0  0
   51.0130   98.5504   27.4207 C   0  0  0  0  0  0
   50.4678   97.9032   26.3126 C   0  0  0  0  0  0
   50.0428   98.5668   25.2107 N   0  0  0  0  0  0
   50.1398   99.9196   25.2104 C   0  0  0  0  0  0
   50.6751  100.6420   26.2791 C   0  0  0  0  0  0
   53.6430   94.0322   33.2084 O   0  0  0  0  0  0
   51.2770  102.8432   28.1916 H   0  0  0  0  0  0
   54.4429  100.9000   31.8096 H   0  0  0  0  0  0
   53.5650   99.0705   34.3981 H   0  0  0  0  0  0
   54.9702   99.6810   33.5752 H   0  0  0  0  0  0
   52.8428   96.5247   33.2668 H   0  0  0  0  0  0
   56.2595   93.9629   33.4568 H   0  0  0  0  0  0
   57.7310   95.9348   33.6954 H   0  0  0  0  0  0
   56.7793   98.1971   33.7007 H   0  0  0  0  0  0
   51.3458   97.9652   28.2660 H   0  0  0  0  0  0
   50.3797   96.8264   26.2954 H   0  0  0  0  0  0
   49.7854  100.4237   24.3219 H   0  0  0  0  0  0
   50.7447  101.7172   26.2138 H   0  0  0  0  0  0
   52.7296   94.2939   33.0186 H   0  0  0  0  0  0
  1  2  1  0  0  0
  1  5  2  0  0  0
  1 16  1  0  0  0
  2  3  2  0  0  0
  3  4  1  0  0  0
  3  6  1  0  0  0
  4  5  1  0  0  0
  5 23  1  0  0  0
  6  7  1  0  0  0
  6 24  1  0  0  0
  7  8  1  0  0  0
  7  9  2  0  0  0
  8 10  1  0  0  0
  8 25  1  0  0  0
  8 26  1  0  0  0
 10 11  2  0  0  0
 10 15  1  0  0  0
 11 12  1  0  0  0
 11 27  1  0  0  0
 12 13  2  0  0  0
 12 22  1  0  0  0
 13 14  1  0  0  0
 13 28  1  0  0  0
 14 15  2  0  0  0
 14 29  1  0  0  0
 15 30  1  0  0  0
 16 17  2  0  0  0
 16 21  1  0  0  0
 17 18  1  0  0  0
 17 31  1  0  0  0
 18 19  2  0  0  0
 18 32  1  0  0  0
 19 20  1  0  0  0
 20 21  2  0  0  0
 20 33  1  0  0  0
 21 34  1  0  0  0
 22 35  1  0  0  0
M  END
> <s_m_entry_id>
28682

> <s_m_entry_name>
dock_pv.843

> <s_m_Source_Path>
/home/csk/Desktop/cluster/DUD-E-result/rock1

> <s_m_Source_File>
dock_pv.maegz

> <i_m_Source_File_Index>
843

> <chembl_id>
CHEMBL3581123

> <chembl_pref_name>
None

> <i_lp_mmshare_version>
53161

> <r_lp_tautomer_probability>
0.999000488396533

> <s_lp_Force_Field>
OPLS_2005

> <r_lp_Energy>
9.935268

> <b_lp_Chiralities_Consistent>
1

> <s_lp_Variant>
CHEMBL3231_lig2090-1

> <s_i_glide_gridfile>
glide-grid_2etr

> <i_i_glide_lignum>
3018

> <i_i_glide_rotatable_bonds>
6

> <r_i_docking_score>
-6.83204611485816

> <r_i_glide_ligand_efficiency>
-0.310547550675371

> <r_i_glide_ligand_efficiency_sa>
-0.870166450134513

> <r_i_glide_ligand_efficiency_ln>
-1.67000127540837

> <r_i_glide_gscore>
-6.83204611485816

> <r_i_glide_lipo>
-2.15540553339664

> <r_i_glide_hbond>
-0.423996126302306

> <r_i_glide_metal>
0

> <r_i_glide_rewards>
-1.90698236969426

> <r_i_glide_evdw>
-39.1164207458496

> <r_i_glide_ecoul>
-8.69125175476074

> <r_i_glide_erotb>
0.956429311119262

> <r_i_glide_esite>
-0.0425825960776367

> <r_i_glide_emodel>
-66.7544531183338

> <r_i_glide_energy>
-47.8076725006104

> <r_i_glide_einternal>
2.24235343933105

> <i_i_glide_confnum>
27

> <i_i_glide_posenum>
183

> <r_i_glide_eff_state_penalty>
0

> <s_user_duplicate_titles>
CHEMBL3231_lig2090

> <i_f3d_flags>
0

> <s_m_subgroup_title>
dock_pv

> <s_m_subgroupid>
dock_pv

> <b_m_subgroup_collapsed>
1

$$$$
CHEMBL3231_lig448
                    3D
 Schrodinger Suite 2021-1.
 42 44  0  0  1  0            999 V2000
   54.9878  101.0765   34.3488 C   0  0  0  0  0  0
   53.5083  101.1534   34.7700 C   0  0  0  0  0  0
   52.8089  102.4930   34.4003 C   0  0  1  0  0  0
   52.9187  102.8331   32.9738 N   0  0  0  0  0  0
   52.3152  102.1932   31.9575 C   0  0  0  0  0  0
   51.8174  101.0698   32.0513 O   0  0  0  0  0  0
   52.2729  102.9656   30.8567 N   0  0  0  0  0  0
   51.6207  102.6321   29.6827 C   0  0  0  0  0  0
   51.5431  101.4403   29.1285 N   0  0  0  0  0  0
   50.8983  101.4619   27.9697 C   0  0  0  0  0  0
   50.4430  102.7288   27.6110 C   0  0  0  0  0  0
   50.8430  103.9030   28.8110 S   0  0  0  0  0  0
   50.6986  100.2216   27.1539 C   0  0  0  0  0  0
   50.9289   98.9460   27.6869 C   0  0  0  0  0  0
   50.6884   97.8278   26.8899 C   0  0  0  0  0  0
   50.2489   97.9067   25.6110 N   0  0  0  0  0  0
   50.0430   99.1429   25.0951 C   0  0  0  0  0  0
   50.2529  100.3115   25.8253 C   0  0  0  0  0  0
   51.3700  102.6402   34.9286 C   0  0  0  0  0  0
   50.8981  103.9174   35.2563 C   0  0  0  0  0  0
   49.6091  104.0865   35.7560 C   0  0  0  0  0  0
   48.7871  102.9765   35.9303 C   0  0  0  0  0  0
   49.2430  101.7005   35.6110 C   0  0  0  0  0  0
   50.5334  101.5309   35.1166 C   0  0  0  0  0  0
   55.4369  100.1367   34.6717 H   0  0  0  0  0  0
   55.1020  101.1325   33.2654 H   0  0  0  0  0  0
   55.5716  101.8860   34.7883 H   0  0  0  0  0  0
   53.4526  101.0061   35.8496 H   0  0  0  0  0  0
   52.9879  100.3085   34.3187 H   0  0  0  0  0  0
   53.3868  103.2602   34.9198 H   0  0  0  0  0  0
   53.4175  103.6856   32.7669 H   0  0  0  0  0  0
   52.6773  103.8885   30.9060 H   0  0  0  0  0  0
   49.9200  103.0280   26.7184 H   0  0  0  0  0  0
   51.2719   98.8179   28.7035 H   0  0  0  0  0  0
   50.8430   96.8329   27.2781 H   0  0  0  0  0  0
   49.6941   99.1918   24.0730 H   0  0  0  0  0  0
   50.0656  101.2641   25.3551 H   0  0  0  0  0  0
   51.5329  104.7824   35.1253 H   0  0  0  0  0  0
   49.2509  105.0730   36.0109 H   0  0  0  0  0  0
   47.7871  103.1030   36.3196 H   0  0  0  0  0  0
   48.6002  100.8445   35.7507 H   0  0  0  0  0  0
   50.8663  100.5349   34.8677 H   0  0  0  0  0  0
  1  2  1  0  0  0
  1 25  1  0  0  0
  1 26  1  0  0  0
  1 27  1  0  0  0
  2  3  1  0  0  0
  2 28  1  0  0  0
  2 29  1  0  0  0
  3  4  1  0  0  0
  3 19  1  0  0  0
  3 30  1  0  0  0
  4  5  1  0  0  0
  4 31  1  0  0  0
  5  6  2  0  0  0
  5  7  1  0  0  0
  7  8  1  0  0  0
  7 32  1  0  0  0
  8  9  2  0  0  0
  8 12  1  0  0  0
  9 10  1  0  0  0
 10 11  2  0  0  0
 10 13  1  0  0  0
 11 12  1  0  0  0
 11 33  1  0  0  0
 13 14  2  0  0  0
 13 18  1  0  0  0
 14 15  1  0  0  0
 14 34  1  0  0  0
 15 16  2  0  0  0
 15 35  1  0  0  0
 16 17  1  0  0  0
 17 18  2  0  0  0
 17 36  1  0  0  0
 18 37  1  0  0  0
 19 20  2  0  0  0
 19 24  1  0  0  0
 20 21  1  0  0  0
 20 38  1  0  0  0
 21 22  2  0  0  0
 21 39  1  0  0  0
 22 23  1  0  0  0
 22 40  1  0  0  0
 23 24  2  0  0  0
 23 41  1  0  0  0
 24 42  1  0  0  0
M  END
> <s_m_entry_id>
28683

> <s_m_entry_name>
dock_pv.844

> <s_m_Source_Path>
/home/csk/Desktop/cluster/DUD-E-result/rock1

> <s_m_Source_File>
dock_pv.maegz

> <i_m_Source_File_Index>
844

> <chembl_id>
CHEMBL3218279

> <chembl_pref_name>
None

> <i_lp_mmshare_version>
53161

> <r_lp_tautomer_probability>
0.999000488399163

> <s_lp_Force_Field>
OPLS_2005

> <r_lp_Energy>
8.301036

> <b_lp_Chiralities_Consistent>
1

> <s_lp_Variant>
CHEMBL3231_lig448-1

> <s_i_glide_gridfile>
glide-grid_2etr

> <i_i_glide_lignum>
632

> <i_i_glide_rotatable_bonds>
7

> <r_i_docking_score>
-6.83140577436965

> <r_i_glide_ligand_efficiency>
-0.284641907265402

> <r_i_glide_ligand_efficiency_sa>
-0.821049336020234

> <r_i_glide_ligand_efficiency_ln>
-1.63506887459148

> <r_i_glide_gscore>
-6.83140577436965

> <r_i_glide_lipo>
-3.15269456628346

> <r_i_glide_hbond>
-0.113598908395207

> <r_i_glide_metal>
0

> <r_i_glide_rewards>
-1.80014003646456

> <r_i_glide_evdw>
-40.4370498657227

> <r_i_glide_ecoul>
-3.23113012313843

> <r_i_glide_erotb>
0.825604697998548

> <r_i_glide_esite>
-0.0840549494680659

> <r_i_glide_emodel>
-61.1857681924276

> <r_i_glide_energy>
-43.6681799888611

> <r_i_glide_einternal>
4.15409994125366

> <i_i_glide_confnum>
19

> <i_i_glide_posenum>
361

> <r_i_glide_eff_state_penalty>
0

> <s_user_duplicate_titles>
CHEMBL3231_lig448

> <i_f3d_flags>
0

> <s_m_subgroup_title>
dock_pv

> <s_m_subgroupid>
dock_pv

> <b_m_subgroup_collapsed>
1

$$$$
CHEMBL3231_lig1782
                    3D
 Schrodinger Suite 2021-1.
 47 51  0  0  1  0            999 V2000
   50.8423   97.0892   25.6111 Cl  0  0  0  0  0  0
   50.4729  104.1553   29.2110 O   0  0  0  0  0  0
   50.4430  102.5746   27.6865 N   0  0  0  0  0  0
   53.1904  103.5128   30.7095 N   0  0  0  0  0  0
   53.6990  103.8458   31.9694 N   0  0  2  0  0  0
   51.7840  100.7564   29.3022 C   0  0  0  0  0  0
   51.6501  102.0821   29.6708 C   0  0  0  0  0  0
   51.2039  100.3071   27.9876 C   0  0  0  0  0  0
   52.2990  102.6173   30.8508 C   0  0  0  0  0  0
   50.5746  101.2830   27.1986 C   0  0  0  0  0  0
   50.8428  103.0284   28.8816 C   0  0  0  0  0  0
   52.5636   99.7601   30.1057 C   0  0  0  0  0  0
   51.2820   99.0005   27.4758 C   0  0  0  0  0  0
   52.0718  102.2284   32.2920 C   0  0  0  0  0  0
   52.7878  103.3762   32.9926 C   0  0  1  0  0  0
   50.0430  100.9777   25.9488 C   0  0  0  0  0  0
   50.7419   98.6927   26.2246 C   0  0  0  0  0  0
   51.9384   98.5955   30.5691 C   0  0  0  0  0  0
   53.9169   99.9666   30.4110 C   0  0  0  0  0  0
   53.4721  103.0195   34.3117 C   0  0  0  0  0  0
   50.1251   99.6793   25.4594 C   0  0  0  0  0  0
   52.6599   97.6438   31.2843 C   0  0  0  0  0  0
   54.6352   99.0233   31.1367 C   0  0  0  0  0  0
   52.8380  103.3281   35.5181 C   0  0  0  0  0  0
   54.7155  102.3718   34.3248 C   0  0  0  0  0  0
   54.0055   97.8601   31.5650 C   0  0  0  0  0  0
   53.4446  103.0014   36.7287 C   0  0  0  0  0  0
   55.3235  102.0486   35.5344 C   0  0  0  0  0  0
   54.6846  102.3648   36.7311 C   0  0  0  0  0  0
   49.9129  103.2534   27.1635 H   0  0  0  0  0  0
   53.9845  104.8193   31.9696 H   0  0  0  0  0  0
   51.7782   98.2136   28.0224 H   0  0  0  0  0  0
   51.0252  102.1300   32.5773 H   0  0  0  0  0  0
   52.5712  101.2782   32.4838 H   0  0  0  0  0  0
   52.0930  104.2024   33.1600 H   0  0  0  0  0  0
   49.5479  101.7349   25.3601 H   0  0  0  0  0  0
   50.8932   98.4166   30.3613 H   0  0  0  0  0  0
   54.4251  100.8593   30.0744 H   0  0  0  0  0  0
   49.7084   99.4430   24.4899 H   0  0  0  0  0  0
   52.1847   96.7317   31.6104 H   0  0  0  0  0  0
   55.6804   99.1885   31.3553 H   0  0  0  0  0  0
   51.8771  103.8217   35.5196 H   0  0  0  0  0  0
   55.2118  102.1173   33.3985 H   0  0  0  0  0  0
   54.5694   97.1206   32.1156 H   0  0  0  0  0  0
   52.9568  103.2401   37.6618 H   0  0  0  0  0  0
   56.2850  101.5528   35.5419 H   0  0  0  0  0  0
   55.1557  102.1102   37.6692 H   0  0  0  0  0  0
  1 17  1  0  0  0
  2 11  2  0  0  0
  3 10  1  0  0  0
  3 11  1  0  0  0
  3 30  1  0  0  0
  4  5  1  0  0  0
  4  9  2  0  0  0
  5 15  1  0  0  0
  5 31  1  0  0  0
  6  7  2  0  0  0
  6  8  1  0  0  0
  6 12  1  0  0  0
  7  9  1  0  0  0
  7 11  1  0  0  0
  8 10  1  0  0  0
  8 13  2  0  0  0
  9 14  1  0  0  0
 10 16  2  0  0  0
 12 18  2  0  0  0
 12 19  1  0  0  0
 13 17  1  0  0  0
 13 32  1  0  0  0
 14 15  1  0  0  0
 14 33  1  0  0  0
 14 34  1  0  0  0
 15 20  1  0  0  0
 15 35  1  0  0  0
 16 21  1  0  0  0
 16 36  1  0  0  0
 17 21  2  0  0  0
 18 22  1  0  0  0
 18 37  1  0  0  0
 19 23  2  0  0  0
 19 38  1  0  0  0
 20 24  2  0  0  0
 20 25  1  0  0  0
 21 39  1  0  0  0
 22 26  2  0  0  0
 22 40  1  0  0  0
 23 26  1  0  0  0
 23 41  1  0  0  0
 24 27  1  0  0  0
 24 42  1  0  0  0
 25 28  2  0  0  0
 25 43  1  0  0  0
 26 44  1  0  0  0
 27 29  2  0  0  0
 27 45  1  0  0  0
 28 29  1  0  0  0
 28 46  1  0  0  0
 29 47  1  0  0  0
M  END
> <s_m_entry_id>
28684

> <s_m_entry_name>
dock_pv.845

> <s_m_Source_Path>
/home/csk/Desktop/cluster/DUD-E-result/rock1

> <s_m_Source_File>
dock_pv.maegz

> <i_m_Source_File_Index>
845

> <chembl_id>
CHEMBL1992796

> <chembl_pref_name>
None

> <i_lp_mmshare_version>
53161

> <r_lp_tautomer_probability>
1

> <s_lp_Force_Field>
OPLS_2005

> <r_lp_Energy>
53.630977

> <b_lp_Chiralities_Consistent>
1

> <s_lp_Variant>
CHEMBL3231_lig1782-2

> <s_i_glide_gridfile>
glide-grid_2etr

> <i_i_glide_lignum>
2550

> <i_i_glide_rotatable_bonds>
3

> <r_i_docking_score>
-6.82710260762336

> <r_i_glide_ligand_efficiency>
-0.235417331297357

> <r_i_glide_ligand_efficiency_sa>
-0.723276627191101

> <r_i_glide_ligand_efficiency_ln>
-1.56323337676085

> <r_i_glide_gscore>
-6.82710260762336

> <r_i_glide_lipo>
-2.71075086372891

> <r_i_glide_hbond>
-0.0641694457202444

> <r_i_glide_metal>
0

> <r_i_glide_rewards>
-1.02435812121212

> <r_i_glide_evdw>
-46.5914459228516

> <r_i_glide_ecoul>
-6.46383047103882

> <r_i_glide_erotb>
0.367711904272521

> <r_i_glide_esite>
-0.0963892144362002

> <r_i_glide_emodel>
-73.999199419717

> <r_i_glide_energy>
-53.0552763938904

> <r_i_glide_einternal>
2.04473423957825

> <i_i_glide_confnum>
14

> <i_i_glide_posenum>
373

> <r_i_glide_eff_state_penalty>
0

> <s_user_duplicate_titles>
CHEMBL3231_lig1782

> <i_f3d_flags>
0

> <s_m_subgroup_title>
dock_pv

> <s_m_subgroupid>
dock_pv

> <b_m_subgroup_collapsed>
1

$$$$
CHEMBL3231_lig1786
                    3D
 Schrodinger Suite 2021-1.
 41 43  0  0  1  0            999 V2000
   52.2969  101.4183   33.3988 O   0  0  0  0  0  0
   52.3713  103.5575   32.6430 N   0  0  0  0  0  0
   50.0430   98.7412   24.9010 N   0  0  0  0  0  0
   52.0422  101.7309   31.0576 C   0  0  0  0  0  0
   51.4039  100.6240   28.5429 C   0  0  0  0  0  0
   50.9614   99.9799   27.2684 C   0  0  0  0  0  0
   52.2533  102.2252   32.4699 C   0  0  0  0  0  0
   52.4862  100.4508   30.7091 C   0  0  0  0  0  0
   51.3365  102.4835   30.1080 C   0  0  0  0  0  0
   52.1801   99.9112   29.4650 C   0  0  0  0  0  0
   51.0139  101.9296   28.8697 C   0  0  0  0  0  0
   52.4625  104.2949   33.9173 C   0  0  1  0  0  0
   51.1125  104.5311   34.6141 C   0  0  0  0  0  0
   50.7658  100.7198   26.0904 C   0  0  0  0  0  0
   50.6930   98.6018   27.2207 C   0  0  0  0  0  0
   50.6557  105.8408   34.8112 C   0  0  0  0  0  0
   50.3474  103.4599   35.0949 C   0  0  0  0  0  0
   50.3032  100.0716   24.9423 C   0  0  0  0  0  0
   50.2491   98.0250   26.0327 C   0  0  0  0  0  0
   53.5371  103.7650   34.8911 C   0  0  0  0  0  0
   49.4429  106.0744   35.4567 C   0  0  0  0  0  0
   49.1341  103.6919   35.7387 C   0  0  0  0  0  0
   48.6853  104.9984   35.9137 C   0  0  0  0  0  0
   52.4456  104.1244   31.8128 H   0  0  0  0  0  0
   53.0476   99.8503   31.4128 H   0  0  0  0  0  0
   50.9836  103.4769   30.3347 H   0  0  0  0  0  0
   52.5261   98.9130   29.2400 H   0  0  0  0  0  0
   50.4188  102.5103   28.1804 H   0  0  0  0  0  0
   52.8382  105.2723   33.6108 H   0  0  0  0  0  0
   50.9599  101.7816   26.0598 H   0  0  0  0  0  0
   50.8104   97.9780   28.0947 H   0  0  0  0  0  0
   51.2413  106.6824   34.4642 H   0  0  0  0  0  0
   50.6901  102.4432   34.9819 H   0  0  0  0  0  0
   50.1298  100.6194   24.0264 H   0  0  0  0  0  0
   50.0431   96.9658   25.9894 H   0  0  0  0  0  0
   53.7166  104.4757   35.6983 H   0  0  0  0  0  0
   53.2471  102.8195   35.3497 H   0  0  0  0  0  0
   54.4872  103.6058   34.3796 H   0  0  0  0  0  0
   49.0940  107.0863   35.6057 H   0  0  0  0  0  0
   48.5470  102.8617   36.1051 H   0  0  0  0  0  0
   47.7430  105.1760   36.4114 H   0  0  0  0  0  0
  1  7  2  0  0  0
  2  7  1  0  0  0
  2 12  1  0  0  0
  2 24  1  0  0  0
  3 18  2  0  0  0
  3 19  1  0  0  0
  4  7  1  0  0  0
  4  8  2  0  0  0
  4  9  1  0  0  0
  5  6  1  0  0  0
  5 10  2  0  0  0
  5 11  1  0  0  0
  6 14  2  0  0  0
  6 15  1  0  0  0
  8 10  1  0  0  0
  8 25  1  0  0  0
  9 11  2  0  0  0
  9 26  1  0  0  0
 10 27  1  0  0  0
 11 28  1  0  0  0
 12 13  1  0  0  0
 12 20  1  0  0  0
 12 29  1  0  0  0
 13 16  2  0  0  0
 13 17  1  0  0  0
 14 18  1  0  0  0
 14 30  1  0  0  0
 15 19  2  0  0  0
 15 31  1  0  0  0
 16 21  1  0  0  0
 16 32  1  0  0  0
 17 22  2  0  0  0
 17 33  1  0  0  0
 18 34  1  0  0  0
 19 35  1  0  0  0
 20 36  1  0  0  0
 20 37  1  0  0  0
 20 38  1  0  0  0
 21 23  2  0  0  0
 21 39  1  0  0  0
 22 23  1  0  0  0
 22 40  1  0  0  0
 23 41  1  0  0  0
M  END
> <s_m_entry_id>
28685

> <s_m_entry_name>
dock_pv.846

> <s_m_Source_Path>
/home/csk/Desktop/cluster/DUD-E-result/rock1

> <s_m_Source_File>
dock_pv.maegz

> <i_m_Source_File_Index>
846

> <chembl_id>
CHEMBL1999428

> <chembl_pref_name>
None

> <i_lp_mmshare_version>
53161

> <r_lp_tautomer_probability>
1

> <s_lp_Force_Field>
OPLS_2005

> <r_lp_Energy>
13.67908

> <b_lp_Chiralities_Consistent>
1

> <s_lp_Variant>
CHEMBL3231_lig1786-2

> <s_i_glide_gridfile>
glide-grid_2etr

> <i_i_glide_lignum>
2557

> <i_i_glide_rotatable_bonds>
5

> <r_i_docking_score>
-6.82616192411106

> <r_i_glide_ligand_efficiency>
-0.296789648874394

> <r_i_glide_ligand_efficiency_sa>
-0.844030281513478

> <r_i_glide_ligand_efficiency_ln>
-1.65062784946427

> <r_i_glide_gscore>
-6.82616192411106

> <r_i_glide_lipo>
-2.72860004115034

> <r_i_glide_hbond>
-0.149579686052126

> <r_i_glide_metal>
0

> <r_i_glide_rewards>
-2.40742423543973

> <r_i_glide_evdw>
-39.4707717895508

> <r_i_glide_ecoul>
-2.0375611782074

> <r_i_glide_erotb>
0.805494328942217

> <r_i_glide_esite>
-0.0668795242024261

> <r_i_glide_emodel>
-57.268855953259

> <r_i_glide_energy>
-41.5083329677582

> <r_i_glide_einternal>
2.0705132484436

> <i_i_glide_confnum>
14

> <i_i_glide_posenum>
35

> <r_i_glide_eff_state_penalty>
0

> <s_user_duplicate_titles>
CHEMBL3231_lig1786

> <i_f3d_flags>
0

> <s_m_subgroup_title>
dock_pv

> <s_m_subgroupid>
dock_pv

> <b_m_subgroup_collapsed>
1

$$$$
CHEMBL3231_lig882
                    3D
 Schrodinger Suite 2021-1.
 49 53  0  0  1  0            999 V2000
   52.8159   99.9754   31.2471 N   0  0  0  0  0  0
   52.9844  100.7353   32.2873 C   0  0  0  0  0  0
   52.5122  102.0342   32.2586 N   0  0  0  0  0  0
   51.9142  102.7105   31.2361 C   0  0  0  0  0  0
   52.1671  100.4952   30.1607 C   0  0  0  0  0  0
   51.6870  101.8051   30.1247 C   0  0  0  0  0  0
   50.8436  102.1731   28.6628 S   0  0  0  0  0  0
   51.1660  100.5700   28.0424 C   0  0  0  0  0  0
   51.8822   99.8103   28.9748 C   0  0  0  0  0  0
   50.7123  100.1980   26.7052 C   0  0  0  0  0  0
   50.4487  101.0747   25.6685 C   0  0  0  0  0  0
   50.0430  100.3034   24.6179 N   0  0  0  0  0  0
   50.0412   99.0057   24.9031 N   0  0  0  0  0  0
   50.4158   98.9293   26.1613 C   0  0  0  0  0  0
   51.6431  103.9029   31.3351 O   0  0  0  0  0  0
   50.4530   97.5770   26.8172 C   0  0  0  0  0  0
   53.5918  100.2310   33.6321 C   0  0  2  0  0  0
   54.7523  101.0049   34.1535 N   0  0  0  0  0  0
   55.1541  100.5806   35.4984 C   0  0  0  0  0  0
   56.0428  101.6778   36.0829 C   0  0  0  0  0  0
   55.7266  102.9055   35.2346 C   0  0  0  0  0  0
   54.5830  102.4480   34.3361 C   0  0  0  0  0  0
   53.9398   98.7263   33.6251 C   0  0  0  0  0  0
   53.2941   97.8559   34.5117 C   0  0  0  0  0  0
   53.6431   96.5059   34.5463 C   0  0  0  0  0  0
   54.6233   96.0200   33.6880 C   0  0  0  0  0  0
   55.2706   96.8761   32.8007 C   0  0  0  0  0  0
   54.9397   98.2275   32.7782 C   0  0  0  0  0  0
   52.6817  102.5992   33.0748 H   0  0  0  0  0  0
   52.1957   98.7918   28.8093 H   0  0  0  0  0  0
   50.4962  102.1523   25.6110 H   0  0  0  0  0  0
   49.7490  100.6479   23.7124 H   0  0  0  0  0  0
   49.6940   97.5043   27.5935 H   0  0  0  0  0  0
   50.2902   96.7514   26.1211 H   0  0  0  0  0  0
   51.4147   97.4014   27.2930 H   0  0  0  0  0  0
   52.7994  100.3538   34.3732 H   0  0  0  0  0  0
   54.2956  100.3743   36.1416 H   0  0  0  0  0  0
   55.6916   99.6326   35.4302 H   0  0  0  0  0  0
   55.8153  101.8484   37.1346 H   0  0  0  0  0  0
   57.0947  101.4037   36.0122 H   0  0  0  0  0  0
   56.5856  103.2115   34.6359 H   0  0  0  0  0  0
   55.4349  103.7623   35.8419 H   0  0  0  0  0  0
   54.6464  102.9403   33.3637 H   0  0  0  0  0  0
   53.6046  102.7008   34.7503 H   0  0  0  0  0  0
   52.5382   98.2277   35.1864 H   0  0  0  0  0  0
   53.1541   95.8356   35.2391 H   0  0  0  0  0  0
   54.8930   94.9739   33.7159 H   0  0  0  0  0  0
   56.0426   96.5024   32.1421 H   0  0  0  0  0  0
   55.4686   98.8910   32.1069 H   0  0  0  0  0  0
  1  5  1  0  0  0
  1  2  2  0  0  0
  2  3  1  0  0  0
  2 17  1  0  0  0
  3  4  1  0  0  0
  3 29  1  0  0  0
  4  6  1  0  0  0
  4 15  2  0  0  0
  5  6  2  0  0  0
  5  9  1  0  0  0
  6  7  1  0  0  0
  7  8  1  0  0  0
  8  9  2  0  0  0
  8 10  1  0  0  0
  9 30  1  0  0  0
 10 11  2  0  0  0
 10 14  1  0  0  0
 11 12  1  0  0  0
 11 31  1  0  0  0
 12 13  1  0  0  0
 12 32  1  0  0  0
 13 14  2  0  0  0
 14 16  1  0  0  0
 16 33  1  0  0  0
 16 34  1  0  0  0
 16 35  1  0  0  0
 17 18  1  0  0  0
 17 23  1  0  0  0
 17 36  1  0  0  0
 18 19  1  0  0  0
 18 22  1  0  0  0
 19 20  1  0  0  0
 19 37  1  0  0  0
 19 38  1  0  0  0
 20 21  1  0  0  0
 20 39  1  0  0  0
 20 40  1  0  0  0
 21 22  1  0  0  0
 21 41  1  0  0  0
 21 42  1  0  0  0
 22 43  1  0  0  0
 22 44  1  0  0  0
 23 24  2  0  0  0
 23 28  1  0  0  0
 24 25  1  0  0  0
 24 45  1  0  0  0
 25 26  2  0  0  0
 25 46  1  0  0  0
 26 27  1  0  0  0
 26 47  1  0  0  0
 27 28  2  0  0  0
 27 48  1  0  0  0
 28 49  1  0  0  0
M  END
> <s_m_entry_id>
28686

> <s_m_entry_name>
dock_pv.847

> <s_m_Source_Path>
/home/csk/Desktop/cluster/DUD-E-result/rock1

> <s_m_Source_File>
dock_pv.maegz

> <i_m_Source_File_Index>
847

> <chembl_id>
CHEMBL4065361

> <chembl_pref_name>
None

> <i_lp_mmshare_version>
53161

> <r_lp_tautomer_probability>
0.5

> <s_lp_Force_Field>
OPLS_2005

> <r_lp_Energy>
48.066999

> <b_lp_Chiralities_Consistent>
1

> <s_lp_Variant>
CHEMBL3231_lig882-1

> <s_i_glide_gridfile>
glide-grid_2etr

> <i_i_glide_lignum>
1254

> <i_i_glide_rotatable_bonds>
4

> <r_i_docking_score>
-6.82278256715819

> <r_i_glide_ligand_efficiency>
-0.243670805969935

> <r_i_glide_ligand_efficiency_sa>
-0.739928081354497

> <r_i_glide_ligand_efficiency_ln>
-1.57489854210097

> <r_i_glide_gscore>
-6.82278256715819

> <r_i_glide_lipo>
-2.01861174073198

> <r_i_glide_hbond>
-0.366780644678476

> <r_i_glide_metal>
0

> <r_i_glide_rewards>
-1.97321172683012

> <r_i_glide_evdw>
-42.1340255737305

> <r_i_glide_ecoul>
-4.54700565338135

> <r_i_glide_erotb>
0.356523432363844

> <r_i_glide_esite>
-0.0319497605877286

> <r_i_glide_emodel>
-64.0644025287149

> <r_i_glide_energy>
-46.6810312271118

> <r_i_glide_einternal>
4.60522794723511

> <i_i_glide_confnum>
50

> <i_i_glide_posenum>
152

> <r_i_glide_eff_state_penalty>
0

> <s_user_duplicate_titles>
CHEMBL3231_lig882

> <i_f3d_flags>
0

> <s_m_subgroup_title>
dock_pv

> <s_m_subgroupid>
dock_pv

> <b_m_subgroup_collapsed>
1

$$$$
CHEMBL3231_lig50
                    3D
 Schrodinger Suite 2021-1.
 44 47  0  0  1  0            999 V2000
   53.3512  104.1440   32.4767 C   0  0  0  0  0  0
   52.8187  102.8160   33.0037 C   0  0  0  0  0  0
   52.1488  101.8796   32.2831 C   0  0  0  0  0  0
   51.7887  100.5651   32.9949 C   0  0  2  0  0  0
   51.4507  100.8485   34.4912 C   0  0  0  0  0  0
   52.4730  101.7942   35.1793 C   0  0  0  0  0  0
   52.6918  101.7913   36.3866 O   0  0  0  0  0  0
   53.0558  102.6871   34.3433 N   0  0  0  0  0  0
   52.7985   99.4240   32.7739 C   0  0  0  0  0  0
   52.4385   98.3064   32.0109 C   0  0  0  0  0  0
   53.3280   97.2503   31.8314 C   0  0  0  0  0  0
   54.5908   97.2831   32.4197 C   0  0  0  0  0  0
   55.6427   95.9280   32.1995 Cl  0  0  0  0  0  0
   54.9697   98.3969   33.1804 C   0  0  0  0  0  0
   56.5108   98.4808   33.9618 Cl  0  0  0  0  0  0
   54.0814   99.4622   33.3383 C   0  0  0  0  0  0
   51.6433  102.0967   30.9393 C   0  0  0  0  0  0
   50.9884  103.1029   30.6534 O   0  0  0  0  0  0
   51.8927  101.0670   30.1016 N   0  0  0  0  0  0
   51.3997  100.8446   28.8039 C   0  0  0  0  0  0
   50.9473  101.8636   27.9518 C   0  0  0  0  0  0
   50.4435  101.5980   26.6758 C   0  0  0  0  0  0
   50.3850  100.2588   26.2860 C   0  0  0  0  0  0
   49.9325   99.6409   25.1362 N   0  0  0  0  0  0
   50.0434   98.3030   25.2116 N   0  0  0  0  0  0
   50.5857   98.0270   26.3681 C   0  0  0  0  0  0
   50.8363   99.2100   27.1226 C   0  0  0  0  0  0
   51.3688   99.5118   28.3841 C   0  0  0  0  0  0
   52.8729  104.9817   32.9849 H   0  0  0  0  0  0
   54.4277  104.2172   32.6449 H   0  0  0  0  0  0
   53.2009  104.2796   31.4064 H   0  0  0  0  0  0
   50.8620  100.1855   32.5565 H   0  0  0  0  0  0
   50.5308  101.4313   34.5462 H   0  0  0  0  0  0
   51.3169   99.9379   35.0753 H   0  0  0  0  0  0
   53.6462  103.3571   34.8118 H   0  0  0  0  0  0
   51.4568   98.2376   31.5645 H   0  0  0  0  0  0
   53.0228   96.3900   31.2543 H   0  0  0  0  0  0
   54.4030  100.3107   33.9212 H   0  0  0  0  0  0
   52.4371  100.3125   30.4921 H   0  0  0  0  0  0
   50.9954  102.8963   28.2606 H   0  0  0  0  0  0
   50.1006  102.3960   26.0336 H   0  0  0  0  0  0
   49.5359  100.0721   24.3106 H   0  0  0  0  0  0
   50.7870   97.0064   26.6584 H   0  0  0  0  0  0
   51.7176   98.7171   29.0272 H   0  0  0  0  0  0
  1  2  1  0  0  0
  1 29  1  0  0  0
  1 30  1  0  0  0
  1 31  1  0  0  0
  2  3  2  0  0  0
  2  8  1  0  0  0
  3  4  1  0  0  0
  3 17  1  0  0  0
  4  5  1  0  0  0
  4  9  1  0  0  0
  4 32  1  0  0  0
  5  6  1  0  0  0
  5 33  1  0  0  0
  5 34  1  0  0  0
  6  7  2  0  0  0
  6  8  1  0  0  0
  8 35  1  0  0  0
  9 10  2  0  0  0
  9 16  1  0  0  0
 10 11  1  0  0  0
 10 36  1  0  0  0
 11 12  2  0  0  0
 11 37  1  0  0  0
 12 13  1  0  0  0
 12 14  1  0  0  0
 14 15  1  0  0  0
 14 16  2  0  0  0
 16 38  1  0  0  0
 17 18  2  0  0  0
 17 19  1  0  0  0
 19 20  1  0  0  0
 19 39  1  0  0  0
 20 21  2  0  0  0
 20 28  1  0  0  0
 21 22  1  0  0  0
 21 40  1  0  0  0
 22 23  2  0  0  0
 22 41  1  0  0  0
 23 24  1  0  0  0
 23 27  1  0  0  0
 24 25  1  0  0  0
 24 42  1  0  0  0
 25 26  2  0  0  0
 26 27  1  0  0  0
 26 43  1  0  0  0
 27 28  2  0  0  0
 28 44  1  0  0  0
M  END
> <s_m_entry_id>
28687

> <s_m_entry_name>
dock_pv.848

> <s_m_Source_Path>
/home/csk/Desktop/cluster/DUD-E-result/rock1

> <s_m_Source_File>
dock_pv.maegz

> <i_m_Source_File_Index>
848

> <chembl_id>
CHEMBL374453

> <chembl_pref_name>
GSK-299115A

> <i_lp_mmshare_version>
53161

> <r_lp_tautomer_probability>
0.980392156860701

> <s_lp_Force_Field>
OPLS_2005

> <r_lp_Energy>
32.821679

> <b_lp_Chiralities_Consistent>
1

> <s_lp_Variant>
CHEMBL3231_lig50-1

> <s_i_glide_gridfile>
glide-grid_2etr

> <i_i_glide_lignum>
71

> <i_i_glide_rotatable_bonds>
4

> <r_i_docking_score>
-6.82162773586874

> <r_i_glide_ligand_efficiency>
-0.243629561995312

> <r_i_glide_ligand_efficiency_sa>
-0.739802840356138

> <r_i_glide_ligand_efficiency_ln>
-1.57463197313205

> <r_i_glide_gscore>
-6.82162773586874

> <r_i_glide_lipo>
-2.13253610772443

> <r_i_glide_hbond>
-0.420987059284496

> <r_i_glide_metal>
0

> <r_i_glide_rewards>
-1.63148971432664

> <r_i_glide_evdw>
-43.8249320983887

> <r_i_glide_ecoul>
-4.91129398345947

> <r_i_glide_erotb>
0.320593599210613

> <r_i_glide_esite>
-0.0292677513054246

> <r_i_glide_emodel>
-64.1336584786057

> <r_i_glide_energy>
-48.7362260818481

> <r_i_glide_einternal>
7.47356986999512

> <i_i_glide_confnum>
59

> <i_i_glide_posenum>
108

> <r_i_glide_eff_state_penalty>
0

> <s_user_duplicate_titles>
CHEMBL3231_lig50

> <i_f3d_flags>
0

> <s_m_subgroup_title>
dock_pv

> <s_m_subgroupid>
dock_pv

> <b_m_subgroup_collapsed>
1

$$$$
CHEMBL3231_lig1854
                    3D
 Schrodinger Suite 2021-1.
 40 42  0  0  1  0            999 V2000
   52.0908  104.1490   31.9298 O   0  0  0  0  0  0
   51.5342  105.8794   36.3636 O   0  0  0  0  0  0
   51.0403  102.1008   28.4073 N   0  0  0  0  0  0
   52.3970  100.2751   29.2276 N   0  0  0  0  0  0
   54.0827  103.0423   32.0017 N   0  0  0  0  0  0
   50.0394   98.2910   25.2053 N   0  0  0  0  0  0
   51.5005  100.8198   28.3587 C   0  0  0  0  0  0
   52.4246  102.4095   30.3630 C   0  0  0  0  0  0
   50.9798   99.9465   27.2709 C   0  0  0  0  0  0
   52.8571  103.2831   31.5034 C   0  0  0  0  0  0
   51.5152  102.8789   29.4086 C   0  0  0  0  0  0
   52.8483  101.0794   30.2210 C   0  0  0  0  0  0
   50.5040  100.4911   26.0663 C   0  0  0  0  0  0
   50.9505   98.5495   27.4167 C   0  0  0  0  0  0
   53.8614  103.7083   34.4221 C   0  0  0  0  0  0
   54.6925  103.7317   33.1402 C   0  0  0  0  0  0
   53.1188  104.8332   34.7936 C   0  0  0  0  0  0
   52.3320  104.8266   35.9584 C   0  0  0  0  0  0
   50.0450   99.6384   25.0663 C   0  0  0  0  0  0
   50.4719   97.7650   26.3704 C   0  0  0  0  0  0
   53.8628  102.5796   35.2477 C   0  0  0  0  0  0
   52.3389  103.6853   36.7645 C   0  0  0  0  0  0
   53.0992  102.5679   36.4135 C   0  0  0  0  0  0
   51.4645  107.0478   35.5471 C   0  0  0  0  0  0
   54.7058  102.4662   31.4506 H   0  0  0  0  0  0
   51.1454  103.8934   29.4305 H   0  0  0  0  0  0
   53.5469  100.6231   30.9084 H   0  0  0  0  0  0
   50.4971  101.5594   25.8994 H   0  0  0  0  0  0
   51.2907   98.0733   28.3244 H   0  0  0  0  0  0
   54.9242  104.7577   32.8511 H   0  0  0  0  0  0
   55.6569  103.2618   33.3395 H   0  0  0  0  0  0
   53.1403  105.6975   34.1430 H   0  0  0  0  0  0
   49.6857  100.0318   24.1235 H   0  0  0  0  0  0
   50.4410   96.6881   26.4537 H   0  0  0  0  0  0
   54.4448  101.7080   34.9783 H   0  0  0  0  0  0
   51.7459  103.6669   37.6670 H   0  0  0  0  0  0
   53.0921  101.6899   37.0442 H   0  0  0  0  0  0
   50.7640  107.7570   35.9870 H   0  0  0  0  0  0
   52.4344  107.5433   35.4731 H   0  0  0  0  0  0
   51.1073  106.8148   34.5419 H   0  0  0  0  0  0
  1 10  2  0  0  0
  2 18  1  0  0  0
  2 24  1  0  0  0
  3  7  1  0  0  0
  3 11  2  0  0  0
  4  7  2  0  0  0
  4 12  1  0  0  0
  5 10  1  0  0  0
  5 16  1  0  0  0
  5 25  1  0  0  0
  6 19  2  0  0  0
  6 20  1  0  0  0
  7  9  1  0  0  0
  8 10  1  0  0  0
  8 11  1  0  0  0
  8 12  2  0  0  0
  9 13  2  0  0  0
  9 14  1  0  0  0
 11 26  1  0  0  0
 12 27  1  0  0  0
 13 19  1  0  0  0
 13 28  1  0  0  0
 14 20  2  0  0  0
 14 29  1  0  0  0
 15 16  1  0  0  0
 15 17  2  0  0  0
 15 21  1  0  0  0
 16 30  1  0  0  0
 16 31  1  0  0  0
 17 18  1  0  0  0
 17 32  1  0  0  0
 18 22  2  0  0  0
 19 33  1  0  0  0
 20 34  1  0  0  0
 21 23  2  0  0  0
 21 35  1  0  0  0
 22 23  1  0  0  0
 22 36  1  0  0  0
 23 37  1  0  0  0
 24 38  1  0  0  0
 24 39  1  0  0  0
 24 40  1  0  0  0
M  END
> <s_m_entry_id>
28688

> <s_m_entry_name>
dock_pv.849

> <s_m_Source_Path>
/home/csk/Desktop/cluster/DUD-E-result/rock1

> <s_m_Source_File>
dock_pv.maegz

> <i_m_Source_File_Index>
849

> <chembl_id>
CHEMBL2004159

> <chembl_pref_name>
None

> <i_lp_mmshare_version>
53161

> <r_lp_tautomer_probability>
1

> <s_lp_Force_Field>
OPLS_2005

> <r_lp_Energy>
10.281556

> <b_lp_Chiralities_Consistent>
1

> <s_lp_Variant>
CHEMBL3231_lig1854-1

> <s_i_glide_gridfile>
glide-grid_2etr

> <i_i_glide_lignum>
2677

> <i_i_glide_rotatable_bonds>
6

> <r_i_docking_score>
-6.82080673389639

> <r_i_glide_ligand_efficiency>
-0.284200280579016

> <r_i_glide_ligand_efficiency_sa>
-0.819775464224232

> <r_i_glide_ligand_efficiency_ln>
-1.63253203784796

> <r_i_glide_gscore>
-6.82080673389639

> <r_i_glide_lipo>
-1.66686997431055

> <r_i_glide_hbond>
-0.299207407796453

> <r_i_glide_metal>
0

> <r_i_glide_rewards>
-2.83258932154299

> <r_i_glide_evdw>
-38.1554718017578

> <r_i_glide_ecoul>
-6.3014178276062

> <r_i_glide_erotb>
0.909728246872981

> <r_i_glide_esite>
-0.0788820128905527

> <r_i_glide_emodel>
-62.8518366784968

> <r_i_glide_energy>
-44.456889629364

> <r_i_glide_einternal>
2.13665390014648

> <i_i_glide_confnum>
3

> <i_i_glide_posenum>
198

> <r_i_glide_eff_state_penalty>
0

> <s_user_duplicate_titles>
CHEMBL3231_lig1854

> <i_f3d_flags>
0

> <s_m_subgroup_title>
dock_pv

> <s_m_subgroupid>
dock_pv

> <b_m_subgroup_collapsed>
1

$$$$
CHEMBL3231_lig286
                    3D
 Schrodinger Suite 2021-1.
 56 60  0  0  1  0            999 V2000
   54.0445  100.7751   32.7013 C   0  0  0  0  0  0
   54.0992  102.1054   32.9796 N   0  0  0  0  0  0
   53.5344  102.9478   32.0874 C   0  0  0  0  0  0
   52.8791  102.5826   30.9608 N   0  0  0  0  0  0
   52.7768  101.2464   30.6932 C   0  0  0  0  0  0
   53.3504  100.3115   31.5719 C   0  0  0  0  0  0
   52.0379  100.8496   29.4367 C   0  0  0  0  0  0
   51.8868   99.4917   29.0822 C   0  0  0  0  0  0
   50.8442  101.5269   27.3965 C   0  0  0  0  0  0
   51.4960  101.8326   28.5885 C   0  0  0  0  0  0
   50.7318  100.1852   27.0227 C   0  0  0  0  0  0
   51.2420   99.1869   27.8785 C   0  0  0  0  0  0
   50.9511   97.9888   27.2506 N   0  0  0  0  0  0
   50.3377   98.1732   26.0643 N   0  0  0  0  0  0
   50.2047   99.4650   25.9102 C   0  0  0  0  0  0
   49.6429  100.0467   24.8134 N   0  0  0  0  0  0
   53.6203  104.3026   32.3710 N   0  0  0  0  0  0
   54.5393   99.9014   33.6699 N   0  0  0  0  0  0
   54.5751   98.4365   33.5487 C   0  0  0  0  0  0
   53.3826   97.8521   34.3332 C   0  0  0  0  0  0
   53.4454   98.2705   35.8205 C   0  0  0  0  0  0
   53.6561   99.7970   36.0074 C   0  0  1  0  0  0
   54.8288  100.2355   35.0794 C   0  0  0  0  0  0
   52.4143  100.5404   35.7558 N   0  0  0  0  0  0
   52.0849  101.6926   36.3699 C   0  0  0  0  0  0
   50.7424  102.3013   36.0229 C   0  0  0  0  0  0
   49.7066  101.5326   35.4670 C   0  0  0  0  0  0
   48.4627  102.1072   35.2178 C   0  0  0  0  0  0
   48.2392  103.4457   35.5264 C   0  0  0  0  0  0
   49.2566  104.2237   36.0696 C   0  0  0  0  0  0
   50.5026  103.6533   36.3151 C   0  0  0  0  0  0
   52.8195  102.2362   37.1974 O   0  0  0  0  0  0
   53.2666   99.2556   31.3933 H   0  0  0  0  0  0
   52.2688   98.6901   29.6923 H   0  0  0  0  0  0
   50.4525  102.3115   26.7653 H   0  0  0  0  0  0
   51.5947  102.8786   28.8394 H   0  0  0  0  0  0
   51.1643   97.0558   27.5756 H   0  0  0  0  0  0
   49.8422  101.0070   24.5758 H   0  0  0  0  0  0
   49.2346   99.5030   24.0652 H   0  0  0  0  0  0
   53.4201  104.9720   31.6418 H   0  0  0  0  0  0
   54.2255  104.5786   33.1281 H   0  0  0  0  0  0
   55.5111   98.0718   33.9775 H   0  0  0  0  0  0
   54.5995   98.0978   32.5133 H   0  0  0  0  0  0
   53.3876   96.7646   34.2501 H   0  0  0  0  0  0
   52.4471   98.1787   33.8766 H   0  0  0  0  0  0
   54.2691   97.7397   36.3011 H   0  0  0  0  0  0
   52.5465   97.9434   36.3449 H   0  0  0  0  0  0
   53.9539   99.9302   37.0510 H   0  0  0  0  0  0
   54.9844  101.3113   35.1639 H   0  0  0  0  0  0
   55.7669   99.7753   35.3957 H   0  0  0  0  0  0
   51.9194  100.3012   34.9122 H   0  0  0  0  0  0
   49.8416  100.4827   35.2480 H   0  0  0  0  0  0
   47.6614  101.5088   34.8116 H   0  0  0  0  0  0
   47.2662  103.8799   35.3469 H   0  0  0  0  0  0
   49.0798  105.2626   36.3081 H   0  0  0  0  0  0
   51.2800  104.2684   36.7482 H   0  0  0  0  0  0
  1 18  1  0  0  0
  1  6  1  0  0  0
  1  2  2  0  0  0
  2  3  1  0  0  0
  3 17  1  0  0  0
  3  4  2  0  0  0
  4  5  1  0  0  0
  5  7  1  0  0  0
  5  6  2  0  0  0
  6 33  1  0  0  0
  7  8  2  0  0  0
  7 10  1  0  0  0
  8 12  1  0  0  0
  8 34  1  0  0  0
  9 11  1  0  0  0
  9 10  2  0  0  0
  9 35  1  0  0  0
 10 36  1  0  0  0
 11 15  1  0  0  0
 11 12  2  0  0  0
 12 13  1  0  0  0
 13 14  1  0  0  0
 13 37  1  0  0  0
 14 15  2  0  0  0
 15 16  1  0  0  0
 16 38  1  0  0  0
 16 39  1  0  0  0
 17 40  1  0  0  0
 17 41  1  0  0  0
 18 19  1  0  0  0
 18 23  1  0  0  0
 19 20  1  0  0  0
 19 42  1  0  0  0
 19 43  1  0  0  0
 20 21  1  0  0  0
 20 44  1  0  0  0
 20 45  1  0  0  0
 21 22  1  0  0  0
 21 46  1  0  0  0
 21 47  1  0  0  0
 22 23  1  0  0  0
 22 24  1  0  0  0
 22 48  1  0  0  0
 23 49  1  0  0  0
 23 50  1  0  0  0
 24 25  1  0  0  0
 24 51  1  0  0  0
 25 26  1  0  0  0
 25 32  2  0  0  0
 26 27  2  0  0  0
 26 31  1  0  0  0
 27 28  1  0  0  0
 27 52  1  0  0  0
 28 29  2  0  0  0
 28 53  1  0  0  0
 29 30  1  0  0  0
 29 54  1  0  0  0
 30 31  2  0  0  0
 30 55  1  0  0  0
 31 56  1  0  0  0
M  END
> <s_m_entry_id>
28689

> <s_m_entry_name>
dock_pv.850

> <s_m_Source_Path>
/home/csk/Desktop/cluster/DUD-E-result/rock1

> <s_m_Source_File>
dock_pv.maegz

> <i_m_Source_File_Index>
850

> <chembl_id>
CHEMBL1765745

> <chembl_pref_name>
None

> <i_lp_mmshare_version>
53161

> <r_lp_tautomer_probability>
0.999999648617923

> <s_lp_Force_Field>
OPLS_2005

> <r_lp_Energy>
19.823491

> <b_lp_Chiralities_Consistent>
1

> <s_lp_Variant>
CHEMBL3231_lig286-2

> <s_i_glide_gridfile>
glide-grid_2etr

> <i_i_glide_lignum>
433

> <i_i_glide_rotatable_bonds>
5

> <r_i_docking_score>
-6.82014370810013

> <r_i_glide_ligand_efficiency>
-0.213129490878129

> <r_i_glide_ligand_efficiency_sa>
-0.676643955269088

> <r_i_glide_ligand_efficiency_ln>
-1.52721608633962

> <r_i_glide_gscore>
-6.82014370810013

> <r_i_glide_lipo>
-3.13827007210708

> <r_i_glide_hbond>
-0.207947818420351

> <r_i_glide_metal>
0

> <r_i_glide_rewards>
-0.821678344658189

> <r_i_glide_evdw>
-52.3110961914062

> <r_i_glide_ecoul>
-3.03809428215027

> <r_i_glide_erotb>
0.540952643869505

> <r_i_glide_esite>
-0.121931164891165

> <r_i_glide_emodel>
-75.5633157641341

> <r_i_glide_energy>
-55.3491904735565

> <r_i_glide_einternal>
2.52462911605835

> <i_i_glide_confnum>
93

> <i_i_glide_posenum>
356

> <r_i_glide_eff_state_penalty>
0

> <s_user_duplicate_titles>
CHEMBL3231_lig286

> <i_f3d_flags>
0

> <s_m_subgroup_title>
dock_pv

> <s_m_subgroupid>
dock_pv

> <b_m_subgroup_collapsed>
1

$$$$
CHEMBL3231_lig112
                    3D
 Schrodinger Suite 2021-1.
 39 41  0  0  1  0            999 V2000
   50.6174  103.7443   28.8200 C   0  0  0  0  0  0
   50.8812  102.3270   28.3609 C   0  0  0  0  0  0
   51.6495  102.0208   29.4513 C   0  0  0  0  0  0
   51.3968  103.3579   30.1190 C   0  0  0  0  0  0
   51.6448  103.9021   31.1930 O   0  0  0  0  0  0
   50.0377  104.7423   28.3958 O   0  0  0  0  0  0
   52.4146  100.9623   29.8926 N   0  0  0  0  0  0
   50.4460  101.7947   27.1667 N   0  0  0  0  0  0
   50.4452  100.4768   26.7002 C   0  0  0  0  0  0
   50.0886  100.2822   25.3652 C   0  0  0  0  0  0
   50.0429   98.9889   24.8629 C   0  0  0  0  0  0
   50.3283   97.8959   25.6113 N   0  0  0  0  0  0
   50.6620   98.0909   26.9117 C   0  0  0  0  0  0
   50.7272   99.3575   27.4940 C   0  0  0  0  0  0
   53.6508  101.0221   30.6645 C   0  0  1  0  0  0
   53.6190  101.7740   31.9811 C   0  0  0  0  0  0
   52.7733  101.3666   33.0215 C   0  0  0  0  0  0
   52.7648  102.0542   34.2358 C   0  0  0  0  0  0
   53.5952  103.1609   34.4178 C   0  0  0  0  0  0
   54.4300  103.5863   33.3856 C   0  0  0  0  0  0
   54.4450  102.8917   32.1746 C   0  0  0  0  0  0
   54.2474   99.5873   30.7628 C   0  0  0  0  0  0
   55.2430   99.3955   31.6242 N   0  0  0  0  0  0
   53.8661   98.6898   30.0114 O   0  0  0  0  0  0
   55.2243  104.6898   33.5611 O   0  0  0  0  0  0
   52.4760  100.1711   29.2632 H   0  0  0  0  0  0
   50.0233  102.4302   26.5036 H   0  0  0  0  0  0
   49.8358  101.1030   24.7149 H   0  0  0  0  0  0
   49.7619   98.8253   23.8350 H   0  0  0  0  0  0
   50.8625   97.2037   27.4958 H   0  0  0  0  0  0
   50.9529   99.4421   28.5424 H   0  0  0  0  0  0
   54.3862  101.4933   30.0116 H   0  0  0  0  0  0
   52.1275  100.5110   32.8863 H   0  0  0  0  0  0
   52.1151  101.7297   35.0350 H   0  0  0  0  0  0
   53.5842  103.6960   35.3557 H   0  0  0  0  0  0
   55.0981  103.2251   31.3798 H   0  0  0  0  0  0
   55.7601   98.5244   31.6116 H   0  0  0  0  0  0
   55.5887  100.1585   32.1862 H   0  0  0  0  0  0
   55.5233  105.0493   32.7131 H   0  0  0  0  0  0
  1  6  2  0  0  0
  1  4  1  0  0  0
  1  2  1  0  0  0
  2  3  2  0  0  0
  2  8  1  0  0  0
  3  7  1  0  0  0
  3  4  1  0  0  0
  4  5  2  0  0  0
  7 15  1  0  0  0
  7 26  1  0  0  0
  8  9  1  0  0  0
  8 27  1  0  0  0
  9 14  1  0  0  0
  9 10  2  0  0  0
 10 11  1  0  0  0
 10 28  1  0  0  0
 11 12  2  0  0  0
 11 29  1  0  0  0
 12 13  1  0  0  0
 13 14  2  0  0  0
 13 30  1  0  0  0
 14 31  1  0  0  0
 15 16  1  0  0  0
 15 22  1  0  0  0
 15 32  1  0  0  0
 16 17  2  0  0  0
 16 21  1  0  0  0
 17 18  1  0  0  0
 17 33  1  0  0  0
 18 19  2  0  0  0
 18 34  1  0  0  0
 19 20  1  0  0  0
 19 35  1  0  0  0
 20 21  2  0  0  0
 20 25  1  0  0  0
 21 36  1  0  0  0
 22 23  1  0  0  0
 22 24  2  0  0  0
 23 37  1  0  0  0
 23 38  1  0  0  0
 25 39  1  0  0  0
M  END
> <s_m_entry_id>
28690

> <s_m_entry_name>
dock_pv.851

> <s_m_Source_Path>
/home/csk/Desktop/cluster/DUD-E-result/rock1

> <s_m_Source_File>
dock_pv.maegz

> <i_m_Source_File_Index>
851

> <chembl_id>
CHEMBL511410

> <chembl_pref_name>
None

> <i_lp_mmshare_version>
53161

> <r_lp_tautomer_probability>
0.999999999997365

> <s_lp_Force_Field>
OPLS_2005

> <r_lp_Energy>
34.611097

> <b_lp_Chiralities_Consistent>
1

> <s_lp_Variant>
CHEMBL3231_lig112-2

> <s_i_glide_gridfile>
glide-grid_2etr

> <i_i_glide_lignum>
215

> <i_i_glide_rotatable_bonds>
7

> <r_i_docking_score>
-6.81972252107021

> <r_i_glide_ligand_efficiency>
-0.272788900842808

> <r_i_glide_ligand_efficiency_sa>
-0.797639583996128

> <r_i_glide_ligand_efficiency_ln>
-1.6164786080859

> <r_i_glide_gscore>
-6.81972252107021

> <r_i_glide_lipo>
-2.05086782064149

> <r_i_glide_hbond>
-0.623124583016839

> <r_i_glide_metal>
0

> <r_i_glide_rewards>
-1.12865899436561

> <r_i_glide_evdw>
-42.0790634155273

> <r_i_glide_ecoul>
-10.7987680435181

> <r_i_glide_erotb>
0.826081519167806

> <r_i_glide_esite>
-0.11938426491

> <r_i_glide_emodel>
-70.2066242062763

> <r_i_glide_energy>
-52.8778314590454

> <r_i_glide_einternal>
10.5083255767822

> <i_i_glide_confnum>
13

> <i_i_glide_posenum>
278

> <r_i_glide_eff_state_penalty>
0

> <s_user_duplicate_titles>
CHEMBL3231_lig112,480931

> <i_f3d_flags>
0

> <s_m_subgroup_title>
dock_pv

> <s_m_subgroupid>
dock_pv

> <b_m_subgroup_collapsed>
1

$$$$
CHEMBL3231_lig678
                    3D
 Schrodinger Suite 2021-1.
 43 45  0  0  1  0            999 V2000
   49.2437  101.2584   35.8813 C   0  0  0  0  0  0
   49.0359  102.6429   36.1258 O   0  0  0  0  0  0
   49.9609  103.5494   35.6517 C   0  0  0  0  0  0
   49.7439  104.8887   35.9747 C   0  0  0  0  0  0
   50.6405  105.8711   35.5628 C   0  0  0  0  0  0
   51.7582  105.5182   34.8101 C   0  0  0  0  0  0
   51.9882  104.1878   34.4424 C   0  0  0  0  0  0
   51.0875  103.2091   34.8830 C   0  0  0  0  0  0
   53.2228  103.8308   33.5964 C   0  0  1  0  0  0
   54.3371  103.1812   34.4436 C   0  0  0  0  0  0
   52.9297  103.1223   32.3377 N   0  0  0  0  0  0
   52.6481  101.8148   32.1529 C   0  0  0  0  0  0
   52.6999  100.9778   33.0541 O   0  0  0  0  0  0
   52.2338  101.4021   30.7577 C   0  0  0  0  0  0
   52.3730  100.0703   30.3486 C   0  0  0  0  0  0
   51.9302   99.6596   29.0919 C   0  0  0  0  0  0
   51.3247  100.5589   28.2037 C   0  0  0  0  0  0
   51.1968  101.9029   28.6092 C   0  0  0  0  0  0
   50.4429  103.1115   27.6317 Cl  0  0  0  0  0  0
   51.6544  102.3112   29.8628 C   0  0  0  0  0  0
   50.8315  100.0109   26.8910 C   0  0  0  0  0  0
   50.4552   98.6843   26.5912 C   0  0  0  0  0  0
   50.0428   98.5089   25.3563 N   0  0  0  0  0  0
   50.1296   99.7216   24.8112 N   0  0  0  0  0  0
   50.6308  100.6557   25.6758 C   0  0  0  0  0  0
   48.4432  100.7036   36.3596 H   0  0  0  0  0  0
   49.2218  101.0256   34.8161 H   0  0  0  0  0  0
   50.1851  100.9094   36.3081 H   0  0  0  0  0  0
   48.8803  105.1632   36.5620 H   0  0  0  0  0  0
   50.4744  106.9053   35.8270 H   0  0  0  0  0  0
   52.4419  106.2954   34.4970 H   0  0  0  0  0  0
   51.2749  102.1794   34.6322 H   0  0  0  0  0  0
   53.6451  104.7758   33.2446 H   0  0  0  0  0  0
   54.6678  103.8519   35.2370 H   0  0  0  0  0  0
   54.0037  102.2571   34.9163 H   0  0  0  0  0  0
   55.2095  102.9435   33.8331 H   0  0  0  0  0  0
   52.9513  103.7027   31.5137 H   0  0  0  0  0  0
   52.8195   99.3378   31.0078 H   0  0  0  0  0  0
   52.0581   98.6224   28.8197 H   0  0  0  0  0  0
   51.5231  103.3463   30.1393 H   0  0  0  0  0  0
   50.4718   97.8548   27.2831 H   0  0  0  0  0  0
   49.8463   99.9032   23.8550 H   0  0  0  0  0  0
   50.7782  101.6767   25.3607 H   0  0  0  0  0  0
  1  2  1  0  0  0
  1 26  1  0  0  0
  1 27  1  0  0  0
  1 28  1  0  0  0
  2  3  1  0  0  0
  3  4  2  0  0  0
  3  8  1  0  0  0
  4  5  1  0  0  0
  4 29  1  0  0  0
  5  6  2  0  0  0
  5 30  1  0  0  0
  6  7  1  0  0  0
  6 31  1  0  0  0
  7  8  2  0  0  0
  7  9  1  0  0  0
  8 32  1  0  0  0
  9 10  1  0  0  0
  9 11  1  0  0  0
  9 33  1  0  0  0
 10 34  1  0  0  0
 10 35  1  0  0  0
 10 36  1  0  0  0
 11 12  1  0  0  0
 11 37  1  0  0  0
 12 13  2  0  0  0
 12 14  1  0  0  0
 14 15  2  0  0  0
 14 20  1  0  0  0
 15 16  1  0  0  0
 15 38  1  0  0  0
 16 17  2  0  0  0
 16 39  1  0  0  0
 17 18  1  0  0  0
 17 21  1  0  0  0
 18 19  1  0  0  0
 18 20  2  0  0  0
 20 40  1  0  0  0
 21 22  1  0  0  0
 21 25  2  0  0  0
 22 23  2  0  0  0
 22 41  1  0  0  0
 23 24  1  0  0  0
 24 25  1  0  0  0
 24 42  1  0  0  0
 25 43  1  0  0  0
M  END
> <s_m_entry_id>
28691

> <s_m_entry_name>
dock_pv.852

> <s_m_Source_Path>
/home/csk/Desktop/cluster/DUD-E-result/rock1

> <s_m_Source_File>
dock_pv.maegz

> <i_m_Source_File_Index>
852

> <chembl_id>
CHEMBL4109840

> <chembl_pref_name>
None

> <i_lp_mmshare_version>
53161

> <r_lp_tautomer_probability>
0.5

> <s_lp_Force_Field>
OPLS_2005

> <r_lp_Energy>
20.936802

> <b_lp_Chiralities_Consistent>
1

> <s_lp_Variant>
CHEMBL3231_lig678-1

> <s_i_glide_gridfile>
glide-grid_2etr

> <i_i_glide_lignum>
971

> <i_i_glide_rotatable_bonds>
6

> <r_i_docking_score>
-6.81908322112184

> <r_i_glide_ligand_efficiency>
-0.272763328844874

> <r_i_glide_ligand_efficiency_sa>
-0.797564811020646

> <r_i_glide_ligand_efficiency_ln>
-1.61632707483987

> <r_i_glide_gscore>
-6.81908322112184

> <r_i_glide_lipo>
-2.30738301879317

> <r_i_glide_hbond>
-0.266177151670571

> <r_i_glide_metal>
0

> <r_i_glide_rewards>
-2.16083630971146

> <r_i_glide_evdw>
-40.9723968505859

> <r_i_glide_ecoul>
-3.45000815391541

> <r_i_glide_erotb>
0.528707090090174

> <r_i_glide_esite>
-0.047272765420205

> <r_i_glide_emodel>
-61.2826382475758

> <r_i_glide_energy>
-44.4224050045013

> <r_i_glide_einternal>
3.39794421195984

> <i_i_glide_confnum>
86

> <i_i_glide_posenum>
99

> <r_i_glide_eff_state_penalty>
0

> <s_user_duplicate_titles>
CHEMBL3231_lig678

> <i_f3d_flags>
0

> <s_m_subgroup_title>
dock_pv

> <s_m_subgroupid>
dock_pv

> <b_m_subgroup_collapsed>
1

$$$$
CHEMBL3231_lig718
                    3D
 Schrodinger Suite 2021-1.
 50 52  0  0  1  0            999 V2000
   54.7909  102.5003   31.2432 C   0  0  0  0  0  0
   54.8437  101.1648   31.7685 O   0  0  0  0  0  0
   54.3472  100.8703   33.0156 C   0  0  0  0  0  0
   54.4156   99.5471   33.4607 C   0  0  0  0  0  0
   53.5968   99.1195   34.5102 C   0  0  0  0  0  0
   52.6122   99.9802   35.0009 C   0  0  0  0  0  0
   51.6443   99.5017   35.8137 F   0  0  0  0  0  0
   52.5664  101.3008   34.5414 C   0  0  0  0  0  0
   53.6008  101.7879   33.7480 C   0  0  0  0  0  0
   51.2368  102.0378   34.4273 C   0  0  1  0  0  0
   51.2283  103.4349   35.0821 C   0  0  0  0  0  0
   50.8421  101.9801   32.9993 N   0  0  0  0  0  0
   51.2446  102.7565   31.9688 C   0  0  0  0  0  0
   51.6433  103.9034   32.1297 O   0  0  0  0  0  0
   51.2430  102.1328   30.5866 C   0  0  0  0  0  0
   51.6437  100.7968   30.4246 C   0  0  0  0  0  0
   51.5115  100.1517   29.1963 C   0  0  0  0  0  0
   50.9638  100.8192   28.0983 C   0  0  0  0  0  0
   50.6555  102.1719   28.2378 C   0  0  0  0  0  0
   50.8097  102.8502   29.4527 C   0  0  0  0  0  0
   50.5011  104.1902   29.5755 O   0  0  0  0  0  0
   50.1165  104.9563   28.4349 C   0  0  0  0  0  0
   50.6388  100.1563   26.7931 C   0  0  0  0  0  0
   50.3361  100.7977   25.6029 C   0  0  0  0  0  0
   50.0266   99.8270   24.7000 N   0  0  0  0  0  0
   50.1177   98.6069   25.2154 N   0  0  0  0  0  0
   50.5041   98.7887   26.4624 C   0  0  0  0  0  0
   50.7167   97.5779   27.3263 C   0  0  0  0  0  0
   54.8429  102.4570   30.1550 H   0  0  0  0  0  0
   53.8735  103.0419   31.4236 H   0  0  0  0  0  0
   55.6211  103.1032   31.6148 H   0  0  0  0  0  0
   55.0441   98.8375   32.9408 H   0  0  0  0  0  0
   53.6261   98.0895   34.8344 H   0  0  0  0  0  0
   53.5588  102.8184   33.4407 H   0  0  0  0  0  0
   50.4720  101.4584   34.9485 H   0  0  0  0  0  0
   51.3952  103.3585   36.1567 H   0  0  0  0  0  0
   52.0027  104.0890   34.6812 H   0  0  0  0  0  0
   50.2690  103.9308   34.9342 H   0  0  0  0  0  0
   50.4289  101.1010   32.7284 H   0  0  0  0  0  0
   52.0326  100.2312   31.2607 H   0  0  0  0  0  0
   51.8076   99.1186   29.1307 H   0  0  0  0  0  0
   50.2507  102.6961   27.3889 H   0  0  0  0  0  0
   50.0426  106.0050   28.7179 H   0  0  0  0  0  0
   50.8450  104.8899   27.6276 H   0  0  0  0  0  0
   49.1418  104.6480   28.0616 H   0  0  0  0  0  0
   50.2824  101.8404   25.3375 H   0  0  0  0  0  0
   49.7129   99.9881   23.7487 H   0  0  0  0  0  0
   50.1211   97.6139   28.2383 H   0  0  0  0  0  0
   50.4519   96.6644   26.8017 H   0  0  0  0  0  0
   51.7631   97.5025   27.6143 H   0  0  0  0  0  0
  1  2  1  0  0  0
  1 29  1  0  0  0
  1 30  1  0  0  0
  1 31  1  0  0  0
  2  3  1  0  0  0
  3  4  2  0  0  0
  3  9  1  0  0  0
  4  5  1  0  0  0
  4 32  1  0  0  0
  5  6  2  0  0  0
  5 33  1  0  0  0
  6  7  1  0  0  0
  6  8  1  0  0  0
  8  9  2  0  0  0
  8 10  1  0  0  0
  9 34  1  0  0  0
 10 11  1  0  0  0
 10 12  1  0  0  0
 10 35  1  0  0  0
 11 36  1  0  0  0
 11 37  1  0  0  0
 11 38  1  0  0  0
 12 13  1  0  0  0
 12 39  1  0  0  0
 13 14  2  0  0  0
 13 15  1  0  0  0
 15 16  2  0  0  0
 15 20  1  0  0  0
 16 17  1  0  0  0
 16 40  1  0  0  0
 17 18  2  0  0  0
 17 41  1  0  0  0
 18 19  1  0  0  0
 18 23  1  0  0  0
 19 20  2  0  0  0
 19 42  1  0  0  0
 20 21  1  0  0  0
 21 22  1  0  0  0
 22 43  1  0  0  0
 22 44  1  0  0  0
 22 45  1  0  0  0
 23 24  2  0  0  0
 23 27  1  0  0  0
 24 25  1  0  0  0
 24 46  1  0  0  0
 25 26  1  0  0  0
 25 47  1  0  0  0
 26 27  2  0  0  0
 27 28  1  0  0  0
 28 48  1  0  0  0
 28 49  1  0  0  0
 28 50  1  0  0  0
M  END
> <s_m_entry_id>
28692

> <s_m_entry_name>
dock_pv.853

> <s_m_Source_Path>
/home/csk/Desktop/cluster/DUD-E-result/rock1

> <s_m_Source_File>
dock_pv.maegz

> <i_m_Source_File_Index>
853

> <chembl_id>
CHEMBL3950642

> <chembl_pref_name>
None

> <i_lp_mmshare_version>
53161

> <r_lp_tautomer_probability>
0.5

> <s_lp_Force_Field>
OPLS_2005

> <r_lp_Energy>
26.007928

> <b_lp_Chiralities_Consistent>
1

> <s_lp_Variant>
CHEMBL3231_lig718-2

> <s_i_glide_gridfile>
glide-grid_2etr

> <i_i_glide_lignum>
1022

> <i_i_glide_rotatable_bonds>
7

> <r_i_docking_score>
-6.81819454289474

> <r_i_glide_ligand_efficiency>
-0.243506947960526

> <r_i_glide_ligand_efficiency_sa>
-0.739430511930724

> <r_i_glide_ligand_efficiency_ln>
-1.57383949139072

> <r_i_glide_gscore>
-6.81819454289474

> <r_i_glide_lipo>
-2.0865464407182

> <r_i_glide_hbond>
-0.618018070724688

> <r_i_glide_metal>
0

> <r_i_glide_rewards>
-1.86604293109712

> <r_i_glide_evdw>
-32.5700035095215

> <r_i_glide_ecoul>
-6.70062732696533

> <r_i_glide_erotb>
0.462639497467991

> <r_i_glide_esite>
-0.0766323233018459

> <r_i_glide_emodel>
-44.7247263610016

> <r_i_glide_energy>
-39.2706308364868

> <r_i_glide_einternal>
20.2055015563965

> <i_i_glide_confnum>
43

> <i_i_glide_posenum>
391

> <r_i_glide_eff_state_penalty>
0

> <s_user_duplicate_titles>
CHEMBL3231_lig718

> <i_f3d_flags>
0

> <s_m_subgroup_title>
dock_pv

> <s_m_subgroupid>
dock_pv

> <b_m_subgroup_collapsed>
1

$$$$
CHEMBL3231_lig271
                    3D
 Schrodinger Suite 2021-1.
 54 58  0  0  1  0            999 V2000
   54.5120   99.9436   32.3161 C   0  0  0  0  0  0
   54.8440  101.2299   32.6004 N   0  0  0  0  0  0
   54.2704  102.1925   31.8485 C   0  0  0  0  0  0
   53.4518  101.9876   30.7924 N   0  0  0  0  0  0
   53.1791  100.6957   30.4448 C   0  0  0  0  0  0
   53.7192   99.6392   31.1995 C   0  0  0  0  0  0
   52.2862  100.4845   29.2464 C   0  0  0  0  0  0
   51.9560   99.1853   28.8110 C   0  0  0  0  0  0
   50.9950  101.4496   27.3889 C   0  0  0  0  0  0
   51.7793  101.5862   28.5319 C   0  0  0  0  0  0
   50.7222  100.1627   26.9197 C   0  0  0  0  0  0
   51.1963   99.0497   27.6449 C   0  0  0  0  0  0
   50.7513   97.9440   26.9428 N   0  0  0  0  0  0
   50.0641   98.2881   25.8331 N   0  0  0  0  0  0
   50.0428   99.5944   25.8020 C   0  0  0  0  0  0
   49.4534  100.3209   24.8112 N   0  0  0  0  0  0
   54.5204  103.5031   32.2233 N   0  0  0  0  0  0
   55.1291   98.9378   33.0573 N   0  0  0  0  0  0
   56.2769   99.1037   33.9683 C   0  0  0  0  0  0
   55.8698   98.9664   35.4526 C   0  0  0  0  0  0
   55.2039   97.7144   35.6615 O   0  0  0  0  0  0
   54.0756   97.4852   34.8056 C   0  0  2  0  0  0
   54.5295   97.6150   33.3146 C   0  0  0  0  0  0
   52.9045   98.3970   35.2887 C   0  0  0  0  0  0
   52.4458   99.3452   34.4447 N   0  0  0  0  0  0
   52.4434   98.2024   36.4108 O   0  0  0  0  0  0
   51.5598  100.4173   34.6601 C   0  0  0  0  0  0
   51.0453  100.7928   35.9085 C   0  0  0  0  0  0
   50.2105  101.9041   36.0107 C   0  0  0  0  0  0
   49.9155  102.6611   34.8812 C   0  0  0  0  0  0
   50.4434  102.3082   33.6435 C   0  0  0  0  0  0
   51.2440  101.1779   33.5332 C   0  0  0  0  0  0
   53.5501   98.6120   30.9284 H   0  0  0  0  0  0
   52.2958   98.3027   29.3240 H   0  0  0  0  0  0
   50.6349  102.3180   26.8577 H   0  0  0  0  0  0
   52.0116  102.5929   28.8510 H   0  0  0  0  0  0
   50.9034   96.9708   27.1690 H   0  0  0  0  0  0
   49.3104  101.3161   24.9024 H   0  0  0  0  0  0
   49.0823   99.9025   23.9636 H   0  0  0  0  0  0
   54.3312  104.2394   31.5569 H   0  0  0  0  0  0
   55.2451  103.6427   32.9094 H   0  0  0  0  0  0
   57.0228   98.3429   33.7241 H   0  0  0  0  0  0
   56.7846  100.0517   33.7990 H   0  0  0  0  0  0
   56.7619   98.9919   36.0785 H   0  0  0  0  0  0
   55.2496   99.8064   35.7677 H   0  0  0  0  0  0
   53.7018   96.4761   34.9835 H   0  0  0  0  0  0
   55.2613   96.8417   33.0752 H   0  0  0  0  0  0
   53.6750   97.4440   32.6608 H   0  0  0  0  0  0
   52.8762   99.3407   33.5326 H   0  0  0  0  0  0
   51.2864  100.2516   36.8087 H   0  0  0  0  0  0
   49.8053  102.1905   36.9702 H   0  0  0  0  0  0
   49.2817  103.5299   34.9706 H   0  0  0  0  0  0
   50.2154  102.8938   32.7663 H   0  0  0  0  0  0
   51.6188  100.9061   32.5607 H   0  0  0  0  0  0
  1 18  1  0  0  0
  1  6  1  0  0  0
  1  2  2  0  0  0
  2  3  1  0  0  0
  3 17  1  0  0  0
  3  4  2  0  0  0
  4  5  1  0  0  0
  5  7  1  0  0  0
  5  6  2  0  0  0
  6 33  1  0  0  0
  7  8  2  0  0  0
  7 10  1  0  0  0
  8 12  1  0  0  0
  8 34  1  0  0  0
  9 11  1  0  0  0
  9 10  2  0  0  0
  9 35  1  0  0  0
 10 36  1  0  0  0
 11 15  1  0  0  0
 11 12  2  0  0  0
 12 13  1  0  0  0
 13 14  1  0  0  0
 13 37  1  0  0  0
 14 15  2  0  0  0
 15 16  1  0  0  0
 16 38  1  0  0  0
 16 39  1  0  0  0
 17 40  1  0  0  0
 17 41  1  0  0  0
 18 19  1  0  0  0
 18 23  1  0  0  0
 19 20  1  0  0  0
 19 42  1  0  0  0
 19 43  1  0  0  0
 20 21  1  0  0  0
 20 44  1  0  0  0
 20 45  1  0  0  0
 21 22  1  0  0  0
 22 23  1  0  0  0
 22 24  1  0  0  0
 22 46  1  0  0  0
 23 47  1  0  0  0
 23 48  1  0  0  0
 24 25  1  0  0  0
 24 26  2  0  0  0
 25 27  1  0  0  0
 25 49  1  0  0  0
 27 28  2  0  0  0
 27 32  1  0  0  0
 28 29  1  0  0  0
 28 50  1  0  0  0
 29 30  2  0  0  0
 29 51  1  0  0  0
 30 31  1  0  0  0
 30 52  1  0  0  0
 31 32  2  0  0  0
 31 53  1  0  0  0
 32 54  1  0  0  0
M  END
> <s_m_entry_id>
28695

> <s_m_entry_name>
dock_pv.856

> <s_m_Source_Path>
/home/csk/Desktop/cluster/DUD-E-result/rock1

> <s_m_Source_File>
dock_pv.maegz

> <i_m_Source_File_Index>
856

> <chembl_id>
CHEMBL1765731

> <chembl_pref_name>
None

> <i_lp_mmshare_version>
53161

> <r_lp_tautomer_probability>
0.999999648617923

> <s_lp_Force_Field>
OPLS_2005

> <r_lp_Energy>
26.599501

> <b_lp_Chiralities_Consistent>
1

> <s_lp_Variant>
CHEMBL3231_lig271-1

> <s_i_glide_gridfile>
glide-grid_2etr

> <i_i_glide_lignum>
417

> <i_i_glide_rotatable_bonds>
5

> <r_i_docking_score>
-6.80978121652236

> <r_i_glide_ligand_efficiency>
-0.212805663016324

> <r_i_glide_ligand_efficiency_sa>
-0.675615865893303

> <r_i_glide_ligand_efficiency_ln>
-1.52489564200451

> <r_i_glide_gscore>
-6.80978121652236

> <r_i_glide_lipo>
-2.55691664544295

> <r_i_glide_hbond>
-0.656173860419328

> <r_i_glide_metal>
0

> <r_i_glide_rewards>
-0.775492637996326

> <r_i_glide_evdw>
-47.8927116394043

> <r_i_glide_ecoul>
-5.39214468002319

> <r_i_glide_erotb>
0.536470831533566

> <r_i_glide_esite>
-0.154211620223627

> <r_i_glide_emodel>
-70.3321306429075

> <r_i_glide_energy>
-53.2848563194275

> <r_i_glide_einternal>
7.0689525604248

> <i_i_glide_confnum>
42

> <i_i_glide_posenum>
250

> <r_i_glide_eff_state_penalty>
0

> <s_user_duplicate_titles>
CHEMBL3231_lig271

> <i_f3d_flags>
0

> <s_m_subgroup_title>
dock_pv

> <s_m_subgroupid>
dock_pv

> <b_m_subgroup_collapsed>
1

$$$$
CHEMBL3231_lig1825
                    3D
 Schrodinger Suite 2021-1.
 45 50  0  0  1  0            999 V2000
   51.6326  105.1030   34.0141 F   0  0  0  0  0  0
   50.4959   97.5639   25.7319 F   0  0  0  0  0  0
   50.8582  102.7543   34.9933 O   0  0  0  0  0  0
   53.8214   97.9001   35.9746 O   0  0  0  0  0  0
   53.0564   99.2244   34.2128 N   0  0  0  0  0  0
   51.8839  100.2464   29.6290 N   0  0  0  0  0  0
   52.3302   99.8568   31.9316 N   0  0  0  0  0  0
   54.0169   97.3633   33.7352 N   0  0  0  0  0  0
   53.1100   98.3033   30.2409 N   0  0  0  0  0  0
   51.1897  102.1694   28.6393 N   0  0  0  0  0  0
   52.9233   99.0488   32.8509 C   0  0  0  0  0  0
   52.5997  100.3818   34.9879 C   0  0  1  0  0  0
   53.5833   97.8985   32.5485 C   0  0  0  0  0  0
   53.6440   98.1356   34.7794 C   0  0  0  0  0  0
   52.4425   99.4264   30.6403 C   0  0  0  0  0  0
   53.0254  101.7412   34.4193 C   0  0  0  0  0  0
   51.3854   99.8869   28.3789 C   0  0  0  0  0  0
   52.1382  102.8340   34.4694 C   0  0  0  0  0  0
   53.6817   97.5316   31.2110 C   0  0  0  0  0  0
   50.9808  101.1178   27.7921 C   0  0  0  0  0  0
   51.0814  100.3567   35.2407 C   0  0  0  0  0  0
   51.7232  101.6197   29.6976 C   0  0  0  0  0  0
   54.2917  101.9528   33.8475 C   0  0  0  0  0  0
   52.5046  104.0775   33.9539 C   0  0  0  0  0  0
   51.2302   98.6678   27.6988 C   0  0  0  0  0  0
   50.6175  101.6670   35.8837 C   0  0  0  0  0  0
   50.4416  101.1354   26.4972 C   0  0  0  0  0  0
   50.6733   98.7165   26.4173 C   0  0  0  0  0  0
   53.7585  104.2581   33.3737 C   0  0  0  0  0  0
   54.6539  103.1926   33.3193 C   0  0  0  0  0  0
   50.2918   99.9199   25.8269 C   0  0  0  0  0  0
   54.5082   96.4881   33.8378 H   0  0  0  0  0  0
   53.0890  100.3278   35.9636 H   0  0  0  0  0  0
   54.2162   96.6498   30.8903 H   0  0  0  0  0  0
   50.5359  100.2092   34.3066 H   0  0  0  0  0  0
   50.8430   99.5131   35.8889 H   0  0  0  0  0  0
   52.0520  102.1514   30.5802 H   0  0  0  0  0  0
   55.0018  101.1409   33.7957 H   0  0  0  0  0  0
   51.5157   97.7209   28.1317 H   0  0  0  0  0  0
   49.5558  101.6277   36.1273 H   0  0  0  0  0  0
   51.1627  101.8354   36.8125 H   0  0  0  0  0  0
   50.1342  102.0633   26.0391 H   0  0  0  0  0  0
   54.0362  105.2225   32.9640 H   0  0  0  0  0  0
   55.6247  103.3220   32.8633 H   0  0  0  0  0  0
   49.8668   99.9092   24.8341 H   0  0  0  0  0  0
  1 24  1  0  0  0
  2 28  1  0  0  0
  3 18  1  0  0  0
  3 26  1  0  0  0
  4 14  2  0  0  0
  5 11  1  0  0  0
  5 12  1  0  0  0
  5 14  1  0  0  0
  6 15  1  0  0  0
  6 17  1  0  0  0
  6 22  1  0  0  0
  7 11  2  0  0  0
  7 15  1  0  0  0
  8 13  1  0  0  0
  8 14  1  0  0  0
  8 32  1  0  0  0
  9 15  2  0  0  0
  9 19  1  0  0  0
 10 20  1  0  0  0
 10 22  2  0  0  0
 11 13  1  0  0  0
 12 16  1  0  0  0
 12 21  1  0  0  0
 12 33  1  0  0  0
 13 19  2  0  0  0
 16 18  1  0  0  0
 16 23  2  0  0  0
 17 20  1  0  0  0
 17 25  2  0  0  0
 18 24  2  0  0  0
 19 34  1  0  0  0
 20 27  2  0  0  0
 21 26  1  0  0  0
 21 35  1  0  0  0
 21 36  1  0  0  0
 22 37  1  0  0  0
 23 30  1  0  0  0
 23 38  1  0  0  0
 24 29  1  0  0  0
 25 28  1  0  0  0
 25 39  1  0  0  0
 26 40  1  0  0  0
 26 41  1  0  0  0
 27 31  1  0  0  0
 27 42  1  0  0  0
 28 31  2  0  0  0
 29 30  2  0  0  0
 29 43  1  0  0  0
 30 44  1  0  0  0
 31 45  1  0  0  0
M  END
> <s_m_entry_id>
28696

> <s_m_entry_name>
dock_pv.857

> <s_m_Source_Path>
/home/csk/Desktop/cluster/DUD-E-result/rock1

> <s_m_Source_File>
dock_pv.maegz

> <i_m_Source_File_Index>
857

> <chembl_id>
CHEMBL2000393

> <chembl_pref_name>
None

> <i_lp_mmshare_version>
53161

> <r_lp_tautomer_probability>
1

> <s_lp_Force_Field>
OPLS_2005

> <r_lp_Energy>
37.783053

> <b_lp_Chiralities_Consistent>
1

> <s_lp_Variant>
CHEMBL3231_lig1825-2

> <s_i_glide_gridfile>
glide-grid_2etr

> <i_i_glide_lignum>
2626

> <i_i_glide_rotatable_bonds>
2

> <r_i_docking_score>
-6.80883054400844

> <r_i_glide_ligand_efficiency>
-0.219639694968014

> <r_i_glide_ligand_efficiency_sa>
-0.689971887479882

> <r_i_glide_ligand_efficiency_ln>
-1.53559995327029

> <r_i_glide_gscore>
-6.80883054400844

> <r_i_glide_lipo>
-2.39618515972154

> <r_i_glide_hbond>
0

> <r_i_glide_metal>
0

> <r_i_glide_rewards>
-1.83513377833319

> <r_i_glide_evdw>
-43.6364288330078

> <r_i_glide_ecoul>
-3.24521350860596

> <r_i_glide_erotb>
0.22400050772532

> <r_i_glide_esite>
-0.13290864573775

> <r_i_glide_emodel>
-66.3799942501663

> <r_i_glide_energy>
-46.8816423416138

> <r_i_glide_einternal>
1.38035428524017

> <i_i_glide_confnum>
2

> <i_i_glide_posenum>
389

> <r_i_glide_eff_state_penalty>
0

> <s_user_duplicate_titles>
CHEMBL3231_lig1825

> <i_f3d_flags>
0

> <s_m_subgroup_title>
dock_pv

> <s_m_subgroupid>
dock_pv

> <b_m_subgroup_collapsed>
1

$$$$
CHEMBL3231_lig418
                    3D
 Schrodinger Suite 2021-1.
 39 41  0  0  1  0            999 V2000
   54.0155  100.7661   33.1734 O   0  0  0  0  0  0
   54.5958   99.9690   32.4324 C   0  0  0  0  0  0
   55.6442   99.2248   32.8113 N   0  0  0  0  0  0
   56.1018   99.0195   34.1855 C   0  0  0  0  0  0
   56.7515   97.6321   34.3767 C   0  0  0  0  0  0
   55.8429   96.4553   34.0313 C   0  0  0  0  0  0
   54.7839   96.1252   34.8825 C   0  0  0  0  0  0
   53.9540   95.0484   34.5771 C   0  0  0  0  0  0
   54.1863   94.3033   33.4236 C   0  0  0  0  0  0
   55.2434   94.6229   32.5721 C   0  0  0  0  0  0
   56.0720   95.6992   32.8769 C   0  0  0  0  0  0
   54.2533   99.6853   31.1624 N   0  0  0  0  0  0
   53.2519  100.2796   30.4067 C   0  0  0  0  0  0
   52.7230   99.6465   29.3927 N   0  0  0  0  0  0
   51.8683  100.3796   28.6928 C   0  0  0  0  0  0
   51.7041  101.6772   29.1890 C   0  0  0  0  0  0
   52.7066  101.9264   30.5884 S   0  0  0  0  0  0
   51.2056   99.7945   27.4812 C   0  0  0  0  0  0
   51.1062   98.4040   27.3056 C   0  0  0  0  0  0
   50.5140   97.9045   26.1444 C   0  0  0  0  0  0
   50.0338   98.7034   25.1639 N   0  0  0  0  0  0
   50.1153  100.0474   25.3409 C   0  0  0  0  0  0
   50.6868  100.6265   26.4760 C   0  0  0  0  0  0
   56.2603   98.8485   32.0955 H   0  0  0  0  0  0
   55.2252   99.0737   34.8359 H   0  0  0  0  0  0
   56.7850   99.8171   34.4767 H   0  0  0  0  0  0
   57.0894   97.5200   35.4069 H   0  0  0  0  0  0
   57.6661   97.5759   33.7789 H   0  0  0  0  0  0
   54.6060   96.7021   35.7771 H   0  0  0  0  0  0
   53.1323   94.7912   35.2295 H   0  0  0  0  0  0
   53.5320   93.4746   33.1887 H   0  0  0  0  0  0
   55.4228   94.0404   31.6796 H   0  0  0  0  0  0
   56.8922   95.9398   32.2130 H   0  0  0  0  0  0
   54.7614   98.9368   30.7134 H   0  0  0  0  0  0
   51.0745  102.4705   28.8103 H   0  0  0  0  0  0
   51.4819   97.7194   28.0516 H   0  0  0  0  0  0
   50.4405   96.8380   25.9886 H   0  0  0  0  0  0
   49.7196  100.6599   24.5444 H   0  0  0  0  0  0
   50.7418  101.7022   26.5585 H   0  0  0  0  0  0
  1  2  2  0  0  0
  2  3  1  0  0  0
  2 12  1  0  0  0
  3  4  1  0  0  0
  3 24  1  0  0  0
  4  5  1  0  0  0
  4 25  1  0  0  0
  4 26  1  0  0  0
  5  6  1  0  0  0
  5 27  1  0  0  0
  5 28  1  0  0  0
  6  7  2  0  0  0
  6 11  1  0  0  0
  7  8  1  0  0  0
  7 29  1  0  0  0
  8  9  2  0  0  0
  8 30  1  0  0  0
  9 10  1  0  0  0
  9 31  1  0  0  0
 10 11  2  0  0  0
 10 32  1  0  0  0
 11 33  1  0  0  0
 12 13  1  0  0  0
 12 34  1  0  0  0
 13 14  2  0  0  0
 13 17  1  0  0  0
 14 15  1  0  0  0
 15 16  2  0  0  0
 15 18  1  0  0  0
 16 17  1  0  0  0
 16 35  1  0  0  0
 18 19  2  0  0  0
 18 23  1  0  0  0
 19 20  1  0  0  0
 19 36  1  0  0  0
 20 21  2  0  0  0
 20 37  1  0  0  0
 21 22  1  0  0  0
 22 23  2  0  0  0
 22 38  1  0  0  0
 23 39  1  0  0  0
M  END
> <s_m_entry_id>
28697

> <s_m_entry_name>
dock_pv.858

> <s_m_Source_Path>
/home/csk/Desktop/cluster/DUD-E-result/rock1

> <s_m_Source_File>
dock_pv.maegz

> <i_m_Source_File_Index>
858

> <chembl_id>
CHEMBL3218299

> <chembl_pref_name>
None

> <i_lp_mmshare_version>
53161

> <r_lp_tautomer_probability>
0.999000488399163

> <s_lp_Force_Field>
OPLS_2005

> <r_lp_Energy>
7.019716

> <b_lp_Chiralities_Consistent>
1

> <s_lp_Variant>
CHEMBL3231_lig418-1

> <s_i_glide_gridfile>
glide-grid_2etr

> <i_i_glide_lignum>
602

> <i_i_glide_rotatable_bonds>
7

> <r_i_docking_score>
-6.80837197287777

> <r_i_glide_ligand_efficiency>
-0.296016172733816

> <r_i_glide_ligand_efficiency_sa>
-0.841830618259885

> <r_i_glide_ligand_efficiency_ln>
-1.6463260779457

> <r_i_glide_gscore>
-6.80837197287777

> <r_i_glide_lipo>
-2.34169997074906

> <r_i_glide_hbond>
-0.211921584486562

> <r_i_glide_metal>
0

> <r_i_glide_rewards>
-2.50477092841146

> <r_i_glide_evdw>
-41.6641616821289

> <r_i_glide_ecoul>
-3.84389066696167

> <r_i_glide_erotb>
1.06772256529028

> <r_i_glide_esite>
-0.157910370370271

> <r_i_glide_emodel>
-64.2942719892284

> <r_i_glide_energy>
-45.5080523490906

> <r_i_glide_einternal>
3.34453511238098

> <i_i_glide_confnum>
40

> <i_i_glide_posenum>
380

> <r_i_glide_eff_state_penalty>
0

> <s_user_duplicate_titles>
CHEMBL3231_lig418

> <i_f3d_flags>
0

> <s_m_subgroup_title>
dock_pv

> <s_m_subgroupid>
dock_pv

> <b_m_subgroup_collapsed>
1

$$$$
375613
                    3D
 Schrodinger Suite 2021-1.
 45 48  0  0  1  0            999 V2000
   49.4140  101.2848   35.2116 C   0  0  0  0  0  0
   48.6124  102.4075   35.4085 C   0  0  0  0  0  0
   49.2065  103.6457   35.6296 C   0  0  0  0  0  0
   50.5961  103.7701   35.6526 C   0  0  0  0  0  0
   51.3967  102.6466   35.4563 C   0  0  0  0  0  0
   50.8086  101.3987   35.2182 C   0  0  0  0  0  0
   51.6600  100.1452   34.9928 C   0  0  0  0  0  0
   52.4642  100.1109   33.7585 N   0  0  2  0  0  0
   53.8011  100.7088   33.8820 C   0  0  0  0  0  0
   54.6865  100.3819   32.6605 C   0  0  0  0  0  0
   54.0288  100.7975   31.3361 C   0  0  0  0  0  0
   52.6103  100.2077   31.2462 C   0  0  1  0  0  0
   51.7567  100.4679   32.5168 C   0  0  0  0  0  0
   51.9505  100.8324   30.0973 N   0  0  0  0  0  0
   51.4858  100.1663   28.9505 C   0  0  0  0  0  0
   51.5365   98.7769   28.7774 C   0  0  0  0  0  0
   51.0717   98.1685   27.6086 C   0  0  0  0  0  0
   50.5381   98.9676   26.5889 C   0  0  0  0  0  0
   50.4676  100.3795   26.7665 C   0  0  0  0  0  0
   50.9452  100.9717   27.9454 C   0  0  0  0  0  0
   49.8657  100.8401   25.5725 C   0  0  0  0  0  0
   49.6530   99.7204   24.8113 N   0  0  0  0  0  0
   50.0426   98.5634   25.3773 N   0  0  0  0  0  0
   48.4299  104.7357   35.8218 F   0  0  0  0  0  0
   49.2390   99.7455   23.8832 H   0  0  0  0  0  0
   48.9486  100.3219   35.0486 H   0  0  0  0  0  0
   47.5348  102.3218   35.4000 H   0  0  0  0  0  0
   51.0484  104.7355   35.8264 H   0  0  0  0  0  0
   52.4711  102.7553   35.4970 H   0  0  0  0  0  0
   52.3069   99.9901   35.8597 H   0  0  0  0  0  0
   51.0041   99.2735   34.9682 H   0  0  0  0  0  0
   53.7266  101.7844   34.0364 H   0  0  0  0  0  0
   54.2813  100.3000   34.7733 H   0  0  0  0  0  0
   55.6322  100.9185   32.7581 H   0  0  0  0  0  0
   54.9619   99.3235   32.6565 H   0  0  0  0  0  0
   54.0069  101.8878   31.2738 H   0  0  0  0  0  0
   54.6374  100.4546   30.4982 H   0  0  0  0  0  0
   52.7090   99.1303   31.1230 H   0  0  0  0  0  0
   50.8490   99.8654   32.4563 H   0  0  0  0  0  0
   51.4244  101.5062   32.5657 H   0  0  0  0  0  0
   52.0075  101.8403   30.0495 H   0  0  0  0  0  0
   51.9403   98.1323   29.5406 H   0  0  0  0  0  0
   51.1286   97.0971   27.5016 H   0  0  0  0  0  0
   50.8973  102.0434   28.0682 H   0  0  0  0  0  0
   49.5705  101.8143   25.2131 H   0  0  0  0  0  0
  1  6  1  0  0  0
  1  2  2  0  0  0
  1 26  1  0  0  0
  2  3  1  0  0  0
  2 27  1  0  0  0
  3  4  2  0  0  0
  3 24  1  0  0  0
  4  5  1  0  0  0
  4 28  1  0  0  0
  5  6  2  0  0  0
  5 29  1  0  0  0
  6  7  1  0  0  0
  7  8  1  0  0  0
  7 30  1  0  0  0
  7 31  1  0  0  0
  8 13  1  0  0  0
  8  9  1  0  0  0
  9 10  1  0  0  0
  9 32  1  0  0  0
  9 33  1  0  0  0
 10 11  1  0  0  0
 10 34  1  0  0  0
 10 35  1  0  0  0
 11 12  1  0  0  0
 11 36  1  0  0  0
 11 37  1  0  0  0
 12 13  1  0  0  0
 12 38  1  0  0  0
 12 14  1  0  0  0
 13 39  1  0  0  0
 13 40  1  0  0  0
 14 15  1  0  0  0
 14 41  1  0  0  0
 15 20  2  0  0  0
 15 16  1  0  0  0
 16 17  2  0  0  0
 16 42  1  0  0  0
 17 18  1  0  0  0
 17 43  1  0  0  0
 18 23  2  0  0  0
 18 19  1  0  0  0
 19 20  1  0  0  0
 19 21  2  0  0  0
 20 44  1  0  0  0
 21 45  1  0  0  0
 21 22  1  0  0  0
 22 25  1  0  0  0
 22 23  1  0  0  0
M  END
> <s_m_entry_id>
30571

> <s_m_entry_name>
ligand_docking-pose.1

> <s_m_Source_Path>
/home/csk/Desktop/cluster/DUD-E-result/rock1

> <s_m_Source_File>
ligand_docking-pose.sdf

> <i_m_Source_File_Index>
1

> <i_lp_mmshare_version>
53161

> <i_f3d_flags>
0

> <r_lp_tautomer_probability>
0.0168294951151403

> <s_lp_Force_Field>
OPLS_2005

> <r_lp_Energy>
36.100864

> <b_lp_Chiralities_Consistent>
1

> <s_lp_Variant>
375613-3

> <s_i_glide_gridfile>
glide-grid_2etr

> <i_i_glide_lignum>
115

> <i_i_glide_rotatable_bonds>
4

> <r_i_docking_score>
-9.04824022237504

> <r_i_glide_ligand_efficiency>
-0.377010009265627

> <r_i_glide_ligand_efficiency_sa>
-1.08748504657786

> <r_i_glide_ligand_efficiency_ln>
-2.16565908190357

> <r_i_glide_gscore>
-9.04824022237504

> <r_i_glide_lipo>
-3.239473724808

> <r_i_glide_hbond>
-0.328538426892121

> <r_i_glide_metal>
0

> <r_i_glide_rewards>
-3.48683938037962

> <r_i_glide_evdw>
-41.0605697631836

> <r_i_glide_ecoul>
-4.34798717498779

> <r_i_glide_erotb>
0.711837874112054

> <r_i_glide_esite>
0

> <r_i_glide_emodel>
-66.152206220916

> <r_i_glide_energy>
-45.4085569381714

> <r_i_glide_einternal>
7.53564167022705

> <i_i_glide_confnum>
23

> <i_i_glide_posenum>
169

> <r_i_glide_eff_state_penalty>
0

> <s_user_duplicate_titles>
375613

> <s_m_subgroup_title>
dock_pv

> <s_m_subgroupid>
dock_pv1

> <b_m_subgroup_collapsed>
0

$$$$
375612
                    3D
 Schrodinger Suite 2021-1.
 47 50  0  0  1  0            999 V2000
   48.1667  104.3734   36.7284 C   0  0  0  0  0  0
   47.6722  103.7085   35.6120 C   0  0  0  0  0  0
   48.4751  102.7743   34.9656 C   0  0  0  0  0  0
   49.7566  102.4880   35.4513 C   0  0  0  0  0  0
   50.2434  103.1688   36.5685 C   0  0  0  0  0  0
   49.4479  104.1159   37.2080 C   0  0  0  0  0  0
   50.6504  101.4924   34.7114 C   0  0  0  0  0  0
   51.7860  102.0812   33.9818 N   0  0  2  0  0  0
   51.4798  103.3478   33.2936 C   0  0  0  0  0  0
   52.6675  103.8659   32.4530 C   0  0  0  0  0  0
   53.1690  102.8445   31.4084 C   0  0  0  0  0  0
   53.5374  101.5776   32.2219 C   0  0  0  0  0  0
   52.3942  101.0463   33.1191 C   0  0  0  0  0  0
   52.0868  102.5826   30.3168 C   0  0  0  0  0  0
   51.2398  103.4486   30.0843 O   0  0  0  0  0  0
   52.1832  101.4230   29.6242 N   0  0  0  0  0  0
   51.4646  101.0084   28.4835 C   0  0  0  0  0  0
   50.8441  101.9047   27.6002 C   0  0  0  0  0  0
   50.2704  101.4951   26.3989 C   0  0  0  0  0  0
   50.2906  100.1315   26.1259 C   0  0  0  0  0  0
   50.8524   99.1878   27.0186 C   0  0  0  0  0  0
   51.4604   99.6363   28.2035 C   0  0  0  0  0  0
   50.6103   97.9328   26.3896 C   0  0  0  0  0  0
   50.0428   98.0843   25.2216 N   0  0  0  0  0  0
   49.8337   99.3994   25.0481 N   0  0  0  0  0  0
   49.3809   99.7432   24.2100 H   0  0  0  0  0  0
   47.5426  105.1001   37.2186 H   0  0  0  0  0  0
   46.6772  103.9147   35.2450 H   0  0  0  0  0  0
   48.0941  102.3028   34.0751 H   0  0  0  0  0  0
   51.2450  102.9745   36.9240 H   0  0  0  0  0  0
   49.8259  104.6467   38.0671 H   0  0  0  0  0  0
   50.0420  100.9249   34.0105 H   0  0  0  0  0  0
   51.0307  100.7690   35.4337 H   0  0  0  0  0  0
   51.1830  104.1123   34.0125 H   0  0  0  0  0  0
   50.6134  103.1794   32.6547 H   0  0  0  0  0  0
   53.4916  104.1497   33.1101 H   0  0  0  0  0  0
   52.4635  104.8270   31.9819 H   0  0  0  0  0  0
   54.0362  103.2155   30.8565 H   0  0  0  0  0  0
   53.9595  100.8060   31.5781 H   0  0  0  0  0  0
   54.4156  101.7893   32.8366 H   0  0  0  0  0  0
   52.7529  100.2231   33.7399 H   0  0  0  0  0  0
   51.6180  100.6220   32.4773 H   0  0  0  0  0  0
   52.8603  100.7588   29.9623 H   0  0  0  0  0  0
   50.8448  102.9635   27.7997 H   0  0  0  0  0  0
   49.8255  102.2096   25.7194 H   0  0  0  0  0  0
   51.9256   98.9306   28.8767 H   0  0  0  0  0  0
   50.8434   96.9460   26.7628 H   0  0  0  0  0  0
  1  6  1  0  0  0
  1  2  2  0  0  0
  1 27  1  0  0  0
  2  3  1  0  0  0
  2 28  1  0  0  0
  3  4  2  0  0  0
  3 29  1  0  0  0
  4  5  1  0  0  0
  4  7  1  0  0  0
  5  6  2  0  0  0
  5 30  1  0  0  0
  6 31  1  0  0  0
  7  8  1  0  0  0
  7 32  1  0  0  0
  7 33  1  0  0  0
  8 13  1  0  0  0
  8  9  1  0  0  0
  9 10  1  0  0  0
  9 34  1  0  0  0
  9 35  1  0  0  0
 10 11  1  0  0  0
 10 36  1  0  0  0
 10 37  1  0  0  0
 11 12  1  0  0  0
 11 14  1  0  0  0
 11 38  1  0  0  0
 12 13  1  0  0  0
 12 39  1  0  0  0
 12 40  1  0  0  0
 13 41  1  0  0  0
 13 42  1  0  0  0
 14 15  2  0  0  0
 14 16  1  0  0  0
 16 17  1  0  0  0
 16 43  1  0  0  0
 17 22  1  0  0  0
 17 18  2  0  0  0
 18 19  1  0  0  0
 18 44  1  0  0  0
 19 20  2  0  0  0
 19 45  1  0  0  0
 20 25  1  0  0  0
 20 21  1  0  0  0
 21 22  2  0  0  0
 21 23  1  0  0  0
 22 46  1  0  0  0
 23 24  2  0  0  0
 23 47  1  0  0  0
 24 25  1  0  0  0
 25 26  1  0  0  0
M  END
> <s_m_entry_id>
30573

> <s_m_entry_name>
ligand_docking-pose.3

> <s_m_Source_Path>
/home/csk/Desktop/cluster/DUD-E-result/rock1

> <s_m_Source_File>
ligand_docking-pose.sdf

> <i_m_Source_File_Index>
3

> <i_lp_mmshare_version>
53161

> <i_f3d_flags>
0

> <r_lp_tautomer_probability>
0.980392156862745

> <s_lp_Force_Field>
OPLS_2005

> <r_lp_Energy>
29.274314

> <b_lp_Chiralities_Consistent>
1

> <s_lp_Variant>
375612-1

> <s_i_glide_gridfile>
glide-grid_2etr

> <i_i_glide_lignum>
89

> <i_i_glide_rotatable_bonds>
5

> <r_i_docking_score>
-8.73419686750874

> <r_i_glide_ligand_efficiency>
-0.34936787470035

> <r_i_glide_ligand_efficiency_sa>
-1.02155786168946

> <r_i_glide_ligand_efficiency_ln>
-2.07026640035835

> <r_i_glide_gscore>
-8.73419686750874

> <r_i_glide_lipo>
-3.46161887029417

> <r_i_glide_hbond>
-0.556923030849411

> <r_i_glide_metal>
0

> <r_i_glide_rewards>
-2.16726125258762

> <r_i_glide_evdw>
-45.9155540466309

> <r_i_glide_ecoul>
-5.42313528060913

> <r_i_glide_erotb>
0.590260664756822

> <r_i_glide_esite>
-0.0294063841114535

> <r_i_glide_emodel>
-74.3292643737063

> <r_i_glide_energy>
-51.33868932724

> <r_i_glide_einternal>
7.97699689865112

> <i_i_glide_confnum>
130

> <i_i_glide_posenum>
116

> <r_i_glide_eff_state_penalty>
0

> <s_user_duplicate_titles>
375612

> <s_m_subgroup_title>
dock_pv

> <s_m_subgroupid>
dock_pv1

> <b_m_subgroup_collapsed>
0

$$$$
375641
                    3D
 Schrodinger Suite 2021-1.
 47 50  0  0  1  0            999 V2000
   51.9831  103.2885   36.8580 C   0  0  0  0  0  0
   52.2836  102.1219   36.1604 C   0  0  0  0  0  0
   51.3026  101.4808   35.3986 C   0  0  0  0  0  0
   50.0169  102.0309   35.3354 C   0  0  0  0  0  0
   49.6910  103.1940   36.0534 C   0  0  0  0  0  0
   50.6951  103.8173   36.8106 C   0  0  0  0  0  0
   48.3204  103.7567   36.0110 N   0  3  0  0  0  0
   47.5191  103.2847   35.2110 O   0  5  0  0  0  0
   48.0446  104.6811   36.7719 O   0  0  0  0  0  0
   51.6517  100.2261   34.5993 C   0  0  0  0  0  0
   52.2087  100.4849   33.2607 N   0  0  1  0  0  0
   53.5482  101.1061   33.3298 C   0  0  0  0  0  0
   54.2405  101.2592   31.9557 C   0  0  0  0  0  0
   54.2790   99.9364   31.1665 C   0  0  0  0  0  0
   52.8727   99.3185   31.0967 C   0  0  1  0  0  0
   52.2642   99.2085   32.5139 C   0  0  0  0  0  0
   52.0207  100.1556   30.2475 N   0  0  0  0  0  0
   51.5005   99.7454   29.0092 C   0  0  0  0  0  0
   51.3748   98.4016   28.6357 C   0  0  0  0  0  0
   50.8967   98.0282   27.3792 C   0  0  0  0  0  0
   50.5073   99.0323   26.4862 C   0  0  0  0  0  0
   50.5700  100.4012   26.8842 C   0  0  0  0  0  0
   51.0704  100.7519   28.1445 C   0  0  0  0  0  0
   50.0446  101.1016   25.7772 C   0  0  0  0  0  0
   49.7697  100.1401   24.8324 N   0  0  0  0  0  0
   50.0393   98.8780   25.2103 N   0  0  0  0  0  0
   49.3787  100.3340   23.9163 H   0  0  0  0  0  0
   52.7489  103.7818   37.4390 H   0  0  0  0  0  0
   53.2852  101.7198   36.2095 H   0  0  0  0  0  0
   49.2614  101.5366   34.7413 H   0  0  0  0  0  0
   50.4849  104.7205   37.3651 H   0  0  0  0  0  0
   52.3409   99.6064   35.1791 H   0  0  0  0  0  0
   50.7318   99.6515   34.4843 H   0  0  0  0  0  0
   53.4682  102.0903   33.7907 H   0  0  0  0  0  0
   54.1865  100.5108   33.9859 H   0  0  0  0  0  0
   53.7628  102.0571   31.3829 H   0  0  0  0  0  0
   55.2616  101.6090   32.1099 H   0  0  0  0  0  0
   54.6846  100.1034   30.1665 H   0  0  0  0  0  0
   54.9655   99.2363   31.6482 H   0  0  0  0  0  0
   52.9916   98.3192   30.6818 H   0  0  0  0  0  0
   52.8135   98.4610   33.0891 H   0  0  0  0  0  0
   51.2497   98.8199   32.4105 H   0  0  0  0  0  0
   52.0137  101.1383   30.4748 H   0  0  0  0  0  0
   51.6414   97.6121   29.3187 H   0  0  0  0  0  0
   50.8360   96.9850   27.1041 H   0  0  0  0  0  0
   51.1349  101.7902   28.4332 H   0  0  0  0  0  0
   49.8475  102.1491   25.6109 H   0  0  0  0  0  0
  1  6  1  0  0  0
  1  2  2  0  0  0
  1 28  1  0  0  0
  2  3  1  0  0  0
  2 29  1  0  0  0
  3  4  2  0  0  0
  3 10  1  0  0  0
  4  5  1  0  0  0
  4 30  1  0  0  0
  5  6  2  0  0  0
  5  7  1  0  0  0
  6 31  1  0  0  0
  7  8  1  0  0  0
  7  9  2  0  0  0
 10 11  1  0  0  0
 10 32  1  0  0  0
 10 33  1  0  0  0
 11 16  1  0  0  0
 11 12  1  0  0  0
 12 13  1  0  0  0
 12 34  1  0  0  0
 12 35  1  0  0  0
 13 14  1  0  0  0
 13 36  1  0  0  0
 13 37  1  0  0  0
 14 15  1  0  0  0
 14 38  1  0  0  0
 14 39  1  0  0  0
 15 16  1  0  0  0
 15 40  1  0  0  0
 15 17  1  0  0  0
 16 41  1  0  0  0
 16 42  1  0  0  0
 17 18  1  0  0  0
 17 43  1  0  0  0
 18 23  2  0  0  0
 18 19  1  0  0  0
 19 20  2  0  0  0
 19 44  1  0  0  0
 20 21  1  0  0  0
 20 45  1  0  0  0
 21 26  2  0  0  0
 21 22  1  0  0  0
 22 23  1  0  0  0
 22 24  2  0  0  0
 23 46  1  0  0  0
 24 47  1  0  0  0
 24 25  1  0  0  0
 25 27  1  0  0  0
 25 26  1  0  0  0
M  CHG  2   7   1   8  -1
M  END
> <s_m_entry_id>
30580

> <s_m_entry_name>
ligand_docking-pose.10

> <s_m_Source_Path>
/home/csk/Desktop/cluster/DUD-E-result/rock1

> <s_m_Source_File>
ligand_docking-pose.sdf

> <i_m_Source_File_Index>
10

> <i_lp_mmshare_version>
53161

> <i_f3d_flags>
0

> <r_lp_tautomer_probability>
0.0168294951151403

> <s_lp_Force_Field>
OPLS_2005

> <r_lp_Energy>
37.438821

> <b_lp_Chiralities_Consistent>
1

> <s_lp_Variant>
375641-3

> <s_i_glide_gridfile>
glide-grid_2etr

> <i_i_glide_lignum>
168

> <i_i_glide_rotatable_bonds>
5

> <r_i_docking_score>
-8.20875156206316

> <r_i_glide_ligand_efficiency>
-0.315721213925506

> <r_i_glide_ligand_efficiency_sa>
-0.935322853951323

> <r_i_glide_ligand_efficiency_ln>
-1.92779836923973

> <r_i_glide_gscore>
-8.20875156206316

> <r_i_glide_lipo>
-2.82335330789611

> <r_i_glide_hbond>
-0.32

> <r_i_glide_metal>
0

> <r_i_glide_rewards>
-2.68457018017447

> <r_i_glide_evdw>
-45.7228851318359

> <r_i_glide_ecoul>
-4.74998426437378

> <r_i_glide_erotb>
0.617813822255289

> <r_i_glide_esite>
0

> <r_i_glide_emodel>
-74.7810568854033

> <r_i_glide_energy>
-50.4728693962097

> <r_i_glide_einternal>
3.3244423866272

> <i_i_glide_confnum>
41

> <i_i_glide_posenum>
158

> <r_i_glide_eff_state_penalty>
0

> <s_user_duplicate_titles>
375641

> <s_m_subgroup_title>
dock_pv

> <s_m_subgroupid>
dock_pv1

> <b_m_subgroup_collapsed>
0

$$$$
375519
                    3D
 Schrodinger Suite 2021-1.
 43 46  0  0  1  0            999 V2000
   48.7395  102.2867   35.6065 C   0  0  0  0  0  0
   49.4802  101.1039   35.5191 C   0  0  0  0  0  0
   50.8141  101.4295   35.3010 C   0  0  0  0  0  0
   50.8701  102.8008   35.2428 N   0  0  0  0  0  0
   49.6237  103.3382   35.4299 C   0  0  0  0  0  0
   52.0681  100.5861   35.1581 C   0  0  0  0  0  0
   52.0441   99.6603   34.0166 N   0  0  2  0  0  0
   53.2638   98.8327   34.0540 C   0  0  0  0  0  0
   53.4225   97.9156   32.8226 C   0  0  0  0  0  0
   53.2839   98.6958   31.5069 C   0  0  0  0  0  0
   51.9156   99.4053   31.5055 C   0  0  1  0  0  0
   51.8905  100.3621   32.7290 C   0  0  0  0  0  0
   51.7879  100.2285   30.3014 N   0  0  0  0  0  0
   51.3529   99.7328   29.0603 C   0  0  0  0  0  0
   51.2436   98.3658   28.7759 C   0  0  0  0  0  0
   50.8450   97.9060   27.5205 C   0  0  0  0  0  0
   50.4787   98.8456   26.5497 C   0  0  0  0  0  0
   50.5399  100.2425   26.8497 C   0  0  0  0  0  0
   51.0077  100.6792   28.0934 C   0  0  0  0  0  0
   50.0433  100.8618   25.6793 C   0  0  0  0  0  0
   49.7750   99.8345   24.8108 N   0  0  0  0  0  0
   50.0421   98.6019   25.2764 N   0  0  0  0  0  0
   51.7162  103.3323   35.0970 H   0  0  0  0  0  0
   49.3889   99.9660   23.8797 H   0  0  0  0  0  0
   47.6762  102.3631   35.7818 H   0  0  0  0  0  0
   49.0883  100.1019   35.6074 H   0  0  0  0  0  0
   49.4812  104.4085   35.4314 H   0  0  0  0  0  0
   52.9491  101.2258   35.0765 H   0  0  0  0  0  0
   52.2125  100.0122   36.0749 H   0  0  0  0  0  0
   54.1375   99.4826   34.1161 H   0  0  0  0  0  0
   53.2697   98.2365   34.9681 H   0  0  0  0  0  0
   54.3980   97.4294   32.8612 H   0  0  0  0  0  0
   52.6982   97.1005   32.8755 H   0  0  0  0  0  0
   54.0995   99.4168   31.4149 H   0  0  0  0  0  0
   53.3873   98.0117   30.6661 H   0  0  0  0  0  0
   51.1052   98.6780   31.5497 H   0  0  0  0  0  0
   50.9471  100.9082   32.7324 H   0  0  0  0  0  0
   52.6722  101.1192   32.6353 H   0  0  0  0  0  0
   52.3030  101.1008   30.2843 H   0  0  0  0  0  0
   51.5049   97.6324   29.5227 H   0  0  0  0  0  0
   50.8364   96.8491   27.3061 H   0  0  0  0  0  0
   51.0706  101.7346   28.3091 H   0  0  0  0  0  0
   49.8503  101.8876   25.4091 H   0  0  0  0  0  0
  1  5  2  0  0  0
  1  2  1  0  0  0
  1 25  1  0  0  0
  2  3  2  0  0  0
  2 26  1  0  0  0
  3  4  1  0  0  0
  3  6  1  0  0  0
  4 23  1  0  0  0
  4  5  1  0  0  0
  5 27  1  0  0  0
  6  7  1  0  0  0
  6 28  1  0  0  0
  6 29  1  0  0  0
  7 12  1  0  0  0
  7  8  1  0  0  0
  8  9  1  0  0  0
  8 30  1  0  0  0
  8 31  1  0  0  0
  9 10  1  0  0  0
  9 32  1  0  0  0
  9 33  1  0  0  0
 10 11  1  0  0  0
 10 34  1  0  0  0
 10 35  1  0  0  0
 11 12  1  0  0  0
 11 36  1  0  0  0
 11 13  1  0  0  0
 12 37  1  0  0  0
 12 38  1  0  0  0
 13 14  1  0  0  0
 13 39  1  0  0  0
 14 19  2  0  0  0
 14 15  1  0  0  0
 15 16  2  0  0  0
 15 40  1  0  0  0
 16 17  1  0  0  0
 16 41  1  0  0  0
 17 22  2  0  0  0
 17 18  1  0  0  0
 18 19  1  0  0  0
 18 20  2  0  0  0
 19 42  1  0  0  0
 20 43  1  0  0  0
 20 21  1  0  0  0
 21 24  1  0  0  0
 21 22  1  0  0  0
M  END
> <s_m_entry_id>
30581

> <s_m_entry_name>
ligand_docking-pose.11

> <s_m_Source_Path>
/home/csk/Desktop/cluster/DUD-E-result/rock1

> <s_m_Source_File>
ligand_docking-pose.sdf

> <i_m_Source_File_Index>
11

> <i_lp_mmshare_version>
53161

> <i_f3d_flags>
0

> <r_lp_tautomer_probability>
0.0168294951151403

> <s_lp_Force_Field>
OPLS_2005

> <r_lp_Energy>
37.413994

> <b_lp_Chiralities_Consistent>
1

> <s_lp_Variant>
375519-3

> <s_i_glide_gridfile>
glide-grid_2etr

> <i_i_glide_lignum>
182

> <i_i_glide_rotatable_bonds>
4

> <r_i_docking_score>
-8.19668596172823

> <r_i_glide_ligand_efficiency>
-0.372576634624011

> <r_i_glide_ligand_efficiency_sa>
-1.04397438282404

> <r_i_glide_ligand_efficiency_ln>
-2.00356903043126

> <r_i_glide_gscore>
-8.19668596172823

> <r_i_glide_lipo>
-3.14553709755128

> <r_i_glide_hbond>
-0.369852509846092

> <r_i_glide_metal>
0

> <r_i_glide_rewards>
-2.62316772615883

> <r_i_glide_evdw>
-36.7894821166992

> <r_i_glide_ecoul>
-5.37359666824341

> <r_i_glide_erotb>
0.587384977899443

> <r_i_glide_esite>
0

> <r_i_glide_emodel>
-60.4122771076274

> <r_i_glide_energy>
-42.1630787849426

> <r_i_glide_einternal>
5.00101566314697

> <i_i_glide_confnum>
7

> <i_i_glide_posenum>
50

> <r_i_glide_eff_state_penalty>
0

> <s_user_duplicate_titles>
375519

> <s_m_subgroup_title>
dock_pv

> <s_m_subgroupid>
dock_pv1

> <b_m_subgroup_collapsed>
0

$$$$
375528
                    3D
 Schrodinger Suite 2021-1.
 42 45  0  0  1  0            999 V2000
   51.3534   98.3785   28.7265 C   0  0  0  0  0  0
   50.8929   97.9200   27.4920 C   0  0  0  0  0  0
   50.4992   98.8613   26.5355 C   0  0  0  0  0  0
   50.5462  100.2548   26.8431 C   0  0  0  0  0  0
   51.0125  100.6909   28.0910 C   0  0  0  0  0  0
   51.4276   99.7391   29.0315 C   0  0  0  0  0  0
   51.9027  100.0885   30.3079 N   0  0  0  0  0  0
   51.7369  101.4269   30.8760 C   0  0  2  0  0  0
   52.9539  102.3098   30.5440 C   0  0  0  0  0  0
   52.7560  103.6821   31.2168 C   0  0  0  0  0  0
   52.4689  103.5704   32.7340 C   0  0  0  0  0  0
   51.3968  102.6038   33.0455 N   0  0  1  0  0  0
   51.6541  101.2992   32.4143 C   0  0  0  0  0  0
   51.2089  102.4511   34.4953 C   0  0  0  0  0  0
   50.1173  103.3592   35.0268 C   0  0  0  0  0  0
   48.7778  102.9726   35.2061 C   0  0  0  0  0  0
   47.9662  103.9706   35.7253 C   0  0  0  0  0  0
   48.8434  105.4319   36.0106 S   0  0  0  0  0  0
   50.2927  104.6836   35.4226 C   0  0  0  0  0  0
   50.0431  100.8735   25.6770 C   0  0  0  0  0  0
   49.7660   99.8467   24.8108 N   0  0  0  0  0  0
   50.0430   98.6161   25.2699 N   0  0  0  0  0  0
   49.3770   99.9798   23.8820 H   0  0  0  0  0  0
   51.6437   97.6505   29.4702 H   0  0  0  0  0  0
   50.8427   96.8633   27.2778 H   0  0  0  0  0  0
   51.0554  101.7467   28.3043 H   0  0  0  0  0  0
   52.6079   99.4887   30.7172 H   0  0  0  0  0  0
   50.8422  101.9011   30.4727 H   0  0  0  0  0  0
   53.0665  102.4340   29.4666 H   0  0  0  0  0  0
   53.8787  101.8491   30.8976 H   0  0  0  0  0  0
   51.9460  104.2338   30.7426 H   0  0  0  0  0  0
   53.6449  104.2970   31.0635 H   0  0  0  0  0  0
   52.1991  104.5490   33.1340 H   0  0  0  0  0  0
   53.3855  103.2759   33.2495 H   0  0  0  0  0  0
   52.5570  100.8481   32.8326 H   0  0  0  0  0  0
   50.8429  100.6150   32.6650 H   0  0  0  0  0  0
   52.1479  102.6279   35.0230 H   0  0  0  0  0  0
   50.9424  101.4224   34.7437 H   0  0  0  0  0  0
   48.4121  101.9850   34.9666 H   0  0  0  0  0  0
   46.9111  103.9113   35.9529 H   0  0  0  0  0  0
   51.2130  105.2489   35.3998 H   0  0  0  0  0  0
   49.8432  101.8975   25.4073 H   0  0  0  0  0  0
  1  2  2  0  0  0
  1  6  1  0  0  0
  1 24  1  0  0  0
  2  3  1  0  0  0
  2 25  1  0  0  0
  3 22  2  0  0  0
  3  4  1  0  0  0
  4  5  1  0  0  0
  4 20  2  0  0  0
  5  6  2  0  0  0
  5 26  1  0  0  0
  6  7  1  0  0  0
  7  8  1  0  0  0
  7 27  1  0  0  0
  8 13  1  0  0  0
  8  9  1  0  0  0
  8 28  1  0  0  0
  9 10  1  0  0  0
  9 29  1  0  0  0
  9 30  1  0  0  0
 10 11  1  0  0  0
 10 31  1  0  0  0
 10 32  1  0  0  0
 11 12  1  0  0  0
 11 33  1  0  0  0
 11 34  1  0  0  0
 12 13  1  0  0  0
 12 14  1  0  0  0
 13 35  1  0  0  0
 13 36  1  0  0  0
 14 15  1  0  0  0
 14 37  1  0  0  0
 14 38  1  0  0  0
 15 19  2  0  0  0
 15 16  1  0  0  0
 16 17  2  0  0  0
 16 39  1  0  0  0
 17 18  1  0  0  0
 17 40  1  0  0  0
 18 19  1  0  0  0
 19 41  1  0  0  0
 20 42  1  0  0  0
 20 21  1  0  0  0
 21 23  1  0  0  0
 21 22  1  0  0  0
M  END
> <s_m_entry_id>
30585

> <s_m_entry_name>
ligand_docking-pose.15

> <s_m_Source_Path>
/home/csk/Desktop/cluster/DUD-E-result/rock1

> <s_m_Source_File>
ligand_docking-pose.sdf

> <i_m_Source_File_Index>
15

> <i_lp_mmshare_version>
53161

> <i_f3d_flags>
0

> <r_lp_tautomer_probability>
0.0168294951151403

> <s_lp_Force_Field>
OPLS_2005

> <r_lp_Energy>
32.025338

> <b_lp_Chiralities_Consistent>
1

> <s_lp_Variant>
375528-3

> <s_i_glide_gridfile>
glide-grid_2etr

> <i_i_glide_lignum>
11

> <i_i_glide_rotatable_bonds>
4

> <r_i_docking_score>
-8.13787549076089

> <r_i_glide_ligand_efficiency>
-0.369903431398222

> <r_i_glide_ligand_efficiency_sa>
-1.03648396225427

> <r_i_glide_ligand_efficiency_ln>
-1.98919360616279

> <r_i_glide_gscore>
-8.13787549076089

> <r_i_glide_lipo>
-2.90369254374699

> <r_i_glide_hbond>
-0.366519370767053

> <r_i_glide_metal>
0

> <r_i_glide_rewards>
-2.50669235192258

> <r_i_glide_evdw>
-39.136043548584

> <r_i_glide_ecoul>
-6.24358558654785

> <r_i_glide_erotb>
0.532368791087107

> <r_i_glide_esite>
0

> <r_i_glide_emodel>
-66.402095872229

> <r_i_glide_energy>
-45.3796291351318

> <r_i_glide_einternal>
3.15868139266968

> <i_i_glide_confnum>
24

> <i_i_glide_posenum>
203

> <r_i_glide_eff_state_penalty>
0

> <s_user_duplicate_titles>
375528

> <s_m_subgroup_title>
dock_pv

> <s_m_subgroupid>
dock_pv1

> <b_m_subgroup_collapsed>
0

$$$$
376251
                    3D
 Schrodinger Suite 2021-1.
 46 49  0  0  1  0            999 V2000
   48.6025  102.7186   35.2119 C   0  0  0  0  0  0
   48.2921  103.9652   35.7514 C   0  0  0  0  0  0
   49.1867  105.0256   35.6092 C   0  0  0  0  0  0
   50.3926  104.8476   34.9240 C   0  0  0  0  0  0
   50.7107  103.5910   34.3753 C   0  0  0  0  0  0
   49.8071  102.5335   34.5327 C   0  0  0  0  0  0
   52.0448  103.3110   33.6788 C   0  0  0  0  0  0
   52.0788  103.6571   32.2510 N   0  0  1  0  0  0
   53.4295  103.4494   31.7104 C   0  0  0  0  0  0
   53.3003  103.1127   30.2157 C   0  0  0  0  0  0
   51.7899  103.1283   29.9802 C   0  0  2  0  0  0
   51.2311  102.8440   31.3860 C   0  0  0  0  0  0
   51.3025  102.3020   28.8691 N   0  0  0  0  0  0
   51.3814  100.8970   28.7476 C   0  0  0  0  0  0
   51.8883  100.0871   29.7726 C   0  0  0  0  0  0
   51.7951   98.7037   29.7247 C   0  0  0  0  0  0
   51.2429   98.0726   28.6202 C   0  0  0  0  0  0
   50.8427   98.8297   27.5039 C   0  0  0  0  0  0
   50.8886  100.2585   27.5576 C   0  0  0  0  0  0
   50.4440  100.9690   26.3977 C   0  0  0  0  0  0
   50.0280  100.2543   25.2720 C   0  0  0  0  0  0
   50.0028   98.9032   25.2099 N   0  0  0  0  0  0
   50.3899   98.2250   26.3107 C   0  0  0  0  0  0
   51.2491  105.9422   34.8109 N   0  0  0  0  0  0
   47.9125  101.8956   35.3297 H   0  0  0  0  0  0
   47.3609  104.1066   36.2811 H   0  0  0  0  0  0
   48.9369  105.9874   36.0332 H   0  0  0  0  0  0
   50.0481  101.5577   34.1341 H   0  0  0  0  0  0
   52.8237  103.8718   34.1993 H   0  0  0  0  0  0
   52.3057  102.2587   33.8133 H   0  0  0  0  0  0
   54.0312  104.3487   31.8604 H   0  0  0  0  0  0
   53.9610  102.6398   32.2157 H   0  0  0  0  0  0
   53.7871  103.8754   29.6057 H   0  0  0  0  0  0
   53.7594  102.1530   29.9804 H   0  0  0  0  0  0
   51.5773  104.1740   29.7515 H   0  0  0  0  0  0
   51.3000  101.8104   31.7153 H   0  0  0  0  0  0
   50.1788  103.1029   31.4970 H   0  0  0  0  0  0
   50.4651  102.6674   28.4399 H   0  0  0  0  0  0
   52.3548  100.5042   30.6468 H   0  0  0  0  0  0
   52.1626   98.1132   30.5521 H   0  0  0  0  0  0
   51.1837   96.9958   28.5866 H   0  0  0  0  0  0
   50.4535  102.0487   26.3778 H   0  0  0  0  0  0
   49.7002  100.7697   24.3801 H   0  0  0  0  0  0
   50.3522   97.1475   26.2430 H   0  0  0  0  0  0
   51.9759  105.9408   34.1012 H   0  0  0  0  0  0
   50.9734  106.8233   35.2175 H   0  0  0  0  0  0
  1  6  1  0  0  0
  1  2  2  0  0  0
  1 25  1  0  0  0
  2  3  1  0  0  0
  2 26  1  0  0  0
  3  4  2  0  0  0
  3 27  1  0  0  0
  4  5  1  0  0  0
  4 24  1  0  0  0
  5  6  2  0  0  0
  5  7  1  0  0  0
  6 28  1  0  0  0
  7  8  1  0  0  0
  7 29  1  0  0  0
  7 30  1  0  0  0
  8 12  1  0  0  0
  8  9  1  0  0  0
  9 10  1  0  0  0
  9 31  1  0  0  0
  9 32  1  0  0  0
 10 11  1  0  0  0
 10 33  1  0  0  0
 10 34  1  0  0  0
 11 12  1  0  0  0
 11 13  1  0  0  0
 11 35  1  0  0  0
 12 36  1  0  0  0
 12 37  1  0  0  0
 13 14  1  0  0  0
 13 38  1  0  0  0
 14 19  1  0  0  0
 14 15  2  0  0  0
 15 16  1  0  0  0
 15 39  1  0  0  0
 16 17  2  0  0  0
 16 40  1  0  0  0
 17 18  1  0  0  0
 17 41  1  0  0  0
 18 23  2  0  0  0
 18 19  1  0  0  0
 19 20  2  0  0  0
 20 21  1  0  0  0
 20 42  1  0  0  0
 21 22  2  0  0  0
 21 43  1  0  0  0
 22 23  1  0  0  0
 23 44  1  0  0  0
 24 45  1  0  0  0
 24 46  1  0  0  0
M  END
> <s_m_entry_id>
30586

> <s_m_entry_name>
ligand_docking-pose.16

> <s_m_Source_Path>
/home/csk/Desktop/cluster/DUD-E-result/rock1

> <s_m_Source_File>
ligand_docking-pose.sdf

> <i_m_Source_File_Index>
16

> <i_lp_mmshare_version>
53161

> <i_f3d_flags>
0

> <r_lp_tautomer_probability>
1

> <s_lp_Force_Field>
OPLS_2005

> <r_lp_Energy>
36.48983

> <b_lp_Chiralities_Consistent>
1

> <s_lp_Variant>
376251-2

> <s_i_glide_gridfile>
glide-grid_2etr

> <i_i_glide_lignum>
88

> <i_i_glide_rotatable_bonds>
4

> <r_i_docking_score>
-8.06721164409712

> <r_i_glide_ligand_efficiency>
-0.336133818504047

> <r_i_glide_ligand_efficiency_sa>
-0.969577709579376

> <r_i_glide_ligand_efficiency_ln>
-1.93085392665352

> <r_i_glide_gscore>
-8.06721164409712

> <r_i_glide_lipo>
-3.24254116855648

> <r_i_glide_hbond>
-0.0419174560808022

> <r_i_glide_metal>
0

> <r_i_glide_rewards>
-2.61307627272727

> <r_i_glide_evdw>
-44.8133964538574

> <r_i_glide_ecoul>
-4.03762769699097

> <r_i_glide_erotb>
0.735570255049727

> <r_i_glide_esite>
-0.0589330245407792

> <r_i_glide_emodel>
-69.0477085851446

> <r_i_glide_energy>
-48.8510241508484

> <r_i_glide_einternal>
4.45337295532227

> <i_i_glide_confnum>
25

> <i_i_glide_posenum>
193

> <r_i_glide_eff_state_penalty>
0

> <s_user_duplicate_titles>
376251

> <s_m_subgroup_title>
dock_pv

> <s_m_subgroupid>
dock_pv1

> <b_m_subgroup_collapsed>
0

$$$$
375604
                    3D
 Schrodinger Suite 2021-1.
 45 48  0  0  1  0            999 V2000
   51.6451  103.4232   34.9300 C   0  0  0  0  0  0
   50.5121  104.1210   35.3376 C   0  0  0  0  0  0
   49.4306  103.4249   35.8728 C   0  0  0  0  0  0
   49.4641  102.0341   35.9829 C   0  0  0  0  0  0
   50.6015  101.3364   35.5789 C   0  0  0  0  0  0
   51.7018  102.0339   35.0722 C   0  0  0  0  0  0
   52.9656  101.2893   34.6440 C   0  0  0  0  0  0
   52.8267  100.4964   33.4132 N   0  0  2  0  0  0
   54.1074   99.8103   33.1496 C   0  0  0  0  0  0
   54.1345   99.0368   31.8142 C   0  0  0  0  0  0
   53.6705   99.9068   30.6377 C   0  0  0  0  0  0
   52.2769  100.4813   30.9652 C   0  0  1  0  0  0
   52.3969  101.3129   32.2636 C   0  0  0  0  0  0
   51.8482  101.3848   29.8964 N   0  0  0  0  0  0
   51.3391  100.9135   28.6766 C   0  0  0  0  0  0
   50.9218  101.8769   27.7560 C   0  0  0  0  0  0
   50.4428  101.5452   26.4869 C   0  0  0  0  0  0
   50.3712  100.1880   26.1789 C   0  0  0  0  0  0
   50.7579   99.1835   27.1000 C   0  0  0  0  0  0
   51.2426   99.5520   28.3622 C   0  0  0  0  0  0
   50.5201   97.9614   26.4076 C   0  0  0  0  0  0
   50.0429   98.1793   25.2116 N   0  0  0  0  0  0
   49.9543   99.5121   25.0523 N   0  0  0  0  0  0
   48.0444  104.2999   36.4061 Cl  0  0  0  0  0  0
   49.5965   99.9041   24.1908 H   0  0  0  0  0  0
   52.4853  103.9673   34.5217 H   0  0  0  0  0  0
   50.4771  105.1972   35.2510 H   0  0  0  0  0  0
   48.6174  101.5026   36.3912 H   0  0  0  0  0  0
   50.6361  100.2607   35.6713 H   0  0  0  0  0  0
   53.7729  102.0137   34.5130 H   0  0  0  0  0  0
   53.2688  100.6404   35.4679 H   0  0  0  0  0  0
   54.9164  100.5425   33.1425 H   0  0  0  0  0  0
   54.3252   99.1315   33.9756 H   0  0  0  0  0  0
   55.1511   98.6865   31.6253 H   0  0  0  0  0  0
   53.5335   98.1300   31.8998 H   0  0  0  0  0  0
   54.3918  100.7079   30.4610 H   0  0  0  0  0  0
   53.6559   99.3130   29.7248 H   0  0  0  0  0  0
   51.5473   99.6791   31.0958 H   0  0  0  0  0  0
   51.4254  101.7600   32.4800 H   0  0  0  0  0  0
   53.0834  102.1500   32.1267 H   0  0  0  0  0  0
   52.3986  102.2273   29.8120 H   0  0  0  0  0  0
   50.9876  102.9207   28.0268 H   0  0  0  0  0  0
   50.1299  102.3064   25.7888 H   0  0  0  0  0  0
   51.5449   98.7882   29.0602 H   0  0  0  0  0  0
   50.6920   96.9590   26.7678 H   0  0  0  0  0  0
  1  6  1  0  0  0
  1  2  2  0  0  0
  1 26  1  0  0  0
  2  3  1  0  0  0
  2 27  1  0  0  0
  3  4  2  0  0  0
  3 24  1  0  0  0
  4  5  1  0  0  0
  4 28  1  0  0  0
  5  6  2  0  0  0
  5 29  1  0  0  0
  6  7  1  0  0  0
  7  8  1  0  0  0
  7 30  1  0  0  0
  7 31  1  0  0  0
  8 13  1  0  0  0
  8  9  1  0  0  0
  9 10  1  0  0  0
  9 32  1  0  0  0
  9 33  1  0  0  0
 10 11  1  0  0  0
 10 34  1  0  0  0
 10 35  1  0  0  0
 11 12  1  0  0  0
 11 36  1  0  0  0
 11 37  1  0  0  0
 12 13  1  0  0  0
 12 14  1  0  0  0
 12 38  1  0  0  0
 13 39  1  0  0  0
 13 40  1  0  0  0
 14 15  1  0  0  0
 14 41  1  0  0  0
 15 20  1  0  0  0
 15 16  2  0  0  0
 16 17  1  0  0  0
 16 42  1  0  0  0
 17 18  2  0  0  0
 17 43  1  0  0  0
 18 23  1  0  0  0
 18 19  1  0  0  0
 19 20  2  0  0  0
 19 21  1  0  0  0
 20 44  1  0  0  0
 21 22  2  0  0  0
 21 45  1  0  0  0
 22 23  1  0  0  0
 23 25  1  0  0  0
M  END
> <s_m_entry_id>
30587

> <s_m_entry_name>
ligand_docking-pose.17

> <s_m_Source_Path>
/home/csk/Desktop/cluster/DUD-E-result/rock1

> <s_m_Source_File>
ligand_docking-pose.sdf

> <i_m_Source_File_Index>
17

> <i_lp_mmshare_version>
53161

> <i_f3d_flags>
0

> <r_lp_tautomer_probability>
0.983170504884488

> <s_lp_Force_Field>
OPLS_2005

> <r_lp_Energy>
21.372005

> <b_lp_Chiralities_Consistent>
1

> <s_lp_Variant>
375604-1

> <s_i_glide_gridfile>
glide-grid_2etr

> <i_i_glide_lignum>
103

> <i_i_glide_rotatable_bonds>
4

> <r_i_docking_score>
-7.94693357881503

> <r_i_glide_ligand_efficiency>
-0.331122232450626

> <r_i_glide_ligand_efficiency_sa>
-0.955121793930481

> <r_i_glide_ligand_efficiency_ln>
-1.90206586643074

> <r_i_glide_gscore>
-7.94693357881503

> <r_i_glide_lipo>
-3.05867532685526

> <r_i_glide_hbond>
-0.40126730428437

> <r_i_glide_metal>
0

> <r_i_glide_rewards>
-2.1467834319247

> <r_i_glide_evdw>
-43.2601051330566

> <r_i_glide_ecoul>
-4.22489356994629

> <r_i_glide_erotb>
0.456531776394083

> <r_i_glide_esite>
0

> <r_i_glide_emodel>
-67.2160690959149

> <r_i_glide_energy>
-47.4849987030029

> <r_i_glide_einternal>
6.06258773803711

> <i_i_glide_confnum>
4

> <i_i_glide_posenum>
271

> <r_i_glide_eff_state_penalty>
0

> <s_user_duplicate_titles>
375604

> <s_m_subgroup_title>
dock_pv

> <s_m_subgroupid>
dock_pv1

> <b_m_subgroup_collapsed>
0

$$$$
375521
                    3D
 Schrodinger Suite 2021-1.
 42 45  0  0  1  0            999 V2000
   48.4410  103.2352   35.8662 C   0  0  0  0  0  0
   48.8362  102.0666   35.2111 C   0  0  0  0  0  0
   50.2171  101.8751   35.1265 C   0  0  0  0  0  0
   51.0147  103.1881   35.9636 S   0  0  0  0  0  0
   49.5150  103.9650   36.3343 C   0  0  0  0  0  0
   50.9711  100.7064   34.5005 C   0  0  0  0  0  0
   51.6455  100.9938   33.2209 N   0  0  1  0  0  0
   52.8925  101.7656   33.4227 C   0  0  0  0  0  0
   53.7333  101.9715   32.1393 C   0  0  0  0  0  0
   54.0171  100.6468   31.4077 C   0  0  0  0  0  0
   52.7076   99.8749   31.1949 C   0  0  1  0  0  0
   51.9355   99.7166   32.5303 C   0  0  0  0  0  0
   51.8954  100.5806   30.1991 N   0  0  0  0  0  0
   51.4166  100.0083   29.0089 C   0  0  0  0  0  0
   51.3715   98.6255   28.7884 C   0  0  0  0  0  0
   50.9162   98.0878   27.5844 C   0  0  0  0  0  0
   50.4891   98.9602   26.5785 C   0  0  0  0  0  0
   50.4919  100.3690   26.8092 C   0  0  0  0  0  0
   50.9567  100.8863   28.0261 C   0  0  0  0  0  0
   49.9568  100.9050   25.6157 C   0  0  0  0  0  0
   49.7063   99.8250   24.8110 N   0  0  0  0  0  0
   50.0324   98.6316   25.3315 N   0  0  0  0  0  0
   49.3098   99.9029   23.8789 H   0  0  0  0  0  0
   47.4094  103.5233   36.0066 H   0  0  0  0  0  0
   48.1225  101.3644   34.8114 H   0  0  0  0  0  0
   49.5038  104.8980   36.8777 H   0  0  0  0  0  0
   51.6893  100.2937   35.2119 H   0  0  0  0  0  0
   50.2497   99.9031   34.3393 H   0  0  0  0  0  0
   52.6530  102.7428   33.8349 H   0  0  0  0  0  0
   53.5084  101.2655   34.1727 H   0  0  0  0  0  0
   53.2432  102.6955   31.4883 H   0  0  0  0  0  0
   54.6815  102.4394   32.4059 H   0  0  0  0  0  0
   54.5140  100.8358   30.4531 H   0  0  0  0  0  0
   54.7104  100.0378   31.9903 H   0  0  0  0  0  0
   52.9761   98.8813   30.8407 H   0  0  0  0  0  0
   52.4951   99.0563   33.1944 H   0  0  0  0  0  0
   50.9937   99.2033   32.3299 H   0  0  0  0  0  0
   51.7876  101.5738   30.3417 H   0  0  0  0  0  0
   51.6786   97.9324   29.5537 H   0  0  0  0  0  0
   50.8943   97.0188   27.4368 H   0  0  0  0  0  0
   50.9687  101.9532   28.1923 H   0  0  0  0  0  0
   49.7136  101.9025   25.2917 H   0  0  0  0  0  0
  1  5  2  0  0  0
  1  2  1  0  0  0
  1 24  1  0  0  0
  2  3  2  0  0  0
  2 25  1  0  0  0
  3  4  1  0  0  0
  3  6  1  0  0  0
  4  5  1  0  0  0
  5 26  1  0  0  0
  6  7  1  0  0  0
  6 27  1  0  0  0
  6 28  1  0  0  0
  7 12  1  0  0  0
  7  8  1  0  0  0
  8  9  1  0  0  0
  8 29  1  0  0  0
  8 30  1  0  0  0
  9 10  1  0  0  0
  9 31  1  0  0  0
  9 32  1  0  0  0
 10 11  1  0  0  0
 10 33  1  0  0  0
 10 34  1  0  0  0
 11 12  1  0  0  0
 11 35  1  0  0  0
 11 13  1  0  0  0
 12 36  1  0  0  0
 12 37  1  0  0  0
 13 14  1  0  0  0
 13 38  1  0  0  0
 14 19  2  0  0  0
 14 15  1  0  0  0
 15 16  2  0  0  0
 15 39  1  0  0  0
 16 17  1  0  0  0
 16 40  1  0  0  0
 17 22  2  0  0  0
 17 18  1  0  0  0
 18 19  1  0  0  0
 18 20  2  0  0  0
 19 41  1  0  0  0
 20 42  1  0  0  0
 20 21  1  0  0  0
 21 23  1  0  0  0
 21 22  1  0  0  0
M  END
> <s_m_entry_id>
30590

> <s_m_entry_name>
ligand_docking-pose.20

> <s_m_Source_Path>
/home/csk/Desktop/cluster/DUD-E-result/rock1

> <s_m_Source_File>
ligand_docking-pose.sdf

> <i_m_Source_File_Index>
20

> <i_lp_mmshare_version>
53161

> <i_f3d_flags>
0

> <r_lp_tautomer_probability>
0.0168294951151403

> <s_lp_Force_Field>
OPLS_2005

> <r_lp_Energy>
31.249528

> <b_lp_Chiralities_Consistent>
1

> <s_lp_Variant>
375521-3

> <s_i_glide_gridfile>
glide-grid_2etr

> <i_i_glide_lignum>
190

> <i_i_glide_rotatable_bonds>
4

> <r_i_docking_score>
-7.89933561397105

> <r_i_glide_ligand_efficiency>
-0.359060709725957

> <r_i_glide_ligand_efficiency_sa>
-1.00610222970853

> <r_i_glide_ligand_efficiency_ln>
-1.93088575932194

> <r_i_glide_gscore>
-7.89933561397105

> <r_i_glide_lipo>
-3.32047492403605

> <r_i_glide_hbond>
-0.322743983820963

> <r_i_glide_metal>
0

> <r_i_glide_rewards>
-2.51457236064382

> <r_i_glide_evdw>
-38.2725715637207

> <r_i_glide_ecoul>
-3.92295074462891

> <r_i_glide_erotb>
0.760526844410153

> <r_i_glide_esite>
0

> <r_i_glide_emodel>
-60.4683580770896

> <r_i_glide_energy>
-42.1955223083496

> <r_i_glide_einternal>
3.86304974555969

> <i_i_glide_confnum>
46

> <i_i_glide_posenum>
340

> <r_i_glide_eff_state_penalty>
0

> <s_user_duplicate_titles>
375521

> <s_m_subgroup_title>
dock_pv

> <s_m_subgroupid>
dock_pv1

> <b_m_subgroup_collapsed>
0

$$$$
375642
                    3D
 Schrodinger Suite 2021-1.
 47 50  0  0  1  0            999 V2000
   51.8793  103.0182   34.9733 C   0  0  0  0  0  0
   50.9285  104.0241   35.1107 C   0  0  0  0  0  0
   49.6269  103.7161   35.5293 C   0  0  0  0  0  0
   49.2852  102.3765   35.7716 C   0  0  0  0  0  0
   50.2364  101.3691   35.6227 C   0  0  0  0  0  0
   51.5426  101.6918   35.2510 C   0  0  0  0  0  0
   52.6092  100.6067   35.1371 C   0  0  0  0  0  0
   52.4090   99.6767   34.0172 N   0  0  2  0  0  0
   53.4235   98.6114   34.1017 C   0  0  0  0  0  0
   53.3549   97.6289   32.9156 C   0  0  0  0  0  0
   53.3983   98.3553   31.5641 C   0  0  0  0  0  0
   52.2582   99.3897   31.5234 C   0  0  1  0  0  0
   52.4535  100.3635   32.7118 C   0  0  0  0  0  0
   52.3530  100.1662   30.2896 N   0  0  0  0  0  0
   51.7942   99.7366   29.0740 C   0  0  0  0  0  0
   51.2432   98.4622   28.8880 C   0  0  0  0  0  0
   50.6619   98.0866   27.6773 C   0  0  0  0  0  0
   50.6097   99.0168   26.6355 C   0  0  0  0  0  0
   51.1899  100.3087   26.8107 C   0  0  0  0  0  0
   51.7921  100.6585   28.0269 C   0  0  0  0  0  0
   50.9744  100.9440   25.5692 C   0  0  0  0  0  0
   50.2735  100.0386   24.8108 N   0  0  0  0  0  0
   50.0441   98.8541   25.4002 N   0  0  0  0  0  0
   48.6341  104.7962   35.7315 N   0  3  0  0  0  0
   48.8445  105.8904   35.2141 O   0  5  0  0  0  0
   47.6420  104.5552   36.4107 O   0  0  0  0  0  0
   49.9463  100.2224   23.8703 H   0  0  0  0  0  0
   52.8844  103.2741   34.6687 H   0  0  0  0  0  0
   51.2172  105.0475   34.9129 H   0  0  0  0  0  0
   48.2827  102.1135   36.0840 H   0  0  0  0  0  0
   49.9691  100.3416   35.8196 H   0  0  0  0  0  0
   53.5913  101.0730   35.0397 H   0  0  0  0  0  0
   52.6249  100.0554   36.0785 H   0  0  0  0  0  0
   54.4193   99.0584   34.1406 H   0  0  0  0  0  0
   53.3007   98.0652   35.0388 H   0  0  0  0  0  0
   54.1833   96.9232   32.9805 H   0  0  0  0  0  0
   52.4513   97.0288   33.0018 H   0  0  0  0  0  0
   54.3711   98.8345   31.4283 H   0  0  0  0  0  0
   53.2991   97.6258   30.7599 H   0  0  0  0  0  0
   51.2919   98.8875   31.5862 H   0  0  0  0  0  0
   51.6662  101.1178   32.6772 H   0  0  0  0  0  0
   53.3939  100.9108   32.6155 H   0  0  0  0  0  0
   53.1407  100.7966   30.2147 H   0  0  0  0  0  0
   51.2454   97.7398   29.6892 H   0  0  0  0  0  0
   50.2429   97.1045   27.5501 H   0  0  0  0  0  0
   52.2286  101.6389   28.1575 H   0  0  0  0  0  0
   51.2422  101.9109   25.1836 H   0  0  0  0  0  0
  1  6  1  0  0  0
  1  2  2  0  0  0
  1 28  1  0  0  0
  2  3  1  0  0  0
  2 29  1  0  0  0
  3  4  2  0  0  0
  3 24  1  0  0  0
  4  5  1  0  0  0
  4 30  1  0  0  0
  5  6  2  0  0  0
  5 31  1  0  0  0
  6  7  1  0  0  0
  7  8  1  0  0  0
  7 32  1  0  0  0
  7 33  1  0  0  0
  8 13  1  0  0  0
  8  9  1  0  0  0
  9 10  1  0  0  0
  9 34  1  0  0  0
  9 35  1  0  0  0
 10 11  1  0  0  0
 10 36  1  0  0  0
 10 37  1  0  0  0
 11 12  1  0  0  0
 11 38  1  0  0  0
 11 39  1  0  0  0
 12 13  1  0  0  0
 12 40  1  0  0  0
 12 14  1  0  0  0
 13 41  1  0  0  0
 13 42  1  0  0  0
 14 15  1  0  0  0
 14 43  1  0  0  0
 15 20  2  0  0  0
 15 16  1  0  0  0
 16 17  2  0  0  0
 16 44  1  0  0  0
 17 18  1  0  0  0
 17 45  1  0  0  0
 18 23  2  0  0  0
 18 19  1  0  0  0
 19 20  1  0  0  0
 19 21  2  0  0  0
 20 46  1  0  0  0
 21 47  1  0  0  0
 21 22  1  0  0  0
 22 27  1  0  0  0
 22 23  1  0  0  0
 24 25  1  0  0  0
 24 26  2  0  0  0
M  CHG  2  24   1  25  -1
M  END
> <s_m_entry_id>
30595

> <s_m_entry_name>
ligand_docking-pose.25

> <s_m_Source_Path>
/home/csk/Desktop/cluster/DUD-E-result/rock1

> <s_m_Source_File>
ligand_docking-pose.sdf

> <i_m_Source_File_Index>
25

> <i_lp_mmshare_version>
53161

> <i_f3d_flags>
0

> <r_lp_tautomer_probability>
0.0168294951151403

> <s_lp_Force_Field>
OPLS_2005

> <r_lp_Energy>
39.213345

> <b_lp_Chiralities_Consistent>
1

> <s_lp_Variant>
375642-3

> <s_i_glide_gridfile>
glide-grid_2etr

> <i_i_glide_lignum>
131

> <i_i_glide_rotatable_bonds>
5

> <r_i_docking_score>
-7.79602520961568

> <r_i_glide_ligand_efficiency>
-0.299847123446757

> <r_i_glide_ligand_efficiency_sa>
-0.888295923369559

> <r_i_glide_ligand_efficiency_ln>
-1.83087093963306

> <r_i_glide_gscore>
-7.79602520961568

> <r_i_glide_lipo>
-2.77121010835722

> <r_i_glide_hbond>
-0.143782971132111

> <r_i_glide_metal>
0

> <r_i_glide_rewards>
-2.44837483726933

> <r_i_glide_evdw>
-45.486083984375

> <r_i_glide_ecoul>
-5.17444610595703

> <r_i_glide_erotb>
0.617813822255289

> <r_i_glide_esite>
0

> <r_i_glide_emodel>
-69.8583815175846

> <r_i_glide_energy>
-50.660530090332

> <r_i_glide_einternal>
6.93799734115601

> <i_i_glide_confnum>
16

> <i_i_glide_posenum>
116

> <r_i_glide_eff_state_penalty>
0

> <s_user_duplicate_titles>
375642

> <s_m_subgroup_title>
dock_pv

> <s_m_subgroupid>
dock_pv1

> <b_m_subgroup_collapsed>
0

$$$$
375546
                    3D
 Schrodinger Suite 2021-1.
 48 51  0  0  1  0            999 V2000
   48.0940  104.0135   36.0754 C   0  0  0  0  0  0
   48.6444  105.2144   35.6323 C   0  0  0  0  0  0
   49.9771  105.2571   35.2319 C   0  0  0  0  0  0
   50.7603  104.1011   35.2870 C   0  0  0  0  0  0
   50.2117  102.9075   35.7650 C   0  0  0  0  0  0
   48.8725  102.8599   36.1433 C   0  0  0  0  0  0
   52.2303  104.1746   34.8974 C   0  0  0  0  0  0
   52.4509  103.9526   33.4682 N   0  0  2  0  0  0
   52.7003  102.5683   33.0726 C   0  0  2  0  0  0
   53.7856  102.4954   31.9709 C   0  0  0  0  0  0
   54.0908  101.0377   31.5509 C   0  0  0  0  0  0
   52.8263  100.2698   31.1092 C   0  0  1  0  0  0
   51.7533  100.3295   32.2204 C   0  0  0  0  0  0
   51.4303  101.7837   32.6492 C   0  0  0  0  0  0
   52.3004  100.8875   29.8913 N   0  0  0  0  0  0
   51.6740  100.2047   28.8375 C   0  0  0  0  0  0
   51.6433   98.8098   28.7262 C   0  0  0  0  0  0
   51.1045   98.1786   27.6041 C   0  0  0  0  0  0
   50.5687   98.9658   26.5771 C   0  0  0  0  0  0
   50.5365  100.3846   26.7196 C   0  0  0  0  0  0
   51.0941  100.9986   27.8478 C   0  0  0  0  0  0
   49.8742  100.8255   25.5553 C   0  0  0  0  0  0
   49.6432   99.6967   24.8111 N   0  0  0  0  0  0
   50.0427   98.5468   25.3835 N   0  0  0  0  0  0
   49.2027   99.7089   23.8955 H   0  0  0  0  0  0
   47.0574  103.9776   36.3790 H   0  0  0  0  0  0
   48.0438  106.1106   35.6051 H   0  0  0  0  0  0
   50.4066  106.1888   34.8913 H   0  0  0  0  0  0
   50.8197  102.0171   35.8352 H   0  0  0  0  0  0
   48.4431  101.9342   36.4974 H   0  0  0  0  0  0
   52.5819  105.1872   35.1014 H   0  0  0  0  0  0
   52.8250  103.4760   35.4889 H   0  0  0  0  0  0
   53.1625  104.5792   33.1075 H   0  0  0  0  0  0
   53.1269  102.0180   33.9142 H   0  0  0  0  0  0
   53.4674  103.0625   31.0949 H   0  0  0  0  0  0
   54.7083  102.9634   32.3183 H   0  0  0  0  0  0
   54.5577  100.5105   32.3842 H   0  0  0  0  0  0
   54.8379  101.0258   30.7549 H   0  0  0  0  0  0
   53.0940   99.2293   30.9319 H   0  0  0  0  0  0
   52.1089   99.7694   33.0862 H   0  0  0  0  0  0
   50.8449   99.8169   31.9008 H   0  0  0  0  0  0
   50.6995  101.7597   33.4531 H   0  0  0  0  0  0
   50.9451  102.3028   31.8221 H   0  0  0  0  0  0
   52.1860  101.8884   29.9261 H   0  0  0  0  0  0
   52.0660   98.1835   29.4945 H   0  0  0  0  0  0
   51.1196   97.1033   27.5255 H   0  0  0  0  0  0
   51.0957  102.0751   27.9339 H   0  0  0  0  0  0
   49.5654  101.7982   25.2110 H   0  0  0  0  0  0
  1  6  1  0  0  0
  1  2  2  0  0  0
  1 26  1  0  0  0
  2  3  1  0  0  0
  2 27  1  0  0  0
  3  4  2  0  0  0
  3 28  1  0  0  0
  4  5  1  0  0  0
  4  7  1  0  0  0
  5  6  2  0  0  0
  5 29  1  0  0  0
  6 30  1  0  0  0
  7  8  1  0  0  0
  7 31  1  0  0  0
  7 32  1  0  0  0
  8  9  1  0  0  0
  8 33  1  0  0  0
  9 14  1  0  0  0
  9 10  1  0  0  0
  9 34  1  0  0  0
 10 11  1  0  0  0
 10 35  1  0  0  0
 10 36  1  0  0  0
 11 12  1  0  0  0
 11 37  1  0  0  0
 11 38  1  0  0  0
 12 13  1  0  0  0
 12 39  1  0  0  0
 12 15  1  0  0  0
 13 14  1  0  0  0
 13 40  1  0  0  0
 13 41  1  0  0  0
 14 42  1  0  0  0
 14 43  1  0  0  0
 15 16  1  0  0  0
 15 44  1  0  0  0
 16 21  2  0  0  0
 16 17  1  0  0  0
 17 18  2  0  0  0
 17 45  1  0  0  0
 18 19  1  0  0  0
 18 46  1  0  0  0
 19 24  2  0  0  0
 19 20  1  0  0  0
 20 21  1  0  0  0
 20 22  2  0  0  0
 21 47  1  0  0  0
 22 48  1  0  0  0
 22 23  1  0  0  0
 23 25  1  0  0  0
 23 24  1  0  0  0
M  END
> <s_m_entry_id>
30597

> <s_m_entry_name>
ligand_docking-pose.27

> <s_m_Source_Path>
/home/csk/Desktop/cluster/DUD-E-result/rock1

> <s_m_Source_File>
ligand_docking-pose.sdf

> <i_m_Source_File_Index>
27

> <i_lp_mmshare_version>
53161

> <i_f3d_flags>
0

> <r_lp_tautomer_probability>
0.0168294951151403

> <s_lp_Force_Field>
OPLS_2005

> <r_lp_Energy>
34.890609

> <b_lp_Chiralities_Consistent>
1

> <s_lp_Variant>
375546-3

> <s_i_glide_gridfile>
glide-grid_2etr

> <i_i_glide_lignum>
147

> <i_i_glide_rotatable_bonds>
5

> <r_i_docking_score>
-7.76558321486384

> <r_i_glide_ligand_efficiency>
-0.323565967285993

> <r_i_glide_ligand_efficiency_sa>
-0.93332575357993

> <r_i_glide_ligand_efficiency_ln>
-1.85866040271126

> <r_i_glide_gscore>
-7.76558321486384

> <r_i_glide_lipo>
-3.01903176022245

> <r_i_glide_hbond>
-0.332537188668995

> <r_i_glide_metal>
0

> <r_i_glide_rewards>
-2.46096709306468

> <r_i_glide_evdw>
-39.0478439331055

> <r_i_glide_ecoul>
-6.06634950637817

> <r_i_glide_erotb>
0.909297449704286

> <r_i_glide_esite>
0

> <r_i_glide_emodel>
-66.92653211294

> <r_i_glide_energy>
-45.1141934394836

> <r_i_glide_einternal>
1.14729464054108

> <i_i_glide_confnum>
4

> <i_i_glide_posenum>
332

> <r_i_glide_eff_state_penalty>
0

> <s_user_duplicate_titles>
375546

> <s_m_subgroup_title>
dock_pv

> <s_m_subgroupid>
dock_pv1

> <b_m_subgroup_collapsed>
0

$$$$
375515
                    3D
 Schrodinger Suite 2021-1.
 44 47  0  0  1  0            999 V2000
   51.3542   98.5895   28.8891 C   0  0  0  0  0  0
   50.8921   97.9953   27.7120 C   0  0  0  0  0  0
   50.5095   98.8175   26.6437 C   0  0  0  0  0  0
   50.5862  100.2351   26.7818 C   0  0  0  0  0  0
   51.1054  100.8080   27.9510 C   0  0  0  0  0  0
   51.4905   99.9774   29.0044 C   0  0  0  0  0  0
   52.0122  100.6063   30.1467 N   0  0  0  0  0  0
   52.0696  100.0003   31.4771 C   0  0  2  0  0  0
   51.8442  101.1308   32.4994 C   0  0  0  0  0  0
   52.0561  100.6015   33.9223 C   0  0  0  0  0  0
   53.4322   99.9280   34.0688 C   0  0  0  0  0  0
   53.6191   98.8513   33.0864 N   0  0  1  0  0  0
   53.4321   99.2921   31.6897 C   0  0  0  0  0  0
   54.9259   98.2063   33.2685 C   0  0  0  0  0  0
   54.8474   96.6950   33.1186 C   0  0  0  0  0  0
   54.0383   95.9336   33.9698 C   0  0  0  0  0  0
   54.0426   94.5451   33.8315 C   0  0  0  0  0  0
   54.8040   93.9030   32.9118 N   0  0  0  0  0  0
   55.5962   94.6472   32.1027 C   0  0  0  0  0  0
   55.6362   96.0372   32.1707 C   0  0  0  0  0  0
   50.0435  100.7210   25.5721 C   0  0  0  0  0  0
   49.7722   99.6104   24.8128 N   0  0  0  0  0  0
   50.0427   98.4363   25.4126 N   0  0  0  0  0  0
   49.3746   99.6508   23.8794 H   0  0  0  0  0  0
   51.6487   97.9459   29.7037 H   0  0  0  0  0  0
   50.8430   96.9218   27.6264 H   0  0  0  0  0  0
   51.1848  101.8813   28.0408 H   0  0  0  0  0  0
   52.4828  101.4910   30.0221 H   0  0  0  0  0  0
   51.2857   99.2454   31.5597 H   0  0  0  0  0  0
   50.8431  101.5473   32.4072 H   0  0  0  0  0  0
   52.5390  101.9538   32.3164 H   0  0  0  0  0  0
   51.2679   99.9039   34.2096 H   0  0  0  0  0  0
   51.9853  101.4270   34.6312 H   0  0  0  0  0  0
   53.5243   99.5130   35.0744 H   0  0  0  0  0  0
   54.2344  100.6613   33.9624 H   0  0  0  0  0  0
   54.2510   99.9546   31.4003 H   0  0  0  0  0  0
   53.5095   98.4238   31.0339 H   0  0  0  0  0  0
   55.3268   98.3893   34.2678 H   0  0  0  0  0  0
   55.6601   98.6198   32.5745 H   0  0  0  0  0  0
   53.4226   96.4100   34.7176 H   0  0  0  0  0  0
   53.4244   93.9226   34.4622 H   0  0  0  0  0  0
   56.2094   94.1101   31.3930 H   0  0  0  0  0  0
   56.2896   96.5863   31.5150 H   0  0  0  0  0  0
   49.8336  101.7122   25.2112 H   0  0  0  0  0  0
  1  2  2  0  0  0
  1  6  1  0  0  0
  1 25  1  0  0  0
  2  3  1  0  0  0
  2 26  1  0  0  0
  3 23  2  0  0  0
  3  4  1  0  0  0
  4  5  1  0  0  0
  4 21  2  0  0  0
  5  6  2  0  0  0
  5 27  1  0  0  0
  6  7  1  0  0  0
  7  8  1  0  0  0
  7 28  1  0  0  0
  8 13  1  0  0  0
  8  9  1  0  0  0
  8 29  1  0  0  0
  9 10  1  0  0  0
  9 30  1  0  0  0
  9 31  1  0  0  0
 10 11  1  0  0  0
 10 32  1  0  0  0
 10 33  1  0  0  0
 11 12  1  0  0  0
 11 34  1  0  0  0
 11 35  1  0  0  0
 12 13  1  0  0  0
 12 14  1  0  0  0
 13 36  1  0  0  0
 13 37  1  0  0  0
 14 15  1  0  0  0
 14 38  1  0  0  0
 14 39  1  0  0  0
 15 20  1  0  0  0
 15 16  2  0  0  0
 16 17  1  0  0  0
 16 40  1  0  0  0
 17 18  2  0  0  0
 17 41  1  0  0  0
 18 19  1  0  0  0
 19 20  2  0  0  0
 19 42  1  0  0  0
 20 43  1  0  0  0
 21 44  1  0  0  0
 21 22  1  0  0  0
 22 24  1  0  0  0
 22 23  1  0  0  0
M  END
> <s_m_entry_id>
30598

> <s_m_entry_name>
ligand_docking-pose.28

> <s_m_Source_Path>
/home/csk/Desktop/cluster/DUD-E-result/rock1

> <s_m_Source_File>
ligand_docking-pose.sdf

> <i_m_Source_File_Index>
28

> <i_lp_mmshare_version>
53161

> <i_f3d_flags>
0

> <r_lp_tautomer_probability>
0.0168294951151403

> <s_lp_Force_Field>
OPLS_2005

> <r_lp_Energy>
36.496774

> <b_lp_Chiralities_Consistent>
1

> <s_lp_Variant>
375515-3

> <s_i_glide_gridfile>
glide-grid_2etr

> <i_i_glide_lignum>
3

> <i_i_glide_rotatable_bonds>
4

> <r_i_docking_score>
-7.75675114323063

> <r_i_glide_ligand_efficiency>
-0.337250049705679

> <r_i_glide_ligand_efficiency_sa>
-0.95909427930887

> <r_i_glide_ligand_efficiency_ln>
-1.87565276076389

> <r_i_glide_gscore>
-7.75675114323063

> <r_i_glide_lipo>
-2.38555327645722

> <r_i_glide_hbond>
-0.645585095381621

> <r_i_glide_metal>
0

> <r_i_glide_rewards>
-2.52079714670219

> <r_i_glide_evdw>
-38.4995079040527

> <r_i_glide_ecoul>
-5.51755905151367

> <r_i_glide_erotb>
0.54779362824009

> <r_i_glide_esite>
0

> <r_i_glide_emodel>
-59.5857825421256

> <r_i_glide_energy>
-44.0170669555664

> <r_i_glide_einternal>
7.49382972717285

> <i_i_glide_confnum>
18

> <i_i_glide_posenum>
204

> <r_i_glide_eff_state_penalty>
0

> <s_user_duplicate_titles>
375515

> <s_m_subgroup_title>
dock_pv

> <s_m_subgroupid>
dock_pv1

> <b_m_subgroup_collapsed>
0

$$$$
376243
                    3D
 Schrodinger Suite 2021-1.
 44 47  0  0  1  0            999 V2000
   50.8665  102.3045   28.0025 C   0  0  0  0  0  0
   50.4431  101.7492   26.8028 C   0  0  0  0  0  0
   50.4741  100.3509   26.6201 C   0  0  0  0  0  0
   50.0440   99.7302   25.4230 C   0  0  0  0  0  0
   50.0430   98.3955   25.2111 N   0  0  0  0  0  0
   50.4562   97.6063   26.2275 C   0  0  0  0  0  0
   50.9140   98.0977   27.4495 C   0  0  0  0  0  0
   50.9565   99.5079   27.6709 C   0  0  0  0  0  0
   51.4754  100.1092   28.8669 C   0  0  0  0  0  0
   51.4158  101.5038   28.9923 C   0  0  0  0  0  0
   52.0530   99.3090   29.8761 N   0  0  0  0  0  0
   53.0073   99.8056   30.8705 C   0  0  2  0  0  0
   53.6585   98.6804   31.6735 C   0  0  0  0  0  0
   53.8649   99.3116   33.0459 C   0  0  0  0  0  0
   52.6761  100.1295   33.2525 N   0  0  2  0  0  0
   52.4338  100.7471   31.9513 C   0  0  0  0  0  0
   52.8684  101.1053   34.3294 C   0  0  0  0  0  0
   51.6066  101.9019   34.6586 C   0  0  0  0  0  0
   50.4544  101.2469   35.1056 C   0  0  0  0  0  0
   49.3130  101.9717   35.4490 C   0  0  0  0  0  0
   49.3120  103.3617   35.3445 C   0  0  0  0  0  0
   50.4555  104.0229   34.8947 C   0  0  0  0  0  0
   51.5982  103.2979   34.5532 C   0  0  0  0  0  0
   52.6951  103.9612   34.1230 F   0  0  0  0  0  0
   50.4430   99.9032   35.2111 F   0  0  0  0  0  0
   50.8301  103.3754   28.1397 H   0  0  0  0  0  0
   50.0635  102.3823   26.0134 H   0  0  0  0  0  0
   49.6840  100.3353   24.6025 H   0  0  0  0  0  0
   50.4424   96.5417   26.0420 H   0  0  0  0  0  0
   51.2445   97.4117   28.2145 H   0  0  0  0  0  0
   51.7939  102.0056   29.8656 H   0  0  0  0  0  0
   51.9124   98.3101   29.8388 H   0  0  0  0  0  0
   53.7638  100.3603   30.3110 H   0  0  0  0  0  0
   54.6133   98.3773   31.2411 H   0  0  0  0  0  0
   53.0441   97.7812   31.7487 H   0  0  0  0  0  0
   54.7854   99.8980   33.0997 H   0  0  0  0  0  0
   53.9310   98.5699   33.8434 H   0  0  0  0  0  0
   51.3601  100.8930   31.8291 H   0  0  0  0  0  0
   52.8899  101.7346   31.8616 H   0  0  0  0  0  0
   53.6966  101.7763   34.0915 H   0  0  0  0  0  0
   53.1656  100.5776   35.2374 H   0  0  0  0  0  0
   48.4336  101.4533   35.8022 H   0  0  0  0  0  0
   48.4295  103.9227   35.6157 H   0  0  0  0  0  0
   50.4682  105.1002   34.8194 H   0  0  0  0  0  0
  1 10  1  0  0  0
  1  2  2  0  0  0
  1 26  1  0  0  0
  2  3  1  0  0  0
  2 27  1  0  0  0
  3  8  2  0  0  0
  3  4  1  0  0  0
  4  5  2  0  0  0
  4 28  1  0  0  0
  5  6  1  0  0  0
  6  7  2  0  0  0
  6 29  1  0  0  0
  7  8  1  0  0  0
  7 30  1  0  0  0
  8  9  1  0  0  0
  9 10  2  0  0  0
  9 11  1  0  0  0
 10 31  1  0  0  0
 11 12  1  0  0  0
 11 32  1  0  0  0
 12 16  1  0  0  0
 12 13  1  0  0  0
 12 33  1  0  0  0
 13 14  1  0  0  0
 13 34  1  0  0  0
 13 35  1  0  0  0
 14 15  1  0  0  0
 14 36  1  0  0  0
 14 37  1  0  0  0
 15 16  1  0  0  0
 15 17  1  0  0  0
 16 38  1  0  0  0
 16 39  1  0  0  0
 17 18  1  0  0  0
 17 40  1  0  0  0
 17 41  1  0  0  0
 18 23  1  0  0  0
 18 19  2  0  0  0
 19 20  1  0  0  0
 19 25  1  0  0  0
 20 21  2  0  0  0
 20 42  1  0  0  0
 21 22  1  0  0  0
 21 43  1  0  0  0
 22 23  2  0  0  0
 22 44  1  0  0  0
 23 24  1  0  0  0
M  END
> <s_m_entry_id>
30599

> <s_m_entry_name>
ligand_docking-pose.29

> <s_m_Source_Path>
/home/csk/Desktop/cluster/DUD-E-result/rock1

> <s_m_Source_File>
ligand_docking-pose.sdf

> <i_m_Source_File_Index>
29

> <i_lp_mmshare_version>
53161

> <i_f3d_flags>
0

> <r_lp_tautomer_probability>
1

> <s_lp_Force_Field>
OPLS_2005

> <r_lp_Energy>
35.971868

> <b_lp_Chiralities_Consistent>
1

> <s_lp_Variant>
376243-1

> <s_i_glide_gridfile>
glide-grid_2etr

> <i_i_glide_lignum>
25

> <i_i_glide_rotatable_bonds>
4

> <r_i_docking_score>
-7.75153412025042

> <r_i_glide_ligand_efficiency>
-0.310061364810017

> <r_i_glide_ligand_efficiency_sa>
-0.906624929666208

> <r_i_glide_ligand_efficiency_ln>
-1.8373458812319

> <r_i_glide_gscore>
-7.75153412025042

> <r_i_glide_lipo>
-3.17011371679989

> <r_i_glide_hbond>
-0.193766069962295

> <r_i_glide_metal>
0

> <r_i_glide_rewards>
-2.73287489908335

> <r_i_glide_evdw>
-39.2468948364258

> <r_i_glide_ecoul>
-2.18376874923706

> <r_i_glide_erotb>
0.657196951743343

> <r_i_glide_esite>
-0.022066331941376

> <r_i_glide_emodel>
-58.8179570467344

> <r_i_glide_energy>
-41.4306635856628

> <r_i_glide_einternal>
6.61113595962524

> <i_i_glide_confnum>
50

> <i_i_glide_posenum>
50

> <r_i_glide_eff_state_penalty>
0

> <s_user_duplicate_titles>
376243

> <s_m_subgroup_title>
dock_pv

> <s_m_subgroupid>
dock_pv1

> <b_m_subgroup_collapsed>
0

$$$$
375633
                    3D
 Schrodinger Suite 2021-1.
 47 50  0  0  1  0            999 V2000
   51.4542  103.1060   34.3795 C   0  0  0  0  0  0
   50.2426  103.6938   34.7343 C   0  0  0  0  0  0
   49.2534  102.9223   35.3435 C   0  0  0  0  0  0
   49.4690  101.5721   35.6104 C   0  0  0  0  0  0
   50.6857  100.9888   35.2684 C   0  0  0  0  0  0
   51.6794  101.7533   34.6491 C   0  0  0  0  0  0
   53.0218  101.1224   34.2939 C   0  0  0  0  0  0
   53.0891  100.6577   32.9013 N   0  0  1  0  0  0
   54.4982  100.4312   32.5295 C   0  0  0  0  0  0
   54.6529   99.8644   31.1044 C   0  0  0  0  0  0
   53.7797   98.6165   30.8755 C   0  0  0  0  0  0
   52.3022   98.8743   31.2568 C   0  0  1  0  0  0
   52.2975   99.4270   32.7071 C   0  0  0  0  0  0
   51.7391   99.8816   30.3516 N   0  0  0  0  0  0
   51.3313   99.5749   29.0401 C   0  0  0  0  0  0
   51.2430   98.2590   28.5757 C   0  0  0  0  0  0
   50.8411   97.9518   27.2789 C   0  0  0  0  0  0
   50.4788   99.0028   26.4313 C   0  0  0  0  0  0
   50.5359  100.3520   26.8947 C   0  0  0  0  0  0
   50.9801  100.6347   28.1981 C   0  0  0  0  0  0
   50.0653  101.1025   25.7898 C   0  0  0  0  0  0
   49.7962  100.1783   24.8101 N   0  0  0  0  0  0
   50.0427   98.9017   25.1409 N   0  0  0  0  0  0
   48.0411  103.5063   35.6922 N   0  0  0  0  0  0
   49.4378  100.4117   23.8918 H   0  0  0  0  0  0
   52.2199  103.7024   33.9032 H   0  0  0  0  0  0
   50.0774  104.7420   34.5351 H   0  0  0  0  0  0
   48.7005  100.9779   36.0827 H   0  0  0  0  0  0
   50.8559   99.9444   35.4857 H   0  0  0  0  0  0
   53.7911  101.8747   34.4740 H   0  0  0  0  0  0
   53.2412  100.3044   34.9855 H   0  0  0  0  0  0
   55.0453  101.3734   32.6059 H   0  0  0  0  0  0
   54.9667   99.7508   33.2455 H   0  0  0  0  0  0
   54.4380  100.6468   30.3765 H   0  0  0  0  0  0
   55.6978   99.6052   30.9344 H   0  0  0  0  0  0
   53.8649   98.3020   29.8348 H   0  0  0  0  0  0
   54.1672   97.7872   31.4697 H   0  0  0  0  0  0
   51.7218   97.9527   31.2237 H   0  0  0  0  0  0
   52.6293   98.6528   33.4006 H   0  0  0  0  0  0
   51.2617   99.6323   32.9758 H   0  0  0  0  0  0
   52.1061  100.8112   30.5037 H   0  0  0  0  0  0
   51.4897   97.4301   29.2188 H   0  0  0  0  0  0
   50.8002   96.9274   26.9402 H   0  0  0  0  0  0
   51.0316  101.6534   28.5500 H   0  0  0  0  0  0
   49.8981  102.1551   25.6203 H   0  0  0  0  0  0
   47.9343  104.5067   35.6228 H   0  0  0  0  0  0
   47.3639  102.9509   36.1957 H   0  0  0  0  0  0
  1  6  1  0  0  0
  1  2  2  0  0  0
  1 26  1  0  0  0
  2  3  1  0  0  0
  2 27  1  0  0  0
  3  4  2  0  0  0
  3 24  1  0  0  0
  4  5  1  0  0  0
  4 28  1  0  0  0
  5  6  2  0  0  0
  5 29  1  0  0  0
  6  7  1  0  0  0
  7  8  1  0  0  0
  7 30  1  0  0  0
  7 31  1  0  0  0
  8 13  1  0  0  0
  8  9  1  0  0  0
  9 10  1  0  0  0
  9 32  1  0  0  0
  9 33  1  0  0  0
 10 11  1  0  0  0
 10 34  1  0  0  0
 10 35  1  0  0  0
 11 12  1  0  0  0
 11 36  1  0  0  0
 11 37  1  0  0  0
 12 13  1  0  0  0
 12 38  1  0  0  0
 12 14  1  0  0  0
 13 39  1  0  0  0
 13 40  1  0  0  0
 14 15  1  0  0  0
 14 41  1  0  0  0
 15 20  2  0  0  0
 15 16  1  0  0  0
 16 17  2  0  0  0
 16 42  1  0  0  0
 17 18  1  0  0  0
 17 43  1  0  0  0
 18 23  2  0  0  0
 18 19  1  0  0  0
 19 20  1  0  0  0
 19 21  2  0  0  0
 20 44  1  0  0  0
 21 45  1  0  0  0
 21 22  1  0  0  0
 22 25  1  0  0  0
 22 23  1  0  0  0
 24 46  1  0  0  0
 24 47  1  0  0  0
M  END
> <s_m_entry_id>
30600

> <s_m_entry_name>
ligand_docking-pose.30

> <s_m_Source_Path>
/home/csk/Desktop/cluster/DUD-E-result/rock1

> <s_m_Source_File>
ligand_docking-pose.sdf

> <i_m_Source_File_Index>
30

> <i_lp_mmshare_version>
53161

> <i_f3d_flags>
0

> <r_lp_tautomer_probability>
0.0168294951151403

> <s_lp_Force_Field>
OPLS_2005

> <r_lp_Energy>
37.300011

> <b_lp_Chiralities_Consistent>
1

> <s_lp_Variant>
375633-3

> <s_i_glide_gridfile>
glide-grid_2etr

> <i_i_glide_lignum>
123

> <i_i_glide_rotatable_bonds>
4

> <r_i_docking_score>
-7.74219531711741

> <r_i_glide_ligand_efficiency>
-0.322591471546559

> <r_i_glide_ligand_efficiency_sa>
-0.930514821459976

> <r_i_glide_ligand_efficiency_ln>
-1.85306260557984

> <r_i_glide_gscore>
-7.74219531711741

> <r_i_glide_lipo>
-2.85415376686322

> <r_i_glide_hbond>
-0.32

> <r_i_glide_metal>
0

> <r_i_glide_rewards>
-2.46255525447909

> <r_i_glide_evdw>
-43.0889663696289

> <r_i_glide_ecoul>
-4.49692964553833

> <r_i_glide_erotb>
0.723501469537099

> <r_i_glide_esite>
0

> <r_i_glide_emodel>
-68.733552816672

> <r_i_glide_energy>
-47.5858960151672

> <r_i_glide_einternal>
2.7001473903656

> <i_i_glide_confnum>
58

> <i_i_glide_posenum>
26

> <r_i_glide_eff_state_penalty>
0

> <s_user_duplicate_titles>
375633

> <s_m_subgroup_title>
dock_pv

> <s_m_subgroupid>
dock_pv1

> <b_m_subgroup_collapsed>
0

$$$$
375626
                    3D
 Schrodinger Suite 2021-1.
 47 50  0  0  1  0            999 V2000
   49.6379  102.1092   35.5856 C   0  0  0  0  0  0
   49.4554  103.4622   35.3045 C   0  0  0  0  0  0
   50.4431  104.1713   34.6202 C   0  0  0  0  0  0
   51.6140  103.5353   34.2040 C   0  0  0  0  0  0
   51.8142  102.1740   34.5052 C   0  0  0  0  0  0
   50.8157  101.4734   35.1968 C   0  0  0  0  0  0
   53.1176  101.4503   34.1597 C   0  0  0  0  0  0
   53.1338  100.8812   32.8059 N   0  0  1  0  0  0
   54.5278  100.5817   32.4265 C   0  0  0  0  0  0
   54.6393   99.9029   31.0476 C   0  0  0  0  0  0
   53.7209   98.6760   30.9210 C   0  0  0  0  0  0
   52.2605   99.0116   31.3052 C   0  0  1  0  0  0
   52.3063   99.6596   32.7193 C   0  0  0  0  0  0
   51.7226   99.9877   30.3530 N   0  0  0  0  0  0
   51.3132   99.6316   29.0548 C   0  0  0  0  0  0
   51.2432   98.3034   28.6193 C   0  0  0  0  0  0
   50.8428   97.9679   27.3273 C   0  0  0  0  0  0
   50.4717   98.9998   26.4570 C   0  0  0  0  0  0
   50.5163  100.3589   26.8972 C   0  0  0  0  0  0
   50.9533  100.6675   28.1913 C   0  0  0  0  0  0
   50.0478  101.0903   25.7814 C   0  0  0  0  0  0
   49.7910  100.1510   24.8109 N   0  0  0  0  0  0
   50.0413   98.8782   25.1655 N   0  0  0  0  0  0
   52.5629  104.2790   33.4967 N   0  0  0  0  0  0
   49.4285  100.3676   23.8895 H   0  0  0  0  0  0
   48.8729  101.5579   36.1141 H   0  0  0  0  0  0
   48.5482  103.9574   35.6161 H   0  0  0  0  0  0
   50.2924  105.2215   34.4134 H   0  0  0  0  0  0
   50.9538  100.4283   35.4392 H   0  0  0  0  0  0
   53.9321  102.1684   34.2748 H   0  0  0  0  0  0
   53.3124  100.6713   34.9006 H   0  0  0  0  0  0
   55.1022  101.5102   32.4183 H   0  0  0  0  0  0
   54.9921   99.9459   33.1829 H   0  0  0  0  0  0
   54.4441  100.6344   30.2636 H   0  0  0  0  0  0
   55.6730   99.5946   30.8853 H   0  0  0  0  0  0
   53.7752   98.3007   29.9001 H   0  0  0  0  0  0
   54.0908   97.8708   31.5589 H   0  0  0  0  0  0
   51.6376   98.1162   31.3310 H   0  0  0  0  0  0
   52.6416   98.9262   33.4565 H   0  0  0  0  0  0
   51.2833   99.9072   33.0039 H   0  0  0  0  0  0
   52.0932  100.9200   30.4758 H   0  0  0  0  0  0
   51.5141   97.4985   29.2837 H   0  0  0  0  0  0
   50.8169   96.9360   27.0117 H   0  0  0  0  0  0
   50.9922  101.6962   28.5220 H   0  0  0  0  0  0
   49.8710  102.1399   25.6110 H   0  0  0  0  0  0
   53.3231  103.7813   33.0537 H   0  0  0  0  0  0
   52.4431  105.2738   33.3291 H   0  0  0  0  0  0
  1  6  1  0  0  0
  1  2  2  0  0  0
  1 26  1  0  0  0
  2  3  1  0  0  0
  2 27  1  0  0  0
  3  4  2  0  0  0
  3 28  1  0  0  0
  4  5  1  0  0  0
  4 24  1  0  0  0
  5  6  2  0  0  0
  5  7  1  0  0  0
  6 29  1  0  0  0
  7  8  1  0  0  0
  7 30  1  0  0  0
  7 31  1  0  0  0
  8 13  1  0  0  0
  8  9  1  0  0  0
  9 10  1  0  0  0
  9 32  1  0  0  0
  9 33  1  0  0  0
 10 11  1  0  0  0
 10 34  1  0  0  0
 10 35  1  0  0  0
 11 12  1  0  0  0
 11 36  1  0  0  0
 11 37  1  0  0  0
 12 13  1  0  0  0
 12 38  1  0  0  0
 12 14  1  0  0  0
 13 39  1  0  0  0
 13 40  1  0  0  0
 14 15  1  0  0  0
 14 41  1  0  0  0
 15 20  2  0  0  0
 15 16  1  0  0  0
 16 17  2  0  0  0
 16 42  1  0  0  0
 17 18  1  0  0  0
 17 43  1  0  0  0
 18 23  2  0  0  0
 18 19  1  0  0  0
 19 20  1  0  0  0
 19 21  2  0  0  0
 20 44  1  0  0  0
 21 45  1  0  0  0
 21 22  1  0  0  0
 22 25  1  0  0  0
 22 23  1  0  0  0
 24 46  1  0  0  0
 24 47  1  0  0  0
M  END
> <s_m_entry_id>
30601

> <s_m_entry_name>
ligand_docking-pose.31

> <s_m_Source_Path>
/home/csk/Desktop/cluster/DUD-E-result/rock1

> <s_m_Source_File>
ligand_docking-pose.sdf

> <i_m_Source_File_Index>
31

> <i_lp_mmshare_version>
53161

> <i_f3d_flags>
0

> <r_lp_tautomer_probability>
0.0168294951151403

> <s_lp_Force_Field>
OPLS_2005

> <r_lp_Energy>
39.11338

> <b_lp_Chiralities_Consistent>
1

> <s_lp_Variant>
375626-3

> <s_i_glide_gridfile>
glide-grid_2etr

> <i_i_glide_lignum>
127

> <i_i_glide_rotatable_bonds>
4

> <r_i_docking_score>
-7.72951038382889

> <r_i_glide_ligand_efficiency>
-0.322062932659537

> <r_i_glide_ligand_efficiency_sa>
-0.928990251496196

> <r_i_glide_ligand_efficiency_ln>
-1.85002651897024

> <r_i_glide_gscore>
-7.72951038382889

> <r_i_glide_lipo>
-2.64700351159293

> <r_i_glide_hbond>
-0.392240898690373

> <r_i_glide_metal>
0

> <r_i_glide_rewards>
-2.46258727222538

> <r_i_glide_evdw>
-40.3477172851562

> <r_i_glide_ecoul>
-5.89209032058716

> <r_i_glide_erotb>
0.723501469537099

> <r_i_glide_esite>
-0.0499807585114207

> <r_i_glide_emodel>
-67.5267936765014

> <r_i_glide_energy>
-46.2398076057434

> <r_i_glide_einternal>
1.06366801261902

> <i_i_glide_confnum>
36

> <i_i_glide_posenum>
152

> <r_i_glide_eff_state_penalty>
0

> <s_user_duplicate_titles>
375626

> <s_m_subgroup_title>
dock_pv

> <s_m_subgroupid>
dock_pv1

> <b_m_subgroup_collapsed>
0

$$$$
375513
                    3D
 Schrodinger Suite 2021-1.
 44 47  0  0  1  0            999 V2000
   49.3737  104.6433   36.7729 C   0  0  0  0  0  0
   48.0408  104.4828   36.3912 C   0  0  0  0  0  0
   47.7240  103.5035   35.4500 C   0  0  0  0  0  0
   48.6600  102.7019   34.8846 N   0  0  0  0  0  0
   49.9559  102.8657   35.2658 C   0  0  0  0  0  0
   50.3509  103.8233   36.2046 C   0  0  0  0  0  0
   50.9659  101.9301   34.6135 C   0  0  0  0  0  0
   51.3981  102.4143   33.2980 N   0  0  1  0  0  0
   52.4961  103.3941   33.3967 C   0  0  0  0  0  0
   52.9581  103.9034   32.0085 C   0  0  0  0  0  0
   53.2491  102.7636   31.0142 C   0  0  0  0  0  0
   52.0511  101.7982   31.0033 C   0  0  2  0  0  0
   51.7831  101.2901   32.4345 C   0  0  0  0  0  0
   52.3261  100.6581   30.1329 N   0  0  0  0  0  0
   51.7347  100.5187   28.8694 C   0  0  0  0  0  0
   51.2442  101.6085   28.1392 C   0  0  0  0  0  0
   50.6327  101.4603   26.8920 C   0  0  0  0  0  0
   50.5142  100.1577   26.4039 C   0  0  0  0  0  0
   51.0018   99.0371   27.1200 C   0  0  0  0  0  0
   51.6406   99.2260   28.3534 C   0  0  0  0  0  0
   50.6559   97.9232   26.3000 C   0  0  0  0  0  0
   50.0429   98.3026   25.2109 N   0  0  0  0  0  0
   49.9619   99.6439   25.2467 N   0  0  0  0  0  0
   49.5212  100.1463   24.4885 H   0  0  0  0  0  0
   49.6502  105.3965   37.4961 H   0  0  0  0  0  0
   47.2654  105.1025   36.8114 H   0  0  0  0  0  0
   46.7008  103.3459   35.1377 H   0  0  0  0  0  0
   51.3890  103.9313   36.4835 H   0  0  0  0  0  0
   51.8225  101.7725   35.2725 H   0  0  0  0  0  0
   50.4806  100.9557   34.5215 H   0  0  0  0  0  0
   52.1656  104.2409   33.9984 H   0  0  0  0  0  0
   53.3392  102.9490   33.9303 H   0  0  0  0  0  0
   52.2115  104.5916   31.6117 H   0  0  0  0  0  0
   53.8526  104.5159   32.1307 H   0  0  0  0  0  0
   53.4328  103.1707   30.0193 H   0  0  0  0  0  0
   54.1630  102.2411   31.3067 H   0  0  0  0  0  0
   51.1732  102.3363   30.6449 H   0  0  0  0  0  0
   52.6368  100.7526   32.8532 H   0  0  0  0  0  0
   50.9603  100.5724   32.4062 H   0  0  0  0  0  0
   53.0547  100.0075   30.4046 H   0  0  0  0  0  0
   51.3489  102.6083   28.5269 H   0  0  0  0  0  0
   50.2641  102.3156   26.3447 H   0  0  0  0  0  0
   52.0124   98.3817   28.9129 H   0  0  0  0  0  0
   50.8412   96.8781   26.4945 H   0  0  0  0  0  0
  1  6  1  0  0  0
  1  2  2  0  0  0
  1 25  1  0  0  0
  2  3  1  0  0  0
  2 26  1  0  0  0
  3  4  2  0  0  0
  3 27  1  0  0  0
  4  5  1  0  0  0
  5  6  2  0  0  0
  5  7  1  0  0  0
  6 28  1  0  0  0
  7  8  1  0  0  0
  7 29  1  0  0  0
  7 30  1  0  0  0
  8 13  1  0  0  0
  8  9  1  0  0  0
  9 10  1  0  0  0
  9 31  1  0  0  0
  9 32  1  0  0  0
 10 11  1  0  0  0
 10 33  1  0  0  0
 10 34  1  0  0  0
 11 12  1  0  0  0
 11 35  1  0  0  0
 11 36  1  0  0  0
 12 13  1  0  0  0
 12 14  1  0  0  0
 12 37  1  0  0  0
 13 38  1  0  0  0
 13 39  1  0  0  0
 14 15  1  0  0  0
 14 40  1  0  0  0
 15 20  1  0  0  0
 15 16  2  0  0  0
 16 17  1  0  0  0
 16 41  1  0  0  0
 17 18  2  0  0  0
 17 42  1  0  0  0
 18 23  1  0  0  0
 18 19  1  0  0  0
 19 20  2  0  0  0
 19 21  1  0  0  0
 20 43  1  0  0  0
 21 22  2  0  0  0
 21 44  1  0  0  0
 22 23  1  0  0  0
 23 24  1  0  0  0
M  END
> <s_m_entry_id>
30602

> <s_m_entry_name>
ligand_docking-pose.32

> <s_m_Source_Path>
/home/csk/Desktop/cluster/DUD-E-result/rock1

> <s_m_Source_File>
ligand_docking-pose.sdf

> <i_m_Source_File_Index>
32

> <i_lp_mmshare_version>
53161

> <i_f3d_flags>
0

> <r_lp_tautomer_probability>
0.983170504884488

> <s_lp_Force_Field>
OPLS_2005

> <r_lp_Energy>
20.577927

> <b_lp_Chiralities_Consistent>
1

> <s_lp_Variant>
375513-2

> <s_i_glide_gridfile>
glide-grid_2etr

> <i_i_glide_lignum>
177

> <i_i_glide_rotatable_bonds>
4

> <r_i_docking_score>
-7.64145537590194

> <r_i_glide_ligand_efficiency>
-0.332237190256606

> <r_i_glide_ligand_efficiency_sa>
-0.944838373861912

> <r_i_glide_ligand_efficiency_ln>
-1.8477731987796

> <r_i_glide_gscore>
-7.64145537590194

> <r_i_glide_lipo>
-3.15793188173769

> <r_i_glide_hbond>
-0.236330165083322

> <r_i_glide_metal>
0

> <r_i_glide_rewards>
-2.32436402162761

> <r_i_glide_evdw>
-44.6011734008789

> <r_i_glide_ecoul>
-3.16888642311096

> <r_i_glide_erotb>
0.782562326057272

> <r_i_glide_esite>
0

> <r_i_glide_emodel>
-66.5507423498557

> <r_i_glide_energy>
-47.7700598239899

> <r_i_glide_einternal>
6.68593406677246

> <i_i_glide_confnum>
31

> <i_i_glide_posenum>
124

> <r_i_glide_eff_state_penalty>
0

> <s_user_duplicate_titles>
375513

> <s_m_subgroup_title>
dock_pv

> <s_m_subgroupid>
dock_pv1

> <b_m_subgroup_collapsed>
0

$$$$
375606
                    3D
 Schrodinger Suite 2021-1.
 47 49  0  0  1  0            999 V2000
   48.6278  102.0357   35.4755 C   0  0  0  0  0  0
   50.1101  102.1674   35.0724 C   0  0  0  0  0  0
   51.0065  102.0497   36.3171 C   0  0  0  0  0  0
   50.3458  103.4739   34.2719 C   0  0  0  0  0  0
   51.7775  103.7168   33.7175 C   0  0  0  0  0  0
   51.9235  103.4206   32.2867 N   0  0  1  0  0  0
   53.2079  103.9509   31.7889 C   0  0  0  0  0  0
   53.4259  103.6634   30.2852 C   0  0  0  0  0  0
   53.2078  102.1855   29.9343 C   0  0  0  0  0  0
   51.8365  101.7314   30.4713 C   0  0  2  0  0  0
   51.8015  101.9811   31.9936 C   0  0  0  0  0  0
   51.6733  100.3000   30.2070 N   0  0  0  0  0  0
   51.2559   99.8367   28.9456 C   0  0  0  0  0  0
   51.2590   98.4572   28.7249 C   0  0  0  0  0  0
   50.8502   97.9034   27.5095 C   0  0  0  0  0  0
   50.4423   98.7649   26.4855 C   0  0  0  0  0  0
   50.4036  100.1712   26.7148 C   0  0  0  0  0  0
   50.8184  100.7034   27.9357 C   0  0  0  0  0  0
   49.8824  100.7030   25.5202 C   0  0  0  0  0  0
   49.6981   99.6220   24.7002 N   0  0  0  0  0  0
   50.0429   98.4325   25.2211 N   0  0  0  0  0  0
   49.3174   99.6958   23.7609 H   0  0  0  0  0  0
   48.3207  102.8449   36.1399 H   0  0  0  0  0  0
   48.4401  101.0988   36.0009 H   0  0  0  0  0  0
   47.9696  102.0567   34.6060 H   0  0  0  0  0  0
   50.3397  101.3162   34.4325 H   0  0  0  0  0  0
   50.8056  102.8467   37.0329 H   0  0  0  0  0  0
   50.8376  101.0974   36.8154 H   0  0  0  0  0  0
   52.0671  102.0809   36.0747 H   0  0  0  0  0  0
   49.6594  103.4149   33.4275 H   0  0  0  0  0  0
   50.0311  104.3387   34.8567 H   0  0  0  0  0  0
   52.0259  104.7665   33.8881 H   0  0  0  0  0  0
   52.5215  103.1428   34.2690 H   0  0  0  0  0  0
   53.2405  105.0293   31.9552 H   0  0  0  0  0  0
   54.0318  103.5336   32.3724 H   0  0  0  0  0  0
   52.7865  104.3017   29.6772 H   0  0  0  0  0  0
   54.4386  103.9567   30.0119 H   0  0  0  0  0  0
   53.2543  102.0580   28.8521 H   0  0  0  0  0  0
   54.0139  101.5812   30.3563 H   0  0  0  0  0  0
   51.0355  102.3067   30.0093 H   0  0  0  0  0  0
   52.5677  101.4110   32.5237 H   0  0  0  0  0  0
   50.8439  101.6196   32.3636 H   0  0  0  0  0  0
   52.2933   99.6806   30.7097 H   0  0  0  0  0  0
   51.5766   97.7919   29.5145 H   0  0  0  0  0  0
   50.8461   96.8350   27.3603 H   0  0  0  0  0  0
   50.7897  101.7717   28.0661 H   0  0  0  0  0  0
   49.6192  101.7006   25.2109 H   0  0  0  0  0  0
  1  2  1  0  0  0
  1 23  1  0  0  0
  1 24  1  0  0  0
  1 25  1  0  0  0
  2  3  1  0  0  0
  2  4  1  0  0  0
  2 26  1  0  0  0
  3 27  1  0  0  0
  3 28  1  0  0  0
  3 29  1  0  0  0
  4  5  1  0  0  0
  4 30  1  0  0  0
  4 31  1  0  0  0
  5  6  1  0  0  0
  5 32  1  0  0  0
  5 33  1  0  0  0
  6 11  1  0  0  0
  6  7  1  0  0  0
  7  8  1  0  0  0
  7 34  1  0  0  0
  7 35  1  0  0  0
  8  9  1  0  0  0
  8 36  1  0  0  0
  8 37  1  0  0  0
  9 10  1  0  0  0
  9 38  1  0  0  0
  9 39  1  0  0  0
 10 11  1  0  0  0
 10 40  1  0  0  0
 10 12  1  0  0  0
 11 41  1  0  0  0
 11 42  1  0  0  0
 12 13  1  0  0  0
 12 43  1  0  0  0
 13 18  2  0  0  0
 13 14  1  0  0  0
 14 15  2  0  0  0
 14 44  1  0  0  0
 15 16  1  0  0  0
 15 45  1  0  0  0
 16 21  2  0  0  0
 16 17  1  0  0  0
 17 18  1  0  0  0
 17 19  2  0  0  0
 18 46  1  0  0  0
 19 47  1  0  0  0
 19 20  1  0  0  0
 20 22  1  0  0  0
 20 21  1  0  0  0
M  END
> <s_m_entry_id>
30603

> <s_m_entry_name>
ligand_docking-pose.33

> <s_m_Source_Path>
/home/csk/Desktop/cluster/DUD-E-result/rock1

> <s_m_Source_File>
ligand_docking-pose.sdf

> <i_m_Source_File_Index>
33

> <i_lp_mmshare_version>
53161

> <i_f3d_flags>
0

> <r_lp_tautomer_probability>
0.0168294951151403

> <s_lp_Force_Field>
OPLS_2005

> <r_lp_Energy>
35.128318

> <b_lp_Chiralities_Consistent>
1

> <s_lp_Variant>
375606-4

> <s_i_glide_gridfile>
glide-grid_2etr

> <i_i_glide_lignum>
379

> <i_i_glide_rotatable_bonds>
5

> <r_i_docking_score>
-7.61658471458053

> <r_i_glide_ligand_efficiency>
-0.362694510218121

> <r_i_glide_ligand_efficiency_sa>
-1.00064665186599

> <r_i_glide_ligand_efficiency_ln>
-1.88318517992145

> <r_i_glide_gscore>
-7.61658471458053

> <r_i_glide_lipo>
-2.54523918746321

> <r_i_glide_hbond>
-0.476051237275271

> <r_i_glide_metal>
0

> <r_i_glide_rewards>
-2.42902945474848

> <r_i_glide_evdw>
-34.4693031311035

> <r_i_glide_ecoul>
-7.0842113494873

> <r_i_glide_erotb>
0.619832023884699

> <r_i_glide_esite>
0

> <r_i_glide_emodel>
-59.9527879744662

> <r_i_glide_energy>
-41.5535144805908

> <r_i_glide_einternal>
1.46408367156982

> <i_i_glide_confnum>
1

> <i_i_glide_posenum>
193

> <r_i_glide_eff_state_penalty>
0

> <s_user_duplicate_titles>
375606

> <s_m_subgroup_title>
dock_pv

> <s_m_subgroupid>
dock_pv1

> <b_m_subgroup_collapsed>
0

$$$$
375632
                    3D
 Schrodinger Suite 2021-1.
 47 50  0  0  1  0            999 V2000
   56.2836   96.2288   34.7430 C   0  0  0  0  0  0
   56.0941   97.2887   33.8584 C   0  0  0  0  0  0
   55.0868   97.2264   32.8910 C   0  0  0  0  0  0
   54.2665   96.0964   32.8210 C   0  0  0  0  0  0
   54.4596   95.0316   33.6998 C   0  0  0  0  0  0
   55.4655   95.1026   34.6634 C   0  0  0  0  0  0
   53.6430   93.9051   33.6151 N   0  0  0  0  0  0
   54.8943   98.3796   31.9152 C   0  0  0  0  0  0
   53.6156   99.0715   32.0777 N   0  0  1  0  0  0
   53.5373   99.7967   33.3579 C   0  0  0  0  0  0
   52.1843  100.5292   33.5207 C   0  0  0  0  0  0
   51.8606  101.4283   32.3160 C   0  0  0  0  0  0
   52.0057  100.6031   31.0248 C   0  0  2  0  0  0
   53.4100   99.9728   30.9375 C   0  0  0  0  0  0
   51.7534  101.4634   29.8722 N   0  0  0  0  0  0
   51.2966  100.9639   28.6421 C   0  0  0  0  0  0
   50.8884  101.9030   27.6962 C   0  0  0  0  0  0
   50.4407  101.5504   26.4236 C   0  0  0  0  0  0
   50.3720  100.1879   26.1399 C   0  0  0  0  0  0
   50.7679   99.2042   27.0772 C   0  0  0  0  0  0
   51.2425   99.5970   28.3380 C   0  0  0  0  0  0
   50.5478   97.9702   26.4017 C   0  0  0  0  0  0
   50.0431   98.1613   25.2109 N   0  0  0  0  0  0
   49.9455   99.4900   25.0281 N   0  0  0  0  0  0
   49.5761   99.8653   24.1632 H   0  0  0  0  0  0
   57.0749   96.2714   35.4771 H   0  0  0  0  0  0
   56.7466   98.1500   33.9080 H   0  0  0  0  0  0
   53.4881   96.0510   32.0744 H   0  0  0  0  0  0
   55.6337   94.2804   35.3425 H   0  0  0  0  0  0
   52.7500   94.0523   33.1528 H   0  0  0  0  0  0
   53.6783   93.2611   34.3928 H   0  0  0  0  0  0
   55.7113   99.0973   32.0262 H   0  0  0  0  0  0
   54.9907   97.9713   30.9082 H   0  0  0  0  0  0
   53.6609   99.0905   34.1801 H   0  0  0  0  0  0
   54.3669  100.5024   33.4343 H   0  0  0  0  0  0
   51.3928   99.7974   33.6944 H   0  0  0  0  0  0
   52.2120  101.1338   34.4275 H   0  0  0  0  0  0
   50.8491  101.8281   32.4100 H   0  0  0  0  0  0
   52.5393  102.2843   32.3001 H   0  0  0  0  0  0
   51.2724   99.7943   31.0244 H   0  0  0  0  0  0
   54.1987  100.7257   30.8880 H   0  0  0  0  0  0
   53.4925   99.3992   30.0132 H   0  0  0  0  0  0
   52.2175  102.3591   29.8636 H   0  0  0  0  0  0
   50.9175  102.9509   27.9554 H   0  0  0  0  0  0
   50.1281  102.3002   25.7120 H   0  0  0  0  0  0
   51.5474   98.8462   29.0498 H   0  0  0  0  0  0
   50.7479   96.9761   26.7726 H   0  0  0  0  0  0
  1  6  1  0  0  0
  1  2  2  0  0  0
  1 26  1  0  0  0
  2  3  1  0  0  0
  2 27  1  0  0  0
  3  4  2  0  0  0
  3  8  1  0  0  0
  4  5  1  0  0  0
  4 28  1  0  0  0
  5  6  2  0  0  0
  5  7  1  0  0  0
  6 29  1  0  0  0
  7 30  1  0  0  0
  7 31  1  0  0  0
  8  9  1  0  0  0
  8 32  1  0  0  0
  8 33  1  0  0  0
  9 14  1  0  0  0
  9 10  1  0  0  0
 10 11  1  0  0  0
 10 34  1  0  0  0
 10 35  1  0  0  0
 11 12  1  0  0  0
 11 36  1  0  0  0
 11 37  1  0  0  0
 12 13  1  0  0  0
 12 38  1  0  0  0
 12 39  1  0  0  0
 13 14  1  0  0  0
 13 15  1  0  0  0
 13 40  1  0  0  0
 14 41  1  0  0  0
 14 42  1  0  0  0
 15 16  1  0  0  0
 15 43  1  0  0  0
 16 21  1  0  0  0
 16 17  2  0  0  0
 17 18  1  0  0  0
 17 44  1  0  0  0
 18 19  2  0  0  0
 18 45  1  0  0  0
 19 24  1  0  0  0
 19 20  1  0  0  0
 20 21  2  0  0  0
 20 22  1  0  0  0
 21 46  1  0  0  0
 22 23  2  0  0  0
 22 47  1  0  0  0
 23 24  1  0  0  0
 24 25  1  0  0  0
M  END
> <s_m_entry_id>
30604

> <s_m_entry_name>
ligand_docking-pose.34

> <s_m_Source_Path>
/home/csk/Desktop/cluster/DUD-E-result/rock1

> <s_m_Source_File>
ligand_docking-pose.sdf

> <i_m_Source_File_Index>
34

> <i_lp_mmshare_version>
53161

> <i_f3d_flags>
0

> <r_lp_tautomer_probability>
0.983170504884488

> <s_lp_Force_Field>
OPLS_2005

> <r_lp_Energy>
25.615812

> <b_lp_Chiralities_Consistent>
1

> <s_lp_Variant>
375632-2

> <s_i_glide_gridfile>
glide-grid_2etr

> <i_i_glide_lignum>
161

> <i_i_glide_rotatable_bonds>
4

> <r_i_docking_score>
-7.58238470784348

> <r_i_glide_ligand_efficiency>
-0.315932696160145

> <r_i_glide_ligand_efficiency_sa>
-0.911307589600666

> <r_i_glide_ligand_efficiency_ln>
-1.81481259354957

> <r_i_glide_gscore>
-7.58238470784348

> <r_i_glide_lipo>
-2.10302572036369

> <r_i_glide_hbond>
-0.704178784779361

> <r_i_glide_metal>
0

> <r_i_glide_rewards>
-2.27518925673651

> <r_i_glide_evdw>
-38.7763900756836

> <r_i_glide_ecoul>
-7.11748313903809

> <r_i_glide_erotb>
0.506451028675969

> <r_i_glide_esite>
0

> <r_i_glide_emodel>
-64.8947825001654

> <r_i_glide_energy>
-45.8938732147217

> <r_i_glide_einternal>
3.29340076446533

> <i_i_glide_confnum>
9

> <i_i_glide_posenum>
352

> <r_i_glide_eff_state_penalty>
0

> <s_user_duplicate_titles>
375632

> <s_m_subgroup_title>
dock_pv

> <s_m_subgroupid>
dock_pv1

> <b_m_subgroup_collapsed>
0

$$$$
376252
                    3D
 Schrodinger Suite 2021-1.
 46 49  0  0  1  0            999 V2000
   48.9540  103.3443   35.5066 C   0  0  0  0  0  0
   49.9574  102.7343   34.7509 C   0  0  0  0  0  0
   50.9862  103.5015   34.1911 C   0  0  0  0  0  0
   51.0084  104.8828   34.4117 C   0  0  0  0  0  0
   49.9998  105.4955   35.1551 C   0  0  0  0  0  0
   48.9736  104.7266   35.7064 C   0  0  0  0  0  0
   50.0122  106.8775   35.3212 N   0  0  0  0  0  0
   52.1096  102.8339   33.4051 C   0  0  0  0  0  0
   52.2716  103.3665   32.0472 N   0  0  1  0  0  0
   53.5078  102.8992   31.4288 C   0  0  0  0  0  0
   53.3326  103.1031   29.9203 C   0  0  0  0  0  0
   51.8133  103.2047   29.7017 C   0  0  2  0  0  0
   51.2419  102.9424   31.1076 C   0  0  0  0  0  0
   51.2893  102.3390   28.6357 N   0  0  0  0  0  0
   51.3625  100.9303   28.5532 C   0  0  0  0  0  0
   51.8595  100.1425   29.6012 C   0  0  0  0  0  0
   51.7776   98.7568   29.5805 C   0  0  0  0  0  0
   51.2436   98.1012   28.4825 C   0  0  0  0  0  0
   50.8434   98.8335   27.3493 C   0  0  0  0  0  0
   50.8794  100.2633   27.3752 C   0  0  0  0  0  0
   50.4439  100.9480   26.1976 C   0  0  0  0  0  0
   50.0451  100.2093   25.0819 C   0  0  0  0  0  0
   50.0393   98.8575   25.0426 N   0  0  0  0  0  0
   50.4138   98.2022   26.1614 C   0  0  0  0  0  0
   48.1615  102.7478   35.9364 H   0  0  0  0  0  0
   49.9346  101.6640   34.6045 H   0  0  0  0  0  0
   51.8111  105.4774   33.9933 H   0  0  0  0  0  0
   48.1889  105.1932   36.2834 H   0  0  0  0  0  0
   50.8313  107.3821   35.0068 H   0  0  0  0  0  0
   49.3982  107.2913   36.0049 H   0  0  0  0  0  0
   53.0303  102.9726   33.9758 H   0  0  0  0  0  0
   51.9475  101.7544   33.3626 H   0  0  0  0  0  0
   54.3402  103.4861   31.8209 H   0  0  0  0  0  0
   53.7485  101.8614   31.6752 H   0  0  0  0  0  0
   53.8231  104.0276   29.6103 H   0  0  0  0  0  0
   53.8035  102.3010   29.3550 H   0  0  0  0  0  0
   51.6188  104.2493   29.4544 H   0  0  0  0  0  0
   50.9733  101.9045   31.2829 H   0  0  0  0  0  0
   50.2964  103.4469   31.2793 H   0  0  0  0  0  0
   50.4401  102.6925   28.2205 H   0  0  0  0  0  0
   52.3055  100.5843   30.4736 H   0  0  0  0  0  0
   52.1438   98.1852   30.4208 H   0  0  0  0  0  0
   51.2171   97.0236   28.4645 H   0  0  0  0  0  0
   50.4465  102.0275   26.1562 H   0  0  0  0  0  0
   49.7250  100.7028   24.1753 H   0  0  0  0  0  0
   50.3873   97.1235   26.1127 H   0  0  0  0  0  0
  1  6  1  0  0  0
  1  2  2  0  0  0
  1 25  1  0  0  0
  2  3  1  0  0  0
  2 26  1  0  0  0
  3  4  2  0  0  0
  3  8  1  0  0  0
  4  5  1  0  0  0
  4 27  1  0  0  0
  5  6  2  0  0  0
  5  7  1  0  0  0
  6 28  1  0  0  0
  7 29  1  0  0  0
  7 30  1  0  0  0
  8  9  1  0  0  0
  8 31  1  0  0  0
  8 32  1  0  0  0
  9 13  1  0  0  0
  9 10  1  0  0  0
 10 11  1  0  0  0
 10 33  1  0  0  0
 10 34  1  0  0  0
 11 12  1  0  0  0
 11 35  1  0  0  0
 11 36  1  0  0  0
 12 13  1  0  0  0
 12 14  1  0  0  0
 12 37  1  0  0  0
 13 38  1  0  0  0
 13 39  1  0  0  0
 14 15  1  0  0  0
 14 40  1  0  0  0
 15 20  1  0  0  0
 15 16  2  0  0  0
 16 17  1  0  0  0
 16 41  1  0  0  0
 17 18  2  0  0  0
 17 42  1  0  0  0
 18 19  1  0  0  0
 18 43  1  0  0  0
 19 24  2  0  0  0
 19 20  1  0  0  0
 20 21  2  0  0  0
 21 22  1  0  0  0
 21 44  1  0  0  0
 22 23  2  0  0  0
 22 45  1  0  0  0
 23 24  1  0  0  0
 24 46  1  0  0  0
M  END
> <s_m_entry_id>
30605

> <s_m_entry_name>
ligand_docking-pose.35

> <s_m_Source_Path>
/home/csk/Desktop/cluster/DUD-E-result/rock1

> <s_m_Source_File>
ligand_docking-pose.sdf

> <i_m_Source_File_Index>
35

> <i_lp_mmshare_version>
53161

> <i_f3d_flags>
0

> <r_lp_tautomer_probability>
1

> <s_lp_Force_Field>
OPLS_2005

> <r_lp_Energy>
39.641848

> <b_lp_Chiralities_Consistent>
1

> <s_lp_Variant>
376252-2

> <s_i_glide_gridfile>
glide-grid_2etr

> <i_i_glide_lignum>
159

> <i_i_glide_rotatable_bonds>
4

> <r_i_docking_score>
-7.56155547970277

> <r_i_glide_ligand_efficiency>
-0.315064811654282

> <r_i_glide_ligand_efficiency_sa>
-0.908804177492003

> <r_i_glide_ligand_efficiency_ln>
-1.8098272034645

> <r_i_glide_gscore>
-7.56155547970277

> <r_i_glide_lipo>
-3.0311596360316

> <r_i_glide_hbond>
-0.037982458662025

> <r_i_glide_metal>
0

> <r_i_glide_rewards>
-2.6214096060606

> <r_i_glide_evdw>
-43.8212928771973

> <r_i_glide_ecoul>
-2.5716507434845

> <r_i_glide_erotb>
0.735570255049727

> <r_i_glide_esite>
-0.029761778615737

> <r_i_glide_emodel>
-64.5608142685896

> <r_i_glide_energy>
-46.3929436206818

> <r_i_glide_einternal>
5.68851709365845

> <i_i_glide_confnum>
30

> <i_i_glide_posenum>
356

> <r_i_glide_eff_state_penalty>
0

> <s_user_duplicate_titles>
376252,376261

> <s_m_subgroup_title>
dock_pv

> <s_m_subgroupid>
dock_pv1

> <b_m_subgroup_collapsed>
0

$$$$
375514
                    3D
 Schrodinger Suite 2021-1.
 44 47  0  0  1  0            999 V2000
   47.7349  103.5544   35.6037 C   0  0  0  0  0  0
   48.7807  102.7309   35.1832 C   0  0  0  0  0  0
   50.0985  103.1994   35.2432 C   0  0  0  0  0  0
   50.3177  104.4865   35.7485 C   0  0  0  0  0  0
   49.3117  105.2990   36.1672 N   0  0  0  0  0  0
   48.0443  104.8259   36.0858 C   0  0  0  0  0  0
   51.2552  102.3276   34.7796 C   0  0  0  0  0  0
   51.6155  102.6290   33.3895 N   0  0  1  0  0  0
   52.8142  103.4829   33.3001 C   0  0  0  0  0  0
   53.2120  103.7990   31.8393 C   0  0  0  0  0  0
   53.2879  102.5413   30.9537 C   0  0  0  0  0  0
   51.9695  101.7561   31.0912 C   0  0  2  0  0  0
   51.7587  101.4076   32.5838 C   0  0  0  0  0  0
   52.0451  100.5134   30.3242 N   0  0  0  0  0  0
   51.5970  100.4152   28.9971 C   0  0  0  0  0  0
   51.3049  101.5349   28.2047 C   0  0  0  0  0  0
   50.8107  101.4222   26.9029 C   0  0  0  0  0  0
   50.5911  100.1301   26.4231 C   0  0  0  0  0  0
   50.8865   98.9818   27.1946 C   0  0  0  0  0  0
   51.4154   99.1309   28.4850 C   0  0  0  0  0  0
   50.5109   97.8926   26.3574 C   0  0  0  0  0  0
   50.0430   98.3076   25.2113 N   0  0  0  0  0  0
   50.0884   99.6518   25.2299 N   0  0  0  0  0  0
   49.7601  100.1866   24.4355 H   0  0  0  0  0  0
   46.7097  103.2139   35.5550 H   0  0  0  0  0  0
   48.5665  101.7388   34.8122 H   0  0  0  0  0  0
   51.3176  104.8894   35.8190 H   0  0  0  0  0  0
   47.2643  105.4987   36.4110 H   0  0  0  0  0  0
   52.1036  102.4599   35.4568 H   0  0  0  0  0  0
   50.9592  101.2836   34.9085 H   0  0  0  0  0  0
   52.6247  104.4186   33.8303 H   0  0  0  0  0  0
   53.6479  103.0040   33.8181 H   0  0  0  0  0  0
   52.5173  104.5313   31.4330 H   0  0  0  0  0  0
   54.1785  104.3017   31.8333 H   0  0  0  0  0  0
   53.4692  102.8279   29.9163 H   0  0  0  0  0  0
   54.1372  101.9240   31.2519 H   0  0  0  0  0  0
   51.1456  102.3707   30.7253 H   0  0  0  0  0  0
   52.5586  100.7766   32.9776 H   0  0  0  0  0  0
   50.8430  100.8251   32.6768 H   0  0  0  0  0  0
   52.6977   99.8078   30.6400 H   0  0  0  0  0  0
   51.4667  102.5254   28.5936 H   0  0  0  0  0  0
   50.5877  102.2980   26.3099 H   0  0  0  0  0  0
   51.6357   98.2627   29.0865 H   0  0  0  0  0  0
   50.5721   96.8388   26.5849 H   0  0  0  0  0  0
  1  6  1  0  0  0
  1  2  2  0  0  0
  1 25  1  0  0  0
  2  3  1  0  0  0
  2 26  1  0  0  0
  3  4  2  0  0  0
  3  7  1  0  0  0
  4  5  1  0  0  0
  4 27  1  0  0  0
  5  6  2  0  0  0
  6 28  1  0  0  0
  7  8  1  0  0  0
  7 29  1  0  0  0
  7 30  1  0  0  0
  8 13  1  0  0  0
  8  9  1  0  0  0
  9 10  1  0  0  0
  9 31  1  0  0  0
  9 32  1  0  0  0
 10 11  1  0  0  0
 10 33  1  0  0  0
 10 34  1  0  0  0
 11 12  1  0  0  0
 11 35  1  0  0  0
 11 36  1  0  0  0
 12 13  1  0  0  0
 12 14  1  0  0  0
 12 37  1  0  0  0
 13 38  1  0  0  0
 13 39  1  0  0  0
 14 15  1  0  0  0
 14 40  1  0  0  0
 15 20  1  0  0  0
 15 16  2  0  0  0
 16 17  1  0  0  0
 16 41  1  0  0  0
 17 18  2  0  0  0
 17 42  1  0  0  0
 18 23  1  0  0  0
 18 19  1  0  0  0
 19 20  2  0  0  0
 19 21  1  0  0  0
 20 43  1  0  0  0
 21 22  2  0  0  0
 21 44  1  0  0  0
 22 23  1  0  0  0
 23 24  1  0  0  0
M  END
> <s_m_entry_id>
30609

> <s_m_entry_name>
ligand_docking-pose.39

> <s_m_Source_Path>
/home/csk/Desktop/cluster/DUD-E-result/rock1

> <s_m_Source_File>
ligand_docking-pose.sdf

> <i_m_Source_File_Index>
39

> <i_lp_mmshare_version>
53161

> <i_f3d_flags>
0

> <r_lp_tautomer_probability>
0.983170504884488

> <s_lp_Force_Field>
OPLS_2005

> <r_lp_Energy>
20.09675

> <b_lp_Chiralities_Consistent>
1

> <s_lp_Variant>
375514-2

> <s_i_glide_gridfile>
glide-grid_2etr

> <i_i_glide_lignum>
173

> <i_i_glide_rotatable_bonds>
4

> <r_i_docking_score>
-7.52870568093811

> <r_i_glide_ligand_efficiency>
-0.327335029606005

> <r_i_glide_ligand_efficiency_sa>
-0.930897281072311

> <r_i_glide_ligand_efficiency_ln>
-1.82050930017964

> <r_i_glide_gscore>
-7.52870568093811

> <r_i_glide_lipo>
-3.05445355680463

> <r_i_glide_hbond>
-0.233773582640809

> <r_i_glide_metal>
0

> <r_i_glide_rewards>
-2.30435214112478

> <r_i_glide_evdw>
-43.2009162902832

> <r_i_glide_ecoul>
-3.72428607940674

> <r_i_glide_erotb>
0.782562326057271

> <r_i_glide_esite>
0

> <r_i_glide_emodel>
-64.5019043867389

> <r_i_glide_energy>
-46.9252023696899

> <r_i_glide_einternal>
8.29582214355469

> <i_i_glide_confnum>
44

> <i_i_glide_posenum>
282

> <r_i_glide_eff_state_penalty>
0

> <s_user_duplicate_titles>
375514

> <s_m_subgroup_title>
dock_pv

> <s_m_subgroupid>
dock_pv1

> <b_m_subgroup_collapsed>
0

$$$$
375614
                    3D
 Schrodinger Suite 2021-1.
 45 48  0  0  1  0            999 V2000
   50.5312  100.9489   35.2833 C   0  0  0  0  0  0
   49.3494  101.6218   35.6018 C   0  0  0  0  0  0
   49.2181  102.9797   35.3112 C   0  0  0  0  0  0
   50.2699  103.6640   34.6982 C   0  0  0  0  0  0
   51.4476  102.9907   34.3723 C   0  0  0  0  0  0
   51.5886  101.6302   34.6693 C   0  0  0  0  0  0
   52.8967  100.9113   34.3526 C   0  0  0  0  0  0
   53.0379  100.5712   32.9328 N   0  0  1  0  0  0
   54.4451  100.2670   32.6179 C   0  0  0  0  0  0
   54.6554   99.8385   31.1483 C   0  0  0  0  0  0
   53.6848   98.7210   30.7164 C   0  0  0  0  0  0
   52.2149   99.0795   31.0421 C   0  0  1  0  0  0
   52.1687   99.4389   32.5527 C   0  0  0  0  0  0
   51.8313  100.2639   30.2695 N   0  0  0  0  0  0
   51.4152  100.2179   28.9310 C   0  0  0  0  0  0
   51.1346  101.4362   28.3092 C   0  0  0  0  0  0
   50.6607  101.5195   26.9987 C   0  0  0  0  0  0
   50.4829  100.3154   26.3185 C   0  0  0  0  0  0
   50.7654   99.0636   26.9172 C   0  0  0  0  0  0
   51.2431   99.0151   28.2337 C   0  0  0  0  0  0
   50.4441   98.1133   25.9059 C   0  0  0  0  0  0
   50.0377   98.7031   24.8113 N   0  0  0  0  0  0
   50.0434  100.0239   25.0439 N   0  0  0  0  0  0
   50.1504  104.9813   34.4146 F   0  0  0  0  0  0
   48.0714  103.6272   35.6251 F   0  0  0  0  0  0
   49.7493  100.6665   24.3199 H   0  0  0  0  0  0
   50.6277   99.9015   35.5229 H   0  0  0  0  0  0
   48.5348  101.1001   36.0833 H   0  0  0  0  0  0
   52.2561  103.5319   33.8998 H   0  0  0  0  0  0
   53.7060  101.5801   34.6540 H   0  0  0  0  0  0
   53.0020  100.0221   34.9792 H   0  0  0  0  0  0
   55.0530  101.1505   32.8245 H   0  0  0  0  0  0
   54.8107   99.4830   33.2840 H   0  0  0  0  0  0
   54.5775  100.7098   30.4964 H   0  0  0  0  0  0
   55.6841   99.4949   31.0208 H   0  0  0  0  0  0
   53.8035   98.5221   29.6507 H   0  0  0  0  0  0
   53.9485   97.7901   31.2241 H   0  0  0  0  0  0
   51.5531   98.2383   30.8282 H   0  0  0  0  0  0
   52.4059   98.5634   33.1600 H   0  0  0  0  0  0
   51.1370   99.6900   32.8002 H   0  0  0  0  0  0
   52.2766  101.1151   30.5864 H   0  0  0  0  0  0
   51.2763  102.3533   28.8607 H   0  0  0  0  0  0
   50.4416  102.4724   26.5406 H   0  0  0  0  0  0
   51.4547   98.0618   28.6874 H   0  0  0  0  0  0
   50.5178   97.0382   25.9707 H   0  0  0  0  0  0
  1  6  1  0  0  0
  1  2  2  0  0  0
  1 27  1  0  0  0
  2  3  1  0  0  0
  2 28  1  0  0  0
  3  4  2  0  0  0
  3 25  1  0  0  0
  4  5  1  0  0  0
  4 24  1  0  0  0
  5  6  2  0  0  0
  5 29  1  0  0  0
  6  7  1  0  0  0
  7  8  1  0  0  0
  7 30  1  0  0  0
  7 31  1  0  0  0
  8 13  1  0  0  0
  8  9  1  0  0  0
  9 10  1  0  0  0
  9 32  1  0  0  0
  9 33  1  0  0  0
 10 11  1  0  0  0
 10 34  1  0  0  0
 10 35  1  0  0  0
 11 12  1  0  0  0
 11 36  1  0  0  0
 11 37  1  0  0  0
 12 13  1  0  0  0
 12 14  1  0  0  0
 12 38  1  0  0  0
 13 39  1  0  0  0
 13 40  1  0  0  0
 14 15  1  0  0  0
 14 41  1  0  0  0
 15 20  1  0  0  0
 15 16  2  0  0  0
 16 17  1  0  0  0
 16 42  1  0  0  0
 17 18  2  0  0  0
 17 43  1  0  0  0
 18 23  1  0  0  0
 18 19  1  0  0  0
 19 20  2  0  0  0
 19 21  1  0  0  0
 20 44  1  0  0  0
 21 22  2  0  0  0
 21 45  1  0  0  0
 22 23  1  0  0  0
 23 26  1  0  0  0
M  END
> <s_m_entry_id>
30610

> <s_m_entry_name>
ligand_docking-pose.40

> <s_m_Source_Path>
/home/csk/Desktop/cluster/DUD-E-result/rock1

> <s_m_Source_File>
ligand_docking-pose.sdf

> <i_m_Source_File_Index>
40

> <i_lp_mmshare_version>
53161

> <i_f3d_flags>
0

> <r_lp_tautomer_probability>
0.983170504884488

> <s_lp_Force_Field>
OPLS_2005

> <r_lp_Energy>
22.183992

> <b_lp_Chiralities_Consistent>
1

> <s_lp_Variant>
375614-1

> <s_i_glide_gridfile>
glide-grid_2etr

> <i_i_glide_lignum>
117

> <i_i_glide_rotatable_bonds>
4

> <r_i_docking_score>
-7.50604555986125

> <r_i_glide_ligand_efficiency>
-0.30024182239445

> <r_i_glide_ligand_efficiency_sa>
-0.877912413492765

> <r_i_glide_ligand_efficiency_ln>
-1.77915773572116

> <r_i_glide_gscore>
-7.50604555986125

> <r_i_glide_lipo>
-2.85713758342046

> <r_i_glide_hbond>
-0.198239369215314

> <r_i_glide_metal>
0

> <r_i_glide_rewards>
-2.45997739114164

> <r_i_glide_evdw>
-42.4056625366211

> <r_i_glide_ecoul>
-3.16420269012451

> <r_i_glide_erotb>
0.647007573615104

> <r_i_glide_esite>
-0.042785259349214

> <r_i_glide_emodel>
-64.0894086800818

> <r_i_glide_energy>
-45.5698652267456

> <r_i_glide_einternal>
4.1614465713501

> <i_i_glide_confnum>
49

> <i_i_glide_posenum>
153

> <r_i_glide_eff_state_penalty>
0

> <s_user_duplicate_titles>
375614

> <s_m_subgroup_title>
dock_pv

> <s_m_subgroupid>
dock_pv1

> <b_m_subgroup_collapsed>
0

$$$$
519960
                    3D
 Schrodinger Suite 2021-1.
 38 40  0  0  1  0            999 V2000
   52.8438  100.0576   29.5719 C   0  0  0  0  0  0
   53.6131  100.0843   30.7335 C   0  0  0  0  0  0
   53.3368   99.1906   31.7687 C   0  0  0  0  0  0
   52.2655   98.3081   31.6499 C   0  0  0  0  0  0
   51.5130   98.2739   30.4803 C   0  0  0  0  0  0
   51.8180   99.1223   29.4074 C   0  0  0  0  0  0
   51.1456   98.9515   28.0841 C   0  0  0  0  0  0
   50.8434   97.6680   27.6218 C   0  0  0  0  0  0
   50.3255   97.4660   26.3472 C   0  0  0  0  0  0
   50.0428   98.4485   25.4636 N   0  0  0  0  0  0
   50.2890   99.6737   25.9232 C   0  0  0  0  0  0
   50.8283  100.0140   27.2053 C   0  0  0  0  0  0
   50.9019  101.4464   27.2360 C   0  0  0  0  0  0
   50.4432  101.9008   26.0143 C   0  0  0  0  0  0
   50.0700  100.8357   25.2317 N   0  0  0  0  0  0
   54.3565   99.1927   33.2500 S   0  0  0  0  0  0
   53.5189   98.7056   34.3533 O   0  0  0  0  0  0
   54.9876  100.5148   33.3179 O   0  0  0  0  0  0
   55.6394   98.0101   32.9723 N   0  0  3  0  0  0
   55.5228   96.5882   33.3775 C   0  0  0  0  0  0
   54.4646   95.8078   32.5846 C   0  0  0  0  0  0
   54.4459   94.4052   32.9692 N   0  0  0  0  0  0
   49.6935  100.9322   24.2982 H   0  0  0  0  0  0
   53.1031  100.7266   28.7669 H   0  0  0  0  0  0
   54.4372  100.7811   30.8129 H   0  0  0  0  0  0
   52.0314   97.6292   32.4525 H   0  0  0  0  0  0
   50.7155   97.5498   30.3985 H   0  0  0  0  0  0
   51.0724   96.8093   28.2335 H   0  0  0  0  0  0
   50.1416   96.4569   26.0113 H   0  0  0  0  0  0
   51.2501  102.0733   28.0436 H   0  0  0  0  0  0
   50.3356  102.9105   25.6431 H   0  0  0  0  0  0
   56.3588   98.2408   32.2712 H   0  0  0  0  0  0
   55.2945   96.5594   34.4438 H   0  0  0  0  0  0
   56.5081   96.1313   33.2671 H   0  0  0  0  0  0
   54.6304   95.9021   31.5097 H   0  0  0  0  0  0
   53.4803   96.2097   32.8047 H   0  0  0  0  0  0
   54.5706   94.3171   33.9696 H   0  0  0  0  0  0
   53.5248   94.0327   32.7747 H   0  0  0  0  0  0
  1  6  1  0  0  0
  1  2  2  0  0  0
  1 24  1  0  0  0
  2  3  1  0  0  0
  2 25  1  0  0  0
  3  4  2  0  0  0
  3 16  1  0  0  0
  4  5  1  0  0  0
  4 26  1  0  0  0
  5  6  2  0  0  0
  5 27  1  0  0  0
  6  7  1  0  0  0
  7 12  1  0  0  0
  7  8  2  0  0  0
  8  9  1  0  0  0
  8 28  1  0  0  0
  9 10  2  0  0  0
  9 29  1  0  0  0
 10 11  1  0  0  0
 11 15  1  0  0  0
 11 12  2  0  0  0
 12 13  1  0  0  0
 13 14  2  0  0  0
 13 30  1  0  0  0
 14 15  1  0  0  0
 14 31  1  0  0  0
 15 23  1  0  0  0
 16 17  2  0  0  0
 16 18  2  0  0  0
 16 19  1  0  0  0
 19 20  1  0  0  0
 19 32  1  0  0  0
 20 21  1  0  0  0
 20 33  1  0  0  0
 20 34  1  0  0  0
 21 22  1  0  0  0
 21 35  1  0  0  0
 21 36  1  0  0  0
 22 37  1  0  0  0
 22 38  1  0  0  0
M  END
> <s_m_entry_id>
30611

> <s_m_entry_name>
ligand_docking-pose.41

> <s_m_Source_Path>
/home/csk/Desktop/cluster/DUD-E-result/rock1

> <s_m_Source_File>
ligand_docking-pose.sdf

> <i_m_Source_File_Index>
41

> <i_lp_mmshare_version>
53161

> <i_f3d_flags>
0

> <r_lp_tautomer_probability>
0.999998432528457

> <s_lp_Force_Field>
OPLS_2005

> <r_lp_Energy>
7.642725

> <b_lp_Chiralities_Consistent>
1

> <s_lp_Variant>
519960-1

> <s_i_glide_gridfile>
glide-grid_2etr

> <i_i_glide_lignum>
48

> <i_i_glide_rotatable_bonds>
5

> <r_i_docking_score>
-7.4496330564727

> <r_i_glide_ligand_efficiency>
-0.338619684385123

> <r_i_glide_ligand_efficiency_sa>
-0.948825672803607

> <r_i_glide_ligand_efficiency_ln>
-1.82096205097

> <r_i_glide_gscore>
-7.4496330564727

> <r_i_glide_lipo>
-2.2239390739154

> <r_i_glide_hbond>
-0.165656132345488

> <r_i_glide_metal>
0

> <r_i_glide_rewards>
-2.96858415897669

> <r_i_glide_evdw>
-33.1475105285645

> <r_i_glide_ecoul>
-6.8458046913147

> <r_i_glide_erotb>
0.743925200408705

> <r_i_glide_esite>
-0.151132661518403

> <r_i_glide_emodel>
-57.1696616650961

> <r_i_glide_energy>
-39.9933152198792

> <r_i_glide_einternal>
3.84663200378418

> <i_i_glide_confnum>
53

> <i_i_glide_posenum>
102

> <r_i_glide_eff_state_penalty>
0

> <s_user_duplicate_titles>
519960

> <s_m_subgroup_title>
dock_pv

> <s_m_subgroupid>
dock_pv1

> <b_m_subgroup_collapsed>
0

$$$$
375598
                    3D
 Schrodinger Suite 2021-1.
 45 48  0  0  1  0            999 V2000
   48.8430  101.8266   35.6105 C   0  0  0  0  0  0
   49.0374  103.0009   36.3321 C   0  0  0  0  0  0
   50.3290  103.4027   36.6621 C   0  0  0  0  0  0
   51.4303  102.6364   36.2703 C   0  0  0  0  0  0
   51.2447  101.4590   35.5211 C   0  0  0  0  0  0
   49.9370  101.0614   35.2104 C   0  0  0  0  0  0
   52.4503  100.6113   35.0835 C   0  0  0  0  0  0
   52.2508   99.8022   33.8674 N   0  0  2  0  0  0
   53.3304   98.8035   33.7605 C   0  0  0  0  0  0
   53.2871   97.9923   32.4467 C   0  0  0  0  0  0
   53.2359   98.9002   31.2079 C   0  0  0  0  0  0
   52.0383   99.8618   31.3493 C   0  0  1  0  0  0
   52.1883  100.6625   32.6691 C   0  0  0  0  0  0
   52.0154  100.8233   30.2433 N   0  0  0  0  0  0
   51.5404  100.5161   28.9552 C   0  0  0  0  0  0
   51.3342  101.5968   28.0945 C   0  0  0  0  0  0
   50.8430  101.4495   26.7951 C   0  0  0  0  0  0
   50.5855  100.1463   26.3703 C   0  0  0  0  0  0
   50.7913   99.0248   27.2108 C   0  0  0  0  0  0
   51.2528   99.2157   28.5211 C   0  0  0  0  0  0
   50.4284   97.9110   26.3999 C   0  0  0  0  0  0
   50.0430   98.2919   25.2110 N   0  0  0  0  0  0
   50.1167   99.6322   25.1777 N   0  0  0  0  0  0
   53.0055  103.1776   36.7395 Cl  0  0  0  0  0  0
   49.8486  100.1368   24.3419 H   0  0  0  0  0  0
   47.8432  101.5052   35.3593 H   0  0  0  0  0  0
   48.1862  103.5881   36.6451 H   0  0  0  0  0  0
   50.4781  104.3084   37.2309 H   0  0  0  0  0  0
   49.7660  100.1508   34.6545 H   0  0  0  0  0  0
   53.3112  101.2608   34.9132 H   0  0  0  0  0  0
   52.7045   99.9673   35.9279 H   0  0  0  0  0  0
   54.2963   99.3093   33.8321 H   0  0  0  0  0  0
   53.2774   98.1283   34.6161 H   0  0  0  0  0  0
   54.1726   97.3572   32.3923 H   0  0  0  0  0  0
   52.4437   97.3000   32.4654 H   0  0  0  0  0  0
   54.1680   99.4630   31.1266 H   0  0  0  0  0  0
   53.1824   98.2869   30.3112 H   0  0  0  0  0  0
   51.1056   99.2957   31.3522 H   0  0  0  0  0  0
   51.3511  101.3532   32.7695 H   0  0  0  0  0  0
   53.0809  101.2896   32.6228 H   0  0  0  0  0  0
   51.8181  101.7705   30.5180 H   0  0  0  0  0  0
   51.5605  102.5945   28.4412 H   0  0  0  0  0  0
   50.6815  102.3044   26.1547 H   0  0  0  0  0  0
   51.3763   98.3652   29.1690 H   0  0  0  0  0  0
   50.4506   96.8655   26.6687 H   0  0  0  0  0  0
  1  6  1  0  0  0
  1  2  2  0  0  0
  1 26  1  0  0  0
  2  3  1  0  0  0
  2 27  1  0  0  0
  3  4  2  0  0  0
  3 28  1  0  0  0
  4  5  1  0  0  0
  4 24  1  0  0  0
  5  6  2  0  0  0
  5  7  1  0  0  0
  6 29  1  0  0  0
  7  8  1  0  0  0
  7 30  1  0  0  0
  7 31  1  0  0  0
  8 13  1  0  0  0
  8  9  1  0  0  0
  9 10  1  0  0  0
  9 32  1  0  0  0
  9 33  1  0  0  0
 10 11  1  0  0  0
 10 34  1  0  0  0
 10 35  1  0  0  0
 11 12  1  0  0  0
 11 36  1  0  0  0
 11 37  1  0  0  0
 12 13  1  0  0  0
 12 14  1  0  0  0
 12 38  1  0  0  0
 13 39  1  0  0  0
 13 40  1  0  0  0
 14 15  1  0  0  0
 14 41  1  0  0  0
 15 20  1  0  0  0
 15 16  2  0  0  0
 16 17  1  0  0  0
 16 42  1  0  0  0
 17 18  2  0  0  0
 17 43  1  0  0  0
 18 23  1  0  0  0
 18 19  1  0  0  0
 19 20  2  0  0  0
 19 21  1  0  0  0
 20 44  1  0  0  0
 21 22  2  0  0  0
 21 45  1  0  0  0
 22 23  1  0  0  0
 23 25  1  0  0  0
M  END
> <s_m_entry_id>
30612

> <s_m_entry_name>
ligand_docking-pose.42

> <s_m_Source_Path>
/home/csk/Desktop/cluster/DUD-E-result/rock1

> <s_m_Source_File>
ligand_docking-pose.sdf

> <i_m_Source_File_Index>
42

> <i_lp_mmshare_version>
53161

> <i_f3d_flags>
0

> <r_lp_tautomer_probability>
0.983170504884488

> <s_lp_Force_Field>
OPLS_2005

> <r_lp_Energy>
23.740493

> <b_lp_Chiralities_Consistent>
1

> <s_lp_Variant>
375598-1

> <s_i_glide_gridfile>
glide-grid_2etr

> <i_i_glide_lignum>
109

> <i_i_glide_rotatable_bonds>
4

> <r_i_docking_score>
-7.44658598806335

> <r_i_glide_ligand_efficiency>
-0.310274416169306

> <r_i_glide_ligand_efficiency_sa>
-0.894986285847023

> <r_i_glide_ligand_efficiency_ln>
-1.78230972850898

> <r_i_glide_gscore>
-7.44658598806335

> <r_i_glide_lipo>
-3.33062705940525

> <r_i_glide_hbond>
-0.241005326093072

> <r_i_glide_metal>
0

> <r_i_glide_rewards>
-2.12162016967155

> <r_i_glide_evdw>
-43.2169990539551

> <r_i_glide_ecoul>
-1.63114488124847

> <r_i_glide_erotb>
0.652188251991547

> <r_i_glide_esite>
0

> <r_i_glide_emodel>
-62.4276767810732

> <r_i_glide_energy>
-44.8481439352036

> <r_i_glide_einternal>
4.72483444213867

> <i_i_glide_confnum>
12

> <i_i_glide_posenum>
5

> <r_i_glide_eff_state_penalty>
0

> <s_user_duplicate_titles>
375598

> <s_m_subgroup_title>
dock_pv

> <s_m_subgroupid>
dock_pv1

> <b_m_subgroup_collapsed>
0

$$$$
376385
                    3D
 Schrodinger Suite 2021-1.
 44 47  0  0  1  0            999 V2000
   50.8263  105.8830   35.2072 C   0  0  0  0  0  0
   51.6873  105.0980   34.4394 C   0  0  0  0  0  0
   51.3252  103.7979   34.0706 C   0  0  0  0  0  0
   50.0751  103.3012   34.4524 C   0  0  0  0  0  0
   49.2105  104.0915   35.2111 C   0  0  0  0  0  0
   49.5870  105.3792   35.5971 C   0  0  0  0  0  0
   47.6433  103.5028   35.6109 Cl  0  0  0  0  0  0
   52.2693  102.9579   33.2234 C   0  0  0  0  0  0
   52.3359  103.4154   31.8337 N   0  0  1  0  0  0
   53.5282  102.9175   31.1578 C   0  0  0  0  0  0
   53.2701  103.1133   29.6655 C   0  0  0  0  0  0
   51.7428  103.2197   29.5298 C   0  0  2  0  0  0
   51.2447  102.9828   30.9682 C   0  0  0  0  0  0
   51.1776  102.3354   28.5030 N   0  0  0  0  0  0
   51.2881  100.9296   28.4178 C   0  0  0  0  0  0
   51.7960  100.1507   29.4674 C   0  0  0  0  0  0
   51.7516   98.7633   29.4374 C   0  0  0  0  0  0
   51.2431   98.1021   28.3304 C   0  0  0  0  0  0
   50.8309   98.8313   27.2002 C   0  0  0  0  0  0
   50.8373  100.2614   27.2321 C   0  0  0  0  0  0
   50.4091  100.9466   26.0524 C   0  0  0  0  0  0
   50.0354  100.2077   24.9293 C   0  0  0  0  0  0
   50.0423   98.8558   24.8877 N   0  0  0  0  0  0
   50.4146   98.2005   26.0075 C   0  0  0  0  0  0
   51.1152  106.8875   35.4806 H   0  0  0  0  0  0
   52.6388  105.5012   34.1204 H   0  0  0  0  0  0
   49.7756  102.3057   34.1584 H   0  0  0  0  0  0
   48.9117  105.9912   36.1762 H   0  0  0  0  0  0
   53.2587  103.0256   33.6808 H   0  0  0  0  0  0
   51.9778  101.9064   33.2561 H   0  0  0  0  0  0
   54.3925  103.4899   31.5028 H   0  0  0  0  0  0
   53.7631  101.8797   31.4078 H   0  0  0  0  0  0
   53.7490  104.0316   29.3210 H   0  0  0  0  0  0
   53.7029  102.3022   29.0830 H   0  0  0  0  0  0
   51.5317  104.2612   29.2773 H   0  0  0  0  0  0
   50.9565  101.9546   31.1755 H   0  0  0  0  0  0
   50.3166  103.5028   31.1772 H   0  0  0  0  0  0
   50.3098  102.6727   28.1111 H   0  0  0  0  0  0
   52.2221  100.5984   30.3470 H   0  0  0  0  0  0
   52.1201   98.1963   30.2799 H   0  0  0  0  0  0
   51.2233   97.0245   28.3091 H   0  0  0  0  0  0
   50.3957  102.0260   26.0169 H   0  0  0  0  0  0
   49.7164  100.7013   24.0207 H   0  0  0  0  0  0
   50.4103   97.1213   25.9523 H   0  0  0  0  0  0
  1  6  1  0  0  0
  1  2  2  0  0  0
  1 25  1  0  0  0
  2  3  1  0  0  0
  2 26  1  0  0  0
  3  4  2  0  0  0
  3  8  1  0  0  0
  4  5  1  0  0  0
  4 27  1  0  0  0
  5  6  2  0  0  0
  5  7  1  0  0  0
  6 28  1  0  0  0
  8  9  1  0  0  0
  8 29  1  0  0  0
  8 30  1  0  0  0
  9 13  1  0  0  0
  9 10  1  0  0  0
 10 11  1  0  0  0
 10 31  1  0  0  0
 10 32  1  0  0  0
 11 12  1  0  0  0
 11 33  1  0  0  0
 11 34  1  0  0  0
 12 13  1  0  0  0
 12 14  1  0  0  0
 12 35  1  0  0  0
 13 36  1  0  0  0
 13 37  1  0  0  0
 14 15  1  0  0  0
 14 38  1  0  0  0
 15 20  1  0  0  0
 15 16  2  0  0  0
 16 17  1  0  0  0
 16 39  1  0  0  0
 17 18  2  0  0  0
 17 40  1  0  0  0
 18 19  1  0  0  0
 18 41  1  0  0  0
 19 24  2  0  0  0
 19 20  1  0  0  0
 20 21  2  0  0  0
 21 22  1  0  0  0
 21 42  1  0  0  0
 22 23  2  0  0  0
 22 43  1  0  0  0
 23 24  1  0  0  0
 24 44  1  0  0  0
M  END
> <s_m_entry_id>
30613

> <s_m_entry_name>
ligand_docking-pose.43

> <s_m_Source_Path>
/home/csk/Desktop/cluster/DUD-E-result/rock1

> <s_m_Source_File>
ligand_docking-pose.sdf

> <i_m_Source_File_Index>
43

> <i_lp_mmshare_version>
53161

> <i_f3d_flags>
0

> <r_lp_tautomer_probability>
1

> <s_lp_Force_Field>
OPLS_2005

> <r_lp_Energy>
37.213102

> <b_lp_Chiralities_Consistent>
1

> <s_lp_Variant>
376385-2

> <s_i_glide_gridfile>
glide-grid_2etr

> <i_i_glide_lignum>
62

> <i_i_glide_rotatable_bonds>
4

> <r_i_docking_score>
-7.39650056333512

> <r_i_glide_ligand_efficiency>
-0.308187523472297

> <r_i_glide_ligand_efficiency_sa>
-0.88896664566232

> <r_i_glide_ligand_efficiency_ln>
-1.77032198810113

> <r_i_glide_gscore>
-7.39650056333512

> <r_i_glide_lipo>
-2.96431601433107

> <r_i_glide_hbond>
-0.0959451089703252

> <r_i_glide_metal>
0

> <r_i_glide_rewards>
-2.49726484848485

> <r_i_glide_evdw>
-44.2526054382324

> <r_i_glide_ecoul>
-1.92563831806183

> <r_i_glide_erotb>
0.662501428072015

> <r_i_glide_esite>
0

> <r_i_glide_emodel>
-64.3959666805496

> <r_i_glide_energy>
-46.1782437562943

> <r_i_glide_einternal>
4.96354293823242

> <i_i_glide_confnum>
21

> <i_i_glide_posenum>
300

> <r_i_glide_eff_state_penalty>
0

> <s_user_duplicate_titles>
376385

> <s_m_subgroup_title>
dock_pv

> <s_m_subgroupid>
dock_pv1

> <b_m_subgroup_collapsed>
0

$$$$
376260
                    3D
 Schrodinger Suite 2021-1.
 46 49  0  0  1  0            999 V2000
   50.8376  102.0967   28.1580 C   0  0  0  0  0  0
   50.4464  101.5912   26.9241 C   0  0  0  0  0  0
   50.4545  100.1974   26.6976 C   0  0  0  0  0  0
   50.0530   99.6287   25.4686 C   0  0  0  0  0  0
   50.0429   98.3030   25.2110 N   0  0  0  0  0  0
   50.4429   97.4725   26.1992 C   0  0  0  0  0  0
   50.8496   97.9055   27.4588 C   0  0  0  0  0  0
   50.8719   99.3061   27.7368 C   0  0  0  0  0  0
   51.2835   99.8557   28.9930 C   0  0  0  0  0  0
   51.2420  101.2411   29.1760 C   0  0  0  0  0  0
   51.6449   99.0371   30.0756 N   0  0  0  0  0  0
   53.0664   98.9514   30.4307 C   0  0  2  0  0  0
   53.3303   97.7045   31.2947 C   0  0  0  0  0  0
   53.5815   98.2301   32.7141 C   0  0  0  0  0  0
   53.1368   99.6179   32.7166 N   0  0  2  0  0  0
   53.5264  100.0695   31.3838 C   0  0  0  0  0  0
   53.7182  100.4039   33.8065 C   0  0  0  0  0  0
   53.0446  101.7632   33.9499 C   0  0  0  0  0  0
   51.8754  101.8847   34.7077 C   0  0  0  0  0  0
   51.2707  103.1302   34.8632 C   0  0  0  0  0  0
   51.8319  104.2502   34.2490 C   0  0  0  0  0  0
   52.9871  104.1320   33.4768 C   0  0  0  0  0  0
   53.5976  102.8887   33.3307 C   0  0  0  0  0  0
   51.2431  105.5024   34.4110 N   0  0  0  0  0  0
   50.8139  103.1622   28.3343 H   0  0  0  0  0  0
   50.1264  102.2595   26.1373 H   0  0  0  0  0  0
   49.7308  100.2723   24.6621 H   0  0  0  0  0  0
   50.4423   96.4173   25.9664 H   0  0  0  0  0  0
   51.1625   97.1914   28.2069 H   0  0  0  0  0  0
   51.4945  101.6696   30.1328 H   0  0  0  0  0  0
   51.1793   98.1421   30.1079 H   0  0  0  0  0  0
   53.7149   98.9771   29.5535 H   0  0  0  0  0  0
   54.2068   97.1685   30.9274 H   0  0  0  0  0  0
   52.4952   97.0018   31.2895 H   0  0  0  0  0  0
   54.6340   98.1347   32.9908 H   0  0  0  0  0  0
   53.0308   97.6657   33.4692 H   0  0  0  0  0  0
   53.1799  101.0744   31.1560 H   0  0  0  0  0  0
   54.6186  100.1420   31.4128 H   0  0  0  0  0  0
   54.7955  100.5272   33.6720 H   0  0  0  0  0  0
   53.5914   99.8634   34.7451 H   0  0  0  0  0  0
   51.4400  101.0143   35.1787 H   0  0  0  0  0  0
   50.3703  103.2205   35.4554 H   0  0  0  0  0  0
   53.4218  105.0015   33.0013 H   0  0  0  0  0  0
   54.4989  102.8025   32.7387 H   0  0  0  0  0  0
   50.6814  105.6519   35.2370 H   0  0  0  0  0  0
   51.7750  106.2825   34.0290 H   0  0  0  0  0  0
  1 10  1  0  0  0
  1  2  2  0  0  0
  1 25  1  0  0  0
  2  3  1  0  0  0
  2 26  1  0  0  0
  3  8  2  0  0  0
  3  4  1  0  0  0
  4  5  2  0  0  0
  4 27  1  0  0  0
  5  6  1  0  0  0
  6  7  2  0  0  0
  6 28  1  0  0  0
  7  8  1  0  0  0
  7 29  1  0  0  0
  8  9  1  0  0  0
  9 10  2  0  0  0
  9 11  1  0  0  0
 10 30  1  0  0  0
 11 12  1  0  0  0
 11 31  1  0  0  0
 12 16  1  0  0  0
 12 13  1  0  0  0
 12 32  1  0  0  0
 13 14  1  0  0  0
 13 33  1  0  0  0
 13 34  1  0  0  0
 14 15  1  0  0  0
 14 35  1  0  0  0
 14 36  1  0  0  0
 15 16  1  0  0  0
 15 17  1  0  0  0
 16 37  1  0  0  0
 16 38  1  0  0  0
 17 18  1  0  0  0
 17 39  1  0  0  0
 17 40  1  0  0  0
 18 23  1  0  0  0
 18 19  2  0  0  0
 19 20  1  0  0  0
 19 41  1  0  0  0
 20 21  2  0  0  0
 20 42  1  0  0  0
 21 22  1  0  0  0
 21 24  1  0  0  0
 22 23  2  0  0  0
 22 43  1  0  0  0
 23 44  1  0  0  0
 24 45  1  0  0  0
 24 46  1  0  0  0
M  END
> <s_m_entry_id>
30614

> <s_m_entry_name>
ligand_docking-pose.44

> <s_m_Source_Path>
/home/csk/Desktop/cluster/DUD-E-result/rock1

> <s_m_Source_File>
ligand_docking-pose.sdf

> <i_m_Source_File_Index>
44

> <i_lp_mmshare_version>
53161

> <i_f3d_flags>
0

> <r_lp_tautomer_probability>
1

> <s_lp_Force_Field>
OPLS_2005

> <r_lp_Energy>
36.684326

> <b_lp_Chiralities_Consistent>
1

> <s_lp_Variant>
376260-1

> <s_i_glide_gridfile>
glide-grid_2etr

> <i_i_glide_lignum>
27

> <i_i_glide_rotatable_bonds>
4

> <r_i_docking_score>
-7.37961370143118

> <r_i_glide_ligand_efficiency>
-0.307483904226299

> <r_i_glide_ligand_efficiency_sa>
-0.886937056554071

> <r_i_glide_ligand_efficiency_ln>
-1.76628018715992

> <r_i_glide_gscore>
-7.37961370143118

> <r_i_glide_lipo>
-2.462171645019

> <r_i_glide_hbond>
-0.355741411522209

> <r_i_glide_metal>
0

> <r_i_glide_rewards>
-2.4464096060606

> <r_i_glide_evdw>
-37.540111541748

> <r_i_glide_ecoul>
-6.01218175888062

> <r_i_glide_erotb>
0.735570255049727

> <r_i_glide_esite>
-0.0720284529595986

> <r_i_glide_emodel>
-59.6568564013879

> <r_i_glide_energy>
-43.5522933006287

> <r_i_glide_einternal>
8.04548645019531

> <i_i_glide_confnum>
61

> <i_i_glide_posenum>
331

> <r_i_glide_eff_state_penalty>
0

> <s_user_duplicate_titles>
376260

> <s_m_subgroup_title>
dock_pv

> <s_m_subgroupid>
dock_pv1

> <b_m_subgroup_collapsed>
0

$$$$
376242
                    3D
 Schrodinger Suite 2021-1.
 44 47  0  0  1  0            999 V2000
   50.4563  102.3505   27.6626 C   0  0  0  0  0  0
   50.2137  101.6605   26.4852 C   0  0  0  0  0  0
   50.3542  100.2628   26.4477 C   0  0  0  0  0  0
   50.0250   99.5104   25.2985 C   0  0  0  0  0  0
   50.0435   98.1638   25.2413 N   0  0  0  0  0  0
   50.4436   97.5031   26.3505 C   0  0  0  0  0  0
   50.8467   98.1344   27.5279 C   0  0  0  0  0  0
   50.8058   99.5590   27.6097 C   0  0  0  0  0  0
   51.1540  100.3019   28.7891 C   0  0  0  0  0  0
   50.9487  101.6897   28.7807 C   0  0  0  0  0  0
   51.6355   99.6486   29.9465 N   0  0  0  0  0  0
   52.0643  100.3756   31.1447 C   0  0  2  0  0  0
   53.4030  101.1165   30.9321 C   0  0  0  0  0  0
   54.4254  100.3432   31.7626 C   0  0  0  0  0  0
   53.6396   99.8835   32.8940 N   0  0  1  0  0  0
   52.3870   99.4223   32.3128 C   0  0  0  0  0  0
   54.2969   99.0587   33.9155 C   0  0  0  0  0  0
   54.3972   97.5625   33.6180 C   0  0  0  0  0  0
   53.6739   96.6548   34.3968 C   0  0  0  0  0  0
   53.7818   95.2871   34.1576 C   0  0  0  0  0  0
   54.6137   94.8309   33.1377 C   0  0  0  0  0  0
   55.3487   95.7255   32.3677 C   0  0  0  0  0  0
   55.2427   97.0905   32.6116 C   0  0  0  0  0  0
   54.7042   93.5075   32.8869 F   0  0  0  0  0  0
   50.3088  103.4200   27.6949 H   0  0  0  0  0  0
   49.8555  102.1854   25.6117 H   0  0  0  0  0  0
   49.6802  100.0176   24.4079 H   0  0  0  0  0  0
   50.4481   96.4248   26.2844 H   0  0  0  0  0  0
   51.1589   97.5450   28.3773 H   0  0  0  0  0  0
   51.1653  102.2860   29.6533 H   0  0  0  0  0  0
   51.9779   98.7047   29.8478 H   0  0  0  0  0  0
   51.2629  101.0332   31.4880 H   0  0  0  0  0  0
   53.3479  102.1513   31.2698 H   0  0  0  0  0  0
   53.7119  101.1539   29.8874 H   0  0  0  0  0  0
   55.2453  100.9662   32.1236 H   0  0  0  0  0  0
   54.9084   99.5309   31.2193 H   0  0  0  0  0  0
   52.4902   98.3900   31.9727 H   0  0  0  0  0  0
   51.5813   99.3341   33.0420 H   0  0  0  0  0  0
   53.7454   99.1950   34.8459 H   0  0  0  0  0  0
   55.2976   99.4480   34.1103 H   0  0  0  0  0  0
   53.0326   97.0042   35.1902 H   0  0  0  0  0  0
   53.2180   94.5813   34.7489 H   0  0  0  0  0  0
   56.0060   95.3656   31.5906 H   0  0  0  0  0  0
   55.8314   97.7752   32.0229 H   0  0  0  0  0  0
  1 10  1  0  0  0
  1  2  2  0  0  0
  1 25  1  0  0  0
  2  3  1  0  0  0
  2 26  1  0  0  0
  3  8  2  0  0  0
  3  4  1  0  0  0
  4  5  2  0  0  0
  4 27  1  0  0  0
  5  6  1  0  0  0
  6  7  2  0  0  0
  6 28  1  0  0  0
  7  8  1  0  0  0
  7 29  1  0  0  0
  8  9  1  0  0  0
  9 10  2  0  0  0
  9 11  1  0  0  0
 10 30  1  0  0  0
 11 12  1  0  0  0
 11 31  1  0  0  0
 12 16  1  0  0  0
 12 13  1  0  0  0
 12 32  1  0  0  0
 13 14  1  0  0  0
 13 33  1  0  0  0
 13 34  1  0  0  0
 14 15  1  0  0  0
 14 35  1  0  0  0
 14 36  1  0  0  0
 15 16  1  0  0  0
 15 17  1  0  0  0
 16 37  1  0  0  0
 16 38  1  0  0  0
 17 18  1  0  0  0
 17 39  1  0  0  0
 17 40  1  0  0  0
 18 23  1  0  0  0
 18 19  2  0  0  0
 19 20  1  0  0  0
 19 41  1  0  0  0
 20 21  2  0  0  0
 20 42  1  0  0  0
 21 22  1  0  0  0
 21 24  1  0  0  0
 22 23  2  0  0  0
 22 43  1  0  0  0
 23 44  1  0  0  0
M  END
> <s_m_entry_id>
30615

> <s_m_entry_name>
ligand_docking-pose.45

> <s_m_Source_Path>
/home/csk/Desktop/cluster/DUD-E-result/rock1

> <s_m_Source_File>
ligand_docking-pose.sdf

> <i_m_Source_File_Index>
45

> <i_lp_mmshare_version>
53161

> <i_f3d_flags>
0

> <r_lp_tautomer_probability>
1

> <s_lp_Force_Field>
OPLS_2005

> <r_lp_Energy>
36.703406

> <b_lp_Chiralities_Consistent>
1

> <s_lp_Variant>
376242-1

> <s_i_glide_gridfile>
glide-grid_2etr

> <i_i_glide_lignum>
23

> <i_i_glide_rotatable_bonds>
4

> <r_i_docking_score>
-7.35880243597126

> <r_i_glide_ligand_efficiency>
-0.306616768165469

> <r_i_glide_ligand_efficiency_sa>
-0.88443580333446

> <r_i_glide_ligand_efficiency_ln>
-1.76129909636861

> <r_i_glide_gscore>
-7.35880243597126

> <r_i_glide_lipo>
-2.67074903446232

> <r_i_glide_hbond>
-0.27498208695797

> <r_i_glide_metal>
0

> <r_i_glide_rewards>
-2.63445323712121

> <r_i_glide_evdw>
-35.8179817199707

> <r_i_glide_ecoul>
-4.24065685272217

> <r_i_glide_erotb>
0.7236130445317

> <r_i_glide_esite>
-0.0752335080545909

> <r_i_glide_emodel>
-53.7574692188904

> <r_i_glide_energy>
-40.0586385726929

> <r_i_glide_einternal>
8.05642700195312

> <i_i_glide_confnum>
6

> <i_i_glide_posenum>
159

> <r_i_glide_eff_state_penalty>
0

> <s_user_duplicate_titles>
376242

> <s_m_subgroup_title>
dock_pv

> <s_m_subgroupid>
dock_pv1

> <b_m_subgroup_collapsed>
0

$$$$
375530
                    3D
 Schrodinger Suite 2021-1.
 42 45  0  0  1  0            999 V2000
   51.1107  101.6820   28.1088 C   0  0  0  0  0  0
   50.5968  101.5025   26.8226 C   0  0  0  0  0  0
   50.4615  100.1872   26.3789 C   0  0  0  0  0  0
   50.8120   99.0814   27.1894 C   0  0  0  0  0  0
   51.3320   99.2980   28.4746 C   0  0  0  0  0  0
   51.4937  100.6156   28.9249 C   0  0  0  0  0  0
   52.0419  100.9429   30.1767 N   0  0  0  0  0  0
   52.6940   99.9963   31.0872 C   0  0  1  0  0  0
   54.0568  100.5642   31.5107 C   0  0  0  0  0  0
   53.8600  101.7788   32.4361 C   0  0  0  0  0  0
   52.9075  101.4710   33.6159 C   0  0  0  0  0  0
   51.6075  100.8953   33.2090 N   0  0  1  0  0  0
   51.8103   99.7182   32.3327 C   0  0  0  0  0  0
   50.8083  100.4870   34.3771 C   0  0  0  0  0  0
   50.2826  101.6293   35.2362 C   0  0  0  0  0  0
   48.9635  102.0987   35.3411 C   0  0  0  0  0  0
   48.9356  103.1169   36.2750 C   0  0  0  0  0  0
   50.1757  103.3071   36.7787 O   0  0  0  0  0  0
   50.9802  102.4064   36.1592 C   0  0  0  0  0  0
   50.5004   97.9493   26.3814 C   0  0  0  0  0  0
   50.0430   98.3040   25.2111 N   0  0  0  0  0  0
   50.0118   99.6474   25.1902 N   0  0  0  0  0  0
   49.6784  100.1353   24.3693 H   0  0  0  0  0  0
   51.2359  102.6927   28.4689 H   0  0  0  0  0  0
   50.3273  102.3437   26.2023 H   0  0  0  0  0  0
   51.5911   98.4511   29.0884 H   0  0  0  0  0  0
   52.0138  101.9014   30.4878 H   0  0  0  0  0  0
   52.8675   99.0453   30.5868 H   0  0  0  0  0  0
   54.6510  100.8435   30.6392 H   0  0  0  0  0  0
   54.6305   99.7941   32.0278 H   0  0  0  0  0  0
   53.4995  102.6484   31.8865 H   0  0  0  0  0  0
   54.8289  102.0842   32.8315 H   0  0  0  0  0  0
   52.7383  102.3891   34.1770 H   0  0  0  0  0  0
   53.4062  100.7828   34.3018 H   0  0  0  0  0  0
   52.2513   98.9033   32.9102 H   0  0  0  0  0  0
   50.8396   99.3471   32.0022 H   0  0  0  0  0  0
   51.3966   99.8030   34.9916 H   0  0  0  0  0  0
   49.9581   99.9008   34.0287 H   0  0  0  0  0  0
   48.1029  101.7225   34.8110 H   0  0  0  0  0  0
   48.1493  103.7401   36.6736 H   0  0  0  0  0  0
   52.0143  102.4188   36.4700 H   0  0  0  0  0  0
   50.6148   96.9087   26.6351 H   0  0  0  0  0  0
  1  6  1  0  0  0
  1  2  2  0  0  0
  1 24  1  0  0  0
  2  3  1  0  0  0
  2 25  1  0  0  0
  3 22  1  0  0  0
  3  4  2  0  0  0
  4  5  1  0  0  0
  4 20  1  0  0  0
  5  6  2  0  0  0
  5 26  1  0  0  0
  6  7  1  0  0  0
  7  8  1  0  0  0
  7 27  1  0  0  0
  8 13  1  0  0  0
  8  9  1  0  0  0
  8 28  1  0  0  0
  9 10  1  0  0  0
  9 29  1  0  0  0
  9 30  1  0  0  0
 10 11  1  0  0  0
 10 31  1  0  0  0
 10 32  1  0  0  0
 11 12  1  0  0  0
 11 33  1  0  0  0
 11 34  1  0  0  0
 12 13  1  0  0  0
 12 14  1  0  0  0
 13 35  1  0  0  0
 13 36  1  0  0  0
 14 15  1  0  0  0
 14 37  1  0  0  0
 14 38  1  0  0  0
 15 19  2  0  0  0
 15 16  1  0  0  0
 16 17  2  0  0  0
 16 39  1  0  0  0
 17 18  1  0  0  0
 17 40  1  0  0  0
 18 19  1  0  0  0
 19 41  1  0  0  0
 20 21  2  0  0  0
 20 42  1  0  0  0
 21 22  1  0  0  0
 22 23  1  0  0  0
M  END
> <s_m_entry_id>
30616

> <s_m_entry_name>
ligand_docking-pose.46

> <s_m_Source_Path>
/home/csk/Desktop/cluster/DUD-E-result/rock1

> <s_m_Source_File>
ligand_docking-pose.sdf

> <i_m_Source_File_Index>
46

> <i_lp_mmshare_version>
53161

> <i_f3d_flags>
0

> <r_lp_tautomer_probability>
0.983170504884488

> <s_lp_Force_Field>
OPLS_2005

> <r_lp_Energy>
19.377884

> <b_lp_Chiralities_Consistent>
1

> <s_lp_Variant>
375530-2

> <s_i_glide_gridfile>
glide-grid_2etr

> <i_i_glide_lignum>
6

> <i_i_glide_rotatable_bonds>
4

> <r_i_docking_score>
-7.31963110136002

> <r_i_glide_ligand_efficiency>
-0.332710504607273

> <r_i_glide_ligand_efficiency_sa>
-0.932267918671221

> <r_i_glide_ligand_efficiency_ln>
-1.78918483120393

> <r_i_glide_gscore>
-7.31963110136002

> <r_i_glide_lipo>
-3.16544964878003

> <r_i_glide_hbond>
-0.235555073773833

> <r_i_glide_metal>
0

> <r_i_glide_rewards>
-2.42502173868193

> <r_i_glide_evdw>
-39.4306640625

> <r_i_glide_ecoul>
-2.37551188468933

> <r_i_glide_erotb>
0.83425534570418

> <r_i_glide_esite>
0

> <r_i_glide_emodel>
-59.2712633607938

> <r_i_glide_energy>
-41.8061759471893

> <r_i_glide_einternal>
1.83644831180573

> <i_i_glide_confnum>
37

> <i_i_glide_posenum>
397

> <r_i_glide_eff_state_penalty>
0

> <s_user_duplicate_titles>
375530

> <s_m_subgroup_title>
dock_pv

> <s_m_subgroupid>
dock_pv1

> <b_m_subgroup_collapsed>
0

$$$$
375553
                    3D
 Schrodinger Suite 2021-1.
 44 47  0  0  1  0            999 V2000
   48.8274  104.9667   35.9048 C   0  0  0  0  0  0
   48.7945  103.5833   35.7380 C   0  0  0  0  0  0
   49.8582  102.9403   35.1082 C   0  0  0  0  0  0
   50.9537  103.6824   34.6544 C   0  0  0  0  0  0
   50.9711  105.0723   34.8110 C   0  0  0  0  0  0
   49.9085  105.7146   35.4408 C   0  0  0  0  0  0
   52.1242  102.9758   33.9759 C   0  0  0  0  0  0
   52.2342  103.2805   32.5432 N   0  0  2  0  0  0
   51.1285  102.7034   31.7703 C   0  0  0  0  0  0
   51.2375  103.1018   30.2843 C   0  0  0  0  0  0
   52.5484  102.5899   29.6698 C   0  0  0  0  0  0
   53.7172  103.1027   30.5289 C   0  0  0  0  0  0
   53.5381  102.8173   32.0352 C   0  0  0  0  0  0
   52.5300  101.1601   29.6276 O   0  0  0  0  0  0
   51.8446  100.4946   28.6249 C   0  0  0  0  0  0
   51.8221   99.1024   28.7147 C   0  0  0  0  0  0
   51.2287   98.3028   27.7362 C   0  0  0  0  0  0
   50.6355   98.9253   26.6297 C   0  0  0  0  0  0
   50.6062  100.3508   26.5478 C   0  0  0  0  0  0
   51.2006  101.1280   27.5489 C   0  0  0  0  0  0
   49.9075  100.6097   25.3447 C   0  0  0  0  0  0
   49.6427   99.3778   24.8111 N   0  0  0  0  0  0
   50.0447   98.3275   25.5487 N   0  0  0  0  0  0
   49.1649   99.2553   23.9251 H   0  0  0  0  0  0
   48.0075  105.4638   36.3992 H   0  0  0  0  0  0
   47.9521  103.0112   36.0991 H   0  0  0  0  0  0
   49.8357  101.8670   34.9854 H   0  0  0  0  0  0
   51.8106  105.6487   34.4472 H   0  0  0  0  0  0
   49.9265  106.7868   35.5730 H   0  0  0  0  0  0
   53.0344  103.2781   34.4976 H   0  0  0  0  0  0
   52.0376  101.8953   34.1110 H   0  0  0  0  0  0
   51.1546  101.6185   31.8881 H   0  0  0  0  0  0
   50.1685  103.0365   32.1651 H   0  0  0  0  0  0
   50.3768  102.7405   29.7224 H   0  0  0  0  0  0
   51.2167  104.1885   30.2057 H   0  0  0  0  0  0
   52.6925  103.0270   28.6841 H   0  0  0  0  0  0
   53.8411  104.1804   30.4069 H   0  0  0  0  0  0
   54.6548  102.6749   30.1741 H   0  0  0  0  0  0
   54.3362  103.3166   32.5874 H   0  0  0  0  0  0
   53.6557  101.7495   32.2307 H   0  0  0  0  0  0
   52.3061   98.6283   29.5565 H   0  0  0  0  0  0
   51.2415   97.2264   27.8257 H   0  0  0  0  0  0
   51.1698  102.2008   27.4584 H   0  0  0  0  0  0
   49.5936  101.5016   24.8288 H   0  0  0  0  0  0
  1  6  1  0  0  0
  1  2  2  0  0  0
  1 25  1  0  0  0
  2  3  1  0  0  0
  2 26  1  0  0  0
  3  4  2  0  0  0
  3 27  1  0  0  0
  4  5  1  0  0  0
  4  7  1  0  0  0
  5  6  2  0  0  0
  5 28  1  0  0  0
  6 29  1  0  0  0
  7  8  1  0  0  0
  7 30  1  0  0  0
  7 31  1  0  0  0
  8 13  1  0  0  0
  8  9  1  0  0  0
  9 10  1  0  0  0
  9 32  1  0  0  0
  9 33  1  0  0  0
 10 11  1  0  0  0
 10 34  1  0  0  0
 10 35  1  0  0  0
 11 12  1  0  0  0
 11 14  1  0  0  0
 11 36  1  0  0  0
 12 13  1  0  0  0
 12 37  1  0  0  0
 12 38  1  0  0  0
 13 39  1  0  0  0
 13 40  1  0  0  0
 14 15  1  0  0  0
 15 16  1  0  0  0
 15 20  2  0  0  0
 16 17  2  0  0  0
 16 41  1  0  0  0
 17 18  1  0  0  0
 17 42  1  0  0  0
 18 23  2  0  0  0
 18 19  1  0  0  0
 19 20  1  0  0  0
 19 21  2  0  0  0
 20 43  1  0  0  0
 21 22  1  0  0  0
 21 44  1  0  0  0
 22 24  1  0  0  0
 22 23  1  0  0  0
M  END
> <s_m_entry_id>
30617

> <s_m_entry_name>
ligand_docking-pose.47

> <s_m_Source_Path>
/home/csk/Desktop/cluster/DUD-E-result/rock1

> <s_m_Source_File>
ligand_docking-pose.sdf

> <i_m_Source_File_Index>
47

> <i_lp_mmshare_version>
53161

> <i_f3d_flags>
0

> <r_lp_tautomer_probability>
0.0196078431372549

> <s_lp_Force_Field>
OPLS_2005

> <r_lp_Energy>
42.931817

> <b_lp_Chiralities_Consistent>
1

> <s_lp_Variant>
375553-2

> <s_i_glide_gridfile>
glide-grid_2etr

> <i_i_glide_lignum>
139

> <i_i_glide_rotatable_bonds>
4

> <r_i_docking_score>
-7.30632052132692

> <r_i_glide_ligand_efficiency>
-0.31766610962291

> <r_i_glide_ligand_efficiency_sa>
-0.903400158830298

> <r_i_glide_ligand_efficiency_ln>
-1.76673455210851

> <r_i_glide_gscore>
-7.30632052132692

> <r_i_glide_lipo>
-2.70979876925442

> <r_i_glide_hbond>
-0.32

> <r_i_glide_metal>
0

> <r_i_glide_rewards>
-2.46320903557282

> <r_i_glide_evdw>
-41.562873840332

> <r_i_glide_ecoul>
-3.45164060592651

> <r_i_glide_erotb>
0.782577066405905

> <r_i_glide_esite>
0

> <r_i_glide_emodel>
-62.6986852643943

> <r_i_glide_energy>
-45.0145144462585

> <r_i_glide_einternal>
3.39714813232422

> <i_i_glide_confnum>
70

> <i_i_glide_posenum>
255

> <r_i_glide_eff_state_penalty>
0

> <s_user_duplicate_titles>
375553

> <s_m_subgroup_title>
dock_pv

> <s_m_subgroupid>
dock_pv1

> <b_m_subgroup_collapsed>
0

$$$$
375588
                    3D
 Schrodinger Suite 2021-1.
 45 48  0  0  1  0            999 V2000
   51.4878  103.2649   35.2590 C   0  0  0  0  0  0
   50.3143  104.0143   35.3075 C   0  0  0  0  0  0
   49.0941  103.3748   35.5188 C   0  0  0  0  0  0
   49.0332  101.9907   35.6535 C   0  0  0  0  0  0
   50.2059  101.2427   35.6099 C   0  0  0  0  0  0
   51.4388  101.8812   35.4452 C   0  0  0  0  0  0
   52.7247  101.0568   35.4242 C   0  0  0  0  0  0
   53.1251  100.5503   34.1068 N   0  0  2  0  0  0
   53.7167  101.5375   33.1966 C   0  0  0  0  0  0
   54.4009  100.8203   32.0090 C   0  0  0  0  0  0
   53.4663   99.8532   31.2483 C   0  0  0  0  0  0
   52.7906   98.9093   32.2730 C   0  0  0  0  0  0
   52.1576   99.6560   33.4648 C   0  0  0  0  0  0
   52.4803  100.6381   30.4975 N   0  0  0  0  0  0
   51.8939  100.1311   29.3221 C   0  0  0  0  0  0
   51.7700   98.7640   29.0423 C   0  0  0  0  0  0
   51.2183   98.3025   27.8477 C   0  0  0  0  0  0
   50.7874   99.2377   26.9002 C   0  0  0  0  0  0
   50.9045  100.6339   27.1756 C   0  0  0  0  0  0
   51.4447  101.0730   28.3933 C   0  0  0  0  0  0
   50.3923  101.2503   26.0107 C   0  0  0  0  0  0
   50.0245  100.2173   25.1820 N   0  0  0  0  0  0
   50.2401   98.9852   25.6710 N   0  0  0  0  0  0
   47.6443  104.3025   35.6207 Cl  0  0  0  0  0  0
   49.6146  100.3469   24.2652 H   0  0  0  0  0  0
   52.4352  103.7609   35.1033 H   0  0  0  0  0  0
   50.3560  105.0875   35.1964 H   0  0  0  0  0  0
   48.0822  101.5031   35.8117 H   0  0  0  0  0  0
   50.1585  100.1703   35.7296 H   0  0  0  0  0  0
   53.5426  101.6505   35.8358 H   0  0  0  0  0  0
   52.6011  100.1994   36.0881 H   0  0  0  0  0  0
   52.9651  102.2605   32.8765 H   0  0  0  0  0  0
   54.4803  102.0972   33.7391 H   0  0  0  0  0  0
   54.7885  101.5730   31.3207 H   0  0  0  0  0  0
   55.2945  100.2992   32.3575 H   0  0  0  0  0  0
   54.0717   99.2780   30.5438 H   0  0  0  0  0  0
   53.4994   98.1638   32.6367 H   0  0  0  0  0  0
   51.9993   98.3254   31.8095 H   0  0  0  0  0  0
   51.8565   98.9159   34.2063 H   0  0  0  0  0  0
   51.2579  100.2022   33.1768 H   0  0  0  0  0  0
   52.7891  101.5894   30.3691 H   0  0  0  0  0  0
   52.1225   98.0226   29.7384 H   0  0  0  0  0  0
   51.1404   97.2427   27.6552 H   0  0  0  0  0  0
   51.5367  102.1299   28.5940 H   0  0  0  0  0  0
   50.2510  102.2766   25.7079 H   0  0  0  0  0  0
  1  6  1  0  0  0
  1  2  2  0  0  0
  1 26  1  0  0  0
  2  3  1  0  0  0
  2 27  1  0  0  0
  3  4  2  0  0  0
  3 24  1  0  0  0
  4  5  1  0  0  0
  4 28  1  0  0  0
  5  6  2  0  0  0
  5 29  1  0  0  0
  6  7  1  0  0  0
  7  8  1  0  0  0
  7 30  1  0  0  0
  7 31  1  0  0  0
  8 13  1  0  0  0
  8  9  1  0  0  0
  9 10  1  0  0  0
  9 32  1  0  0  0
  9 33  1  0  0  0
 10 11  1  0  0  0
 10 34  1  0  0  0
 10 35  1  0  0  0
 11 12  1  0  0  0
 11 36  1  0  0  0
 11 14  1  0  0  0
 12 13  1  0  0  0
 12 37  1  0  0  0
 12 38  1  0  0  0
 13 39  1  0  0  0
 13 40  1  0  0  0
 14 15  1  0  0  0
 14 41  1  0  0  0
 15 20  2  0  0  0
 15 16  1  0  0  0
 16 17  2  0  0  0
 16 42  1  0  0  0
 17 18  1  0  0  0
 17 43  1  0  0  0
 18 23  2  0  0  0
 18 19  1  0  0  0
 19 20  1  0  0  0
 19 21  2  0  0  0
 20 44  1  0  0  0
 21 45  1  0  0  0
 21 22  1  0  0  0
 22 25  1  0  0  0
 22 23  1  0  0  0
M  END
> <s_m_entry_id>
30618

> <s_m_entry_name>
ligand_docking-pose.48

> <s_m_Source_Path>
/home/csk/Desktop/cluster/DUD-E-result/rock1

> <s_m_Source_File>
ligand_docking-pose.sdf

> <i_m_Source_File_Index>
48

> <i_lp_mmshare_version>
53161

> <i_f3d_flags>
0

> <r_lp_tautomer_probability>
0.0168294951151403

> <s_lp_Force_Field>
OPLS_2005

> <r_lp_Energy>
36.714292

> <b_lp_Chiralities_Consistent>
1

> <s_lp_Variant>
375588-2

> <s_i_glide_gridfile>
glide-grid_2etr

> <i_i_glide_lignum>
102

> <i_i_glide_rotatable_bonds>
4

> <r_i_docking_score>
-7.29362719168285

> <r_i_glide_ligand_efficiency>
-0.303901132986785

> <r_i_glide_ligand_efficiency_sa>
-0.876602556003622

> <r_i_glide_ligand_efficiency_ln>
-1.74569966971331

> <r_i_glide_gscore>
-7.29362719168285

> <r_i_glide_lipo>
-3.09782590728875

> <r_i_glide_hbond>
-0.0275626506173101

> <r_i_glide_metal>
0

> <r_i_glide_rewards>
-2.2085173770632

> <r_i_glide_evdw>
-42.8622016906738

> <r_i_glide_ecoul>
-3.12532949447632

> <r_i_glide_erotb>
0.652188251991547

> <r_i_glide_esite>
0

> <r_i_glide_emodel>
-58.898305626422

> <r_i_glide_energy>
-45.9875311851501

> <r_i_glide_einternal>
10.6467962265015

> <i_i_glide_confnum>
68

> <i_i_glide_posenum>
360

> <r_i_glide_eff_state_penalty>
0

> <s_user_duplicate_titles>
375588

> <s_m_subgroup_title>
dock_pv

> <s_m_subgroupid>
dock_pv1

> <b_m_subgroup_collapsed>
0

$$$$
375529
                    3D
 Schrodinger Suite 2021-1.
 42 45  0  0  1  0            999 V2000
   48.4170  104.3373   36.3236 C   0  0  0  0  0  0
   49.7369  103.9162   36.1503 C   0  0  0  0  0  0
   49.7180  102.8955   35.2092 C   0  0  0  0  0  0
   48.4374  102.6973   34.7939 O   0  0  0  0  0  0
   47.6456  103.5714   35.4649 C   0  0  0  0  0  0
   50.7770  102.0092   34.5855 C   0  0  0  0  0  0
   51.2168  102.5076   33.2742 N   0  0  1  0  0  0
   52.2997  103.5016   33.3950 C   0  0  0  0  0  0
   52.7839  104.0179   32.0187 C   0  0  0  0  0  0
   53.1057  102.8878   31.0195 C   0  0  0  0  0  0
   51.9264  101.9035   30.9830 C   0  0  2  0  0  0
   51.6408  101.3922   32.4141 C   0  0  0  0  0  0
   52.2412  100.7655   30.1235 N   0  0  0  0  0  0
   51.6756  100.5980   28.8516 C   0  0  0  0  0  0
   51.2209  101.6732   28.0750 C   0  0  0  0  0  0
   50.6403  101.5001   26.8176 C   0  0  0  0  0  0
   50.5072  100.1847   26.3669 C   0  0  0  0  0  0
   50.9584   99.0793   27.1273 C   0  0  0  0  0  0
   51.5687   99.2934   28.3725 C   0  0  0  0  0  0
   50.6158   97.9488   26.3316 C   0  0  0  0  0  0
   50.0441   98.3035   25.2110 N   0  0  0  0  0  0
   49.9809   99.6463   25.2100 N   0  0  0  0  0  0
   49.5654  100.1319   24.4269 H   0  0  0  0  0  0
   48.0579  105.1034   36.9887 H   0  0  0  0  0  0
   50.6089  104.3032   36.6559 H   0  0  0  0  0  0
   46.5889  103.5312   35.2383 H   0  0  0  0  0  0
   51.6288  101.8925   35.2584 H   0  0  0  0  0  0
   50.3517  101.0073   34.4897 H   0  0  0  0  0  0
   51.9398  104.3410   33.9910 H   0  0  0  0  0  0
   53.1389  103.0752   33.9504 H   0  0  0  0  0  0
   52.0426  104.7009   31.6123 H   0  0  0  0  0  0
   53.6710  104.6402   32.1568 H   0  0  0  0  0  0
   53.2966  103.3031   30.0298 H   0  0  0  0  0  0
   54.0230  102.3798   31.3222 H   0  0  0  0  0  0
   51.0449  102.4242   30.6073 H   0  0  0  0  0  0
   52.4987  100.8736   32.8470 H   0  0  0  0  0  0
   50.8436  100.6485   32.3758 H   0  0  0  0  0  0
   52.9850  100.1391   30.4082 H   0  0  0  0  0  0
   51.3332  102.6833   28.4296 H   0  0  0  0  0  0
   50.3099  102.3434   26.2283 H   0  0  0  0  0  0
   51.9078   98.4602   28.9684 H   0  0  0  0  0  0
   50.7829   96.9106   26.5606 H   0  0  0  0  0  0
  1  5  2  0  0  0
  1  2  1  0  0  0
  1 24  1  0  0  0
  2  3  2  0  0  0
  2 25  1  0  0  0
  3  4  1  0  0  0
  3  6  1  0  0  0
  4  5  1  0  0  0
  5 26  1  0  0  0
  6  7  1  0  0  0
  6 27  1  0  0  0
  6 28  1  0  0  0
  7 12  1  0  0  0
  7  8  1  0  0  0
  8  9  1  0  0  0
  8 29  1  0  0  0
  8 30  1  0  0  0
  9 10  1  0  0  0
  9 31  1  0  0  0
  9 32  1  0  0  0
 10 11  1  0  0  0
 10 33  1  0  0  0
 10 34  1  0  0  0
 11 12  1  0  0  0
 11 13  1  0  0  0
 11 35  1  0  0  0
 12 36  1  0  0  0
 12 37  1  0  0  0
 13 14  1  0  0  0
 13 38  1  0  0  0
 14 19  1  0  0  0
 14 15  2  0  0  0
 15 16  1  0  0  0
 15 39  1  0  0  0
 16 17  2  0  0  0
 16 40  1  0  0  0
 17 22  1  0  0  0
 17 18  1  0  0  0
 18 19  2  0  0  0
 18 20  1  0  0  0
 19 41  1  0  0  0
 20 21  2  0  0  0
 20 42  1  0  0  0
 21 22  1  0  0  0
 22 23  1  0  0  0
M  END
> <s_m_entry_id>
30622

> <s_m_entry_name>
ligand_docking-pose.52

> <s_m_Source_Path>
/home/csk/Desktop/cluster/DUD-E-result/rock1

> <s_m_Source_File>
ligand_docking-pose.sdf

> <i_m_Source_File_Index>
52

> <i_lp_mmshare_version>
53161

> <i_f3d_flags>
0

> <r_lp_tautomer_probability>
0.983170504884488

> <s_lp_Force_Field>
OPLS_2005

> <r_lp_Energy>
16.873904

> <b_lp_Chiralities_Consistent>
1

> <s_lp_Variant>
375529-2

> <s_i_glide_gridfile>
glide-grid_2etr

> <i_i_glide_lignum>
185

> <i_i_glide_rotatable_bonds>
4

> <r_i_docking_score>
-7.2707070298547

> <r_i_glide_ligand_efficiency>
-0.330486683175214

> <r_i_glide_ligand_efficiency_sa>
-0.926036683560655

> <r_i_glide_ligand_efficiency_ln>
-1.77722600357916

> <r_i_glide_gscore>
-7.2707070298547

> <r_i_glide_lipo>
-2.96389533418116

> <r_i_glide_hbond>
-0.235941269832702

> <r_i_glide_metal>
0

> <r_i_glide_rewards>
-2.39169075348243

> <r_i_glide_evdw>
-40.6178970336914

> <r_i_glide_ecoul>
-3.21693444252014

> <r_i_glide_erotb>
0.83425534570418

> <r_i_glide_esite>
0

> <r_i_glide_emodel>
-59.9385959431573

> <r_i_glide_energy>
-43.8348314762115

> <r_i_glide_einternal>
6.09787559509277

> <i_i_glide_confnum>
23

> <i_i_glide_posenum>
399

> <r_i_glide_eff_state_penalty>
0

> <s_user_duplicate_titles>
375529

> <s_m_subgroup_title>
dock_pv

> <s_m_subgroupid>
dock_pv1

> <b_m_subgroup_collapsed>
0

$$$$
599314
                    3D
 Schrodinger Suite 2021-1.
 38 40  0  0  1  0            999 V2000
   53.8774  102.7994   30.8175 C   0  0  0  0  0  0
   53.3777  103.7912   31.8758 C   0  0  0  0  0  0
   52.1024  103.5021   32.5201 N   0  0  1  0  0  0
   52.1269  102.3725   33.4449 C   0  0  0  0  0  0
   52.0428  100.9354   32.8790 C   0  0  0  0  0  0
   52.7596  100.6763   31.6027 N   0  0  3  0  0  0
   54.0433  101.3332   31.2585 C   0  0  0  0  0  0
   52.1145   99.4322   30.5033 S   0  0  0  0  0  0
   51.0560   98.7014   31.2087 O   0  0  0  0  0  0
   53.2541   98.7029   29.9389 O   0  0  0  0  0  0
   51.3257  100.3281   29.1363 C   0  0  0  0  0  0
   51.0270  101.6375   29.2829 C   0  0  0  0  0  0
   50.5052  102.4442   28.1965 C   0  0  0  0  0  0
   50.4430  101.9742   26.9361 C   0  0  0  0  0  0
   50.9010  100.5548   26.5613 C   0  0  1  0  0  0
   51.0912   99.6822   27.8356 C   0  0  0  0  0  0
   50.9016   98.3519   27.6934 C   0  0  0  0  0  0
   50.4806   97.7923   26.4379 C   0  0  0  0  0  0
   50.0435   98.4945   25.4551 N   0  0  0  0  0  0
   49.9522   99.8925   25.5103 C   0  0  0  0  0  0
   49.2429  100.6089   24.8109 O   0  0  0  0  0  0
   54.8573  103.1554   30.5133 H   0  0  0  0  0  0
   53.3057  102.8928   29.8973 H   0  0  0  0  0  0
   54.1439  103.9314   32.6407 H   0  0  0  0  0  0
   53.2669  104.7586   31.3875 H   0  0  0  0  0  0
   51.8937  104.3307   33.0630 H   0  0  0  0  0  0
   51.2428  102.5158   34.0678 H   0  0  0  0  0  0
   52.9898  102.4696   34.1069 H   0  0  0  0  0  0
   50.9895  100.6897   32.7425 H   0  0  0  0  0  0
   52.4213  100.2433   33.6320 H   0  0  0  0  0  0
   54.7328  101.2406   32.0992 H   0  0  0  0  0  0
   54.5085  100.7844   30.4385 H   0  0  0  0  0  0
   51.2002  102.1305   30.2271 H   0  0  0  0  0  0
   50.1758  103.4528   28.3987 H   0  0  0  0  0  0
   50.0850  102.6441   26.1651 H   0  0  0  0  0  0
   51.8564  100.6382   26.0511 H   0  0  0  0  0  0
   51.0021   97.6954   28.5469 H   0  0  0  0  0  0
   50.5096   96.7167   26.2853 H   0  0  0  0  0  0
  1  7  1  0  0  0
  1  2  1  0  0  0
  1 22  1  0  0  0
  1 23  1  0  0  0
  2  3  1  0  0  0
  2 24  1  0  0  0
  2 25  1  0  0  0
  3  4  1  0  0  0
  3 26  1  0  0  0
  4  5  1  0  0  0
  4 27  1  0  0  0
  4 28  1  0  0  0
  5  6  1  0  0  0
  5 29  1  0  0  0
  5 30  1  0  0  0
  6  7  1  0  0  0
  6  8  1  0  0  0
  7 31  1  0  0  0
  7 32  1  0  0  0
  8  9  2  0  0  0
  8 10  2  0  0  0
  8 11  1  0  0  0
 11 16  1  0  0  0
 11 12  2  0  0  0
 12 13  1  0  0  0
 12 33  1  0  0  0
 13 14  2  0  0  0
 13 34  1  0  0  0
 14 15  1  0  0  0
 14 35  1  0  0  0
 15 20  1  0  0  0
 15 16  1  0  0  0
 15 36  1  0  0  0
 16 17  2  0  0  0
 17 18  1  0  0  0
 17 37  1  0  0  0
 18 19  2  0  0  0
 18 38  1  0  0  0
 19 20  1  0  0  0
 20 21  2  0  0  0
M  END
> <s_m_entry_id>
30626

> <s_m_entry_name>
ligand_docking-pose.56

> <s_m_Source_Path>
/home/csk/Desktop/cluster/DUD-E-result/rock1

> <s_m_Source_File>
ligand_docking-pose.sdf

> <i_m_Source_File_Index>
56

> <i_lp_mmshare_version>
53161

> <i_f3d_flags>
0

> <r_lp_tautomer_probability>
1

> <s_lp_Force_Field>
OPLS_2005

> <r_lp_Energy>
28.544725

> <b_lp_Chiralities_Consistent>
1

> <s_lp_Variant>
599314-2

> <s_i_glide_gridfile>
glide-grid_2etr

> <i_i_glide_lignum>
199

> <i_i_glide_rotatable_bonds>
2

> <r_i_docking_score>
-7.19671832608535

> <r_i_glide_ligand_efficiency>
-0.342700872670731

> <r_i_glide_ligand_efficiency_sa>
-0.945485721918671

> <r_i_glide_ligand_efficiency_ln>
-1.77937406378594

> <r_i_glide_gscore>
-7.19671832608535

> <r_i_glide_lipo>
-1.45883646278173

> <r_i_glide_hbond>
0

> <r_i_glide_metal>
0

> <r_i_glide_rewards>
-3.68124248975696

> <r_i_glide_evdw>
-40.4737854003906

> <r_i_glide_ecoul>
-2.73928475379944

> <r_i_glide_erotb>
0.391334232962245

> <r_i_glide_esite>
-0.0133916234194515

> <r_i_glide_emodel>
-60.8628478700921

> <r_i_glide_energy>
-43.2130701541901

> <r_i_glide_einternal>
1.21681034564972

> <i_i_glide_confnum>
41

> <i_i_glide_posenum>
329

> <r_i_glide_eff_state_penalty>
0

> <s_user_duplicate_titles>
599314

> <s_m_subgroup_title>
dock_pv

> <s_m_subgroupid>
dock_pv1

> <b_m_subgroup_collapsed>
0

$$$$
375563
                    3D
 Schrodinger Suite 2021-1.
 45 48  0  0  1  0            999 V2000
   49.1666  103.0187   35.3548 C   0  0  0  0  0  0
   50.2444  103.7458   34.8475 C   0  0  0  0  0  0
   51.4554  103.1058   34.5979 C   0  0  0  0  0  0
   51.5999  101.7441   34.8841 C   0  0  0  0  0  0
   50.5079  101.0145   35.3719 C   0  0  0  0  0  0
   49.2923  101.6535   35.6109 C   0  0  0  0  0  0
   52.9342  101.0511   34.6192 C   0  0  0  0  0  0
   53.1289  100.6644   33.2149 N   0  0  1  0  0  0
   54.5528  100.3679   32.9688 C   0  0  0  0  0  0
   54.8304   99.9029   31.5218 C   0  0  0  0  0  0
   53.8985   98.7551   31.0810 C   0  0  0  0  0  0
   52.4108   99.0882   31.3499 C   0  0  1  0  0  0
   52.2971   99.5020   32.8429 C   0  0  0  0  0  0
   52.0280  100.2272   30.5108 N   0  0  0  0  0  0
   51.5859  100.1079   29.1814 C   0  0  0  0  0  0
   51.3388  101.2930   28.4836 C   0  0  0  0  0  0
   50.8427  101.3073   27.1771 C   0  0  0  0  0  0
   50.6000  100.0648   26.5867 C   0  0  0  0  0  0
   50.8489   98.8468   27.2627 C   0  0  0  0  0  0
   51.3545   98.8690   28.5684 C   0  0  0  0  0  0
   50.4659   97.8403   26.3299 C   0  0  0  0  0  0
   50.0423   98.3608   25.2106 N   0  0  0  0  0  0
   50.1116   99.6967   25.3474 N   0  0  0  0  0  0
   49.8171  100.3012   24.5928 H   0  0  0  0  0  0
   48.2285  103.5146   35.5541 H   0  0  0  0  0  0
   50.1445  104.8031   34.6585 H   0  0  0  0  0  0
   52.2894  103.6684   34.2009 H   0  0  0  0  0  0
   50.6063   99.9594   35.5812 H   0  0  0  0  0  0
   48.4489  101.1018   36.0022 H   0  0  0  0  0  0
   53.7222  101.7451   34.9163 H   0  0  0  0  0  0
   53.0297  100.1715   35.2590 H   0  0  0  0  0  0
   55.1397  101.2637   33.1777 H   0  0  0  0  0  0
   54.8978   99.6061   33.6728 H   0  0  0  0  0  0
   54.7682  100.7513   30.8403 H   0  0  0  0  0  0
   55.8694   99.5740   31.4486 H   0  0  0  0  0  0
   54.0600   98.5366   30.0228 H   0  0  0  0  0  0
   54.1726   97.8438   31.6157 H   0  0  0  0  0  0
   51.7938   98.2150   31.1481 H   0  0  0  0  0  0
   52.5245   98.6545   33.4936 H   0  0  0  0  0  0
   51.2515   99.7443   33.0374 H   0  0  0  0  0  0
   52.4867  101.0920   30.7721 H   0  0  0  0  0  0
   51.5234  102.2401   28.9709 H   0  0  0  0  0  0
   50.6471  102.2357   26.6587 H   0  0  0  0  0  0
   51.5401   97.9382   29.0806 H   0  0  0  0  0  0
   50.4999   96.7695   26.4674 H   0  0  0  0  0  0
  1  6  1  0  0  0
  1  2  2  0  0  0
  1 25  1  0  0  0
  2  3  1  0  0  0
  2 26  1  0  0  0
  3  4  2  0  0  0
  3 27  1  0  0  0
  4  5  1  0  0  0
  4  7  1  0  0  0
  5  6  2  0  0  0
  5 28  1  0  0  0
  6 29  1  0  0  0
  7  8  1  0  0  0
  7 30  1  0  0  0
  7 31  1  0  0  0
  8 13  1  0  0  0
  8  9  1  0  0  0
  9 10  1  0  0  0
  9 32  1  0  0  0
  9 33  1  0  0  0
 10 11  1  0  0  0
 10 34  1  0  0  0
 10 35  1  0  0  0
 11 12  1  0  0  0
 11 36  1  0  0  0
 11 37  1  0  0  0
 12 13  1  0  0  0
 12 14  1  0  0  0
 12 38  1  0  0  0
 13 39  1  0  0  0
 13 40  1  0  0  0
 14 15  1  0  0  0
 14 41  1  0  0  0
 15 20  1  0  0  0
 15 16  2  0  0  0
 16 17  1  0  0  0
 16 42  1  0  0  0
 17 18  2  0  0  0
 17 43  1  0  0  0
 18 23  1  0  0  0
 18 19  1  0  0  0
 19 20  2  0  0  0
 19 21  1  0  0  0
 20 44  1  0  0  0
 21 22  2  0  0  0
 21 45  1  0  0  0
 22 23  1  0  0  0
 23 24  1  0  0  0
M  END
> <s_m_entry_id>
30636

> <s_m_entry_name>
ligand_docking-pose.66

> <s_m_Source_Path>
/home/csk/Desktop/cluster/DUD-E-result/rock1

> <s_m_Source_File>
ligand_docking-pose.sdf

> <i_m_Source_File_Index>
66

> <i_lp_mmshare_version>
53161

> <i_f3d_flags>
0

> <r_lp_tautomer_probability>
0.983170504884488

> <s_lp_Force_Field>
OPLS_2005

> <r_lp_Energy>
21.915061

> <b_lp_Chiralities_Consistent>
1

> <s_lp_Variant>
375563-1

> <s_i_glide_gridfile>
glide-grid_2etr

> <i_i_glide_lignum>
97

> <i_i_glide_rotatable_bonds>
4

> <r_i_docking_score>
-7.00774542619396

> <r_i_glide_ligand_efficiency>
-0.304684583747563

> <r_i_glide_ligand_efficiency_sa>
-0.866482426083898

> <r_i_glide_ligand_efficiency_ln>
-1.69453638677608

> <r_i_glide_gscore>
-7.00774542619396

> <r_i_glide_lipo>
-2.82422385888808

> <r_i_glide_hbond>
-0.21016269884645

> <r_i_glide_metal>
0

> <r_i_glide_rewards>
-2.33663271440831

> <r_i_glide_evdw>
-41.442813873291

> <r_i_glide_ecoul>
-2.34386682510376

> <r_i_glide_erotb>
0.786994563379

> <r_i_glide_esite>
0

> <r_i_glide_emodel>
-61.7800097944285

> <r_i_glide_energy>
-43.7866806983948

> <r_i_glide_einternal>
0.96201503276825

> <i_i_glide_confnum>
73

> <i_i_glide_posenum>
216

> <r_i_glide_eff_state_penalty>
0

> <s_user_duplicate_titles>
375563

> <s_m_subgroup_title>
dock_pv

> <s_m_subgroupid>
dock_pv1

> <b_m_subgroup_collapsed>
0

$$$$
375625
                    3D
 Schrodinger Suite 2021-1.
 53 56  0  0  1  0            999 V2000
   52.6931   99.6647   35.8689 C   0  0  0  0  0  0
   51.5335  100.2883   36.4099 O   0  0  0  0  0  0
   51.0670  101.4606   35.8552 C   0  0  0  0  0  0
   51.6641  102.1065   34.7745 C   0  0  0  0  0  0
   51.0987  103.2672   34.2381 C   0  0  0  0  0  0
   50.0113  103.8637   34.8770 C   0  0  0  0  0  0
   49.3983  103.2344   35.9660 C   0  0  0  0  0  0
   49.9210  102.0255   36.4085 C   0  0  0  0  0  0
   48.3010  103.7173   36.6459 O   0  0  0  0  0  0
   47.6431  104.8746   36.1561 C   0  0  0  0  0  0
   51.6815  103.9352   33.0062 C   0  0  0  0  0  0
   52.4531  103.0233   32.1780 N   0  0  2  0  0  0
   53.4383  103.6835   31.3216 C   0  0  0  0  0  0
   54.4422  102.6292   30.8285 C   0  0  0  0  0  0
   53.7816  101.4068   30.1671 C   0  0  0  0  0  0
   52.6097  100.9086   31.0161 C   0  0  1  0  0  0
   51.6488  102.0314   31.4450 C   0  0  0  0  0  0
   51.9546   99.7158   30.4715 N   0  0  0  0  0  0
   51.4316   99.5828   29.1704 C   0  0  0  0  0  0
   51.2454   98.2708   28.7374 C   0  0  0  0  0  0
   50.8032   97.9620   27.4542 C   0  0  0  0  0  0
   50.5021   99.0103   26.5827 C   0  0  0  0  0  0
   50.6555  100.3643   27.0142 C   0  0  0  0  0  0
   51.1165  100.6487   28.3148 C   0  0  0  0  0  0
   50.2585  101.1131   25.8792 C   0  0  0  0  0  0
   49.9213  100.1868   24.9205 N   0  0  0  0  0  0
   50.0522   98.9058   25.2950 N   0  0  0  0  0  0
   49.5856  100.4222   23.9930 H   0  0  0  0  0  0
   52.9063   98.7564   36.4333 H   0  0  0  0  0  0
   52.5433   99.3750   34.8280 H   0  0  0  0  0  0
   53.5677  100.3125   35.9420 H   0  0  0  0  0  0
   52.5483  101.6890   34.3167 H   0  0  0  0  0  0
   49.6356  104.8018   34.5030 H   0  0  0  0  0  0
   49.4216  101.5237   37.2108 H   0  0  0  0  0  0
   46.8047  105.1017   36.8105 H   0  0  0  0  0  0
   47.2443  104.7054   35.1544 H   0  0  0  0  0  0
   48.3007  105.7451   36.1469 H   0  0  0  0  0  0
   50.8585  104.3022   32.4146 H   0  0  0  0  0  0
   52.2954  104.7784   33.3292 H   0  0  0  0  0  0
   52.9649  104.2452   30.5158 H   0  0  0  0  0  0
   53.9977  104.4052   31.9215 H   0  0  0  0  0  0
   55.0889  103.1033   30.0978 H   0  0  0  0  0  0
   55.1019  102.3354   31.6458 H   0  0  0  0  0  0
   53.4145  101.7195   29.1984 H   0  0  0  0  0  0
   54.5151  100.6143   30.0135 H   0  0  0  0  0  0
   53.0408  100.5343   31.9467 H   0  0  0  0  0  0
   50.9170  101.5905   32.1216 H   0  0  0  0  0  0
   51.0855  102.4891   30.6336 H   0  0  0  0  0  0
   52.4042   98.8655   30.7795 H   0  0  0  0  0  0
   51.4787   97.4550   29.4063 H   0  0  0  0  0  0
   50.7021   96.9353   27.1406 H   0  0  0  0  0  0
   51.2377  101.6711   28.6299 H   0  0  0  0  0  0
   50.1799  102.1699   25.6720 H   0  0  0  0  0  0
  1  2  1  0  0  0
  1 29  1  0  0  0
  1 30  1  0  0  0
  1 31  1  0  0  0
  2  3  1  0  0  0
  3  8  1  0  0  0
  3  4  2  0  0  0
  4  5  1  0  0  0
  4 32  1  0  0  0
  5  6  2  0  0  0
  5 11  1  0  0  0
  6  7  1  0  0  0
  6 33  1  0  0  0
  7  8  2  0  0  0
  7  9  1  0  0  0
  8 34  1  0  0  0
  9 10  1  0  0  0
 10 35  1  0  0  0
 10 36  1  0  0  0
 10 37  1  0  0  0
 11 12  1  0  0  0
 11 38  1  0  0  0
 11 39  1  0  0  0
 12 17  1  0  0  0
 12 13  1  0  0  0
 13 14  1  0  0  0
 13 40  1  0  0  0
 13 41  1  0  0  0
 14 15  1  0  0  0
 14 42  1  0  0  0
 14 43  1  0  0  0
 15 16  1  0  0  0
 15 44  1  0  0  0
 15 45  1  0  0  0
 16 17  1  0  0  0
 16 46  1  0  0  0
 16 18  1  0  0  0
 17 47  1  0  0  0
 17 48  1  0  0  0
 18 19  1  0  0  0
 18 49  1  0  0  0
 19 24  2  0  0  0
 19 20  1  0  0  0
 20 21  2  0  0  0
 20 50  1  0  0  0
 21 22  1  0  0  0
 21 51  1  0  0  0
 22 27  2  0  0  0
 22 23  1  0  0  0
 23 24  1  0  0  0
 23 25  2  0  0  0
 24 52  1  0  0  0
 25 53  1  0  0  0
 25 26  1  0  0  0
 26 28  1  0  0  0
 26 27  1  0  0  0
M  END
> <s_m_entry_id>
30637

> <s_m_entry_name>
ligand_docking-pose.67

> <s_m_Source_Path>
/home/csk/Desktop/cluster/DUD-E-result/rock1

> <s_m_Source_File>
ligand_docking-pose.sdf

> <i_m_Source_File_Index>
67

> <i_lp_mmshare_version>
53161

> <i_f3d_flags>
0

> <r_lp_tautomer_probability>
0.0168294951151403

> <s_lp_Force_Field>
OPLS_2005

> <r_lp_Energy>
45.333662

> <b_lp_Chiralities_Consistent>
1

> <s_lp_Variant>
375625-3

> <s_i_glide_gridfile>
glide-grid_2etr

> <i_i_glide_lignum>
464

> <i_i_glide_rotatable_bonds>
6

> <r_i_docking_score>
-7.00598781057404

> <r_i_glide_ligand_efficiency>
-0.259481030021261

> <r_i_glide_ligand_efficiency_sa>
-0.778443089208576

> <r_i_glide_ligand_efficiency_ln>
-1.63087845956555

> <r_i_glide_gscore>
-7.00598781057404

> <r_i_glide_lipo>
-2.90533873724539

> <r_i_glide_hbond>
-0.211479648613476

> <r_i_glide_metal>
0

> <r_i_glide_rewards>
-2.15271542997548

> <r_i_glide_evdw>
-37.5917320251465

> <r_i_glide_ecoul>
-2.86787104606628

> <r_i_glide_erotb>
0.573313263427573

> <r_i_glide_esite>
0

> <r_i_glide_emodel>
-50.2048303956401

> <r_i_glide_energy>
-40.4596030712128

> <r_i_glide_einternal>
6.95653390884399

> <i_i_glide_confnum>
12

> <i_i_glide_posenum>
206

> <r_i_glide_eff_state_penalty>
0

> <s_user_duplicate_titles>
375625

> <s_m_subgroup_title>
dock_pv

> <s_m_subgroupid>
dock_pv1

> <b_m_subgroup_collapsed>
0

$$$$
376378
                    3D
 Schrodinger Suite 2021-1.
 44 47  0  0  1  0            999 V2000
   54.6219  103.6972   35.5188 C   0  0  0  0  0  0
   54.2319  104.8990   36.1096 C   0  0  0  0  0  0
   53.0248  105.4936   35.7456 C   0  0  0  0  0  0
   52.1998  104.8950   34.7920 C   0  0  0  0  0  0
   52.5943  103.6902   34.1831 C   0  0  0  0  0  0
   53.8037  103.0948   34.5640 C   0  0  0  0  0  0
   51.7303  102.9990   33.1307 C   0  0  0  0  0  0
   51.9697  103.5027   31.7728 N   0  0  1  0  0  0
   53.2787  103.1044   31.2525 C   0  0  0  0  0  0
   53.1780  103.1354   29.7233 C   0  0  0  0  0  0
   51.6722  103.1453   29.4225 C   0  0  2  0  0  0
   51.0364  102.9463   30.8046 C   0  0  0  0  0  0
   51.2441  102.1717   28.4110 N   0  0  0  0  0  0
   51.3550  100.7635   28.4722 C   0  0  0  0  0  0
   51.8702  100.0956   29.5931 C   0  0  0  0  0  0
   51.7848   98.7166   29.7266 C   0  0  0  0  0  0
   51.2430   97.9437   28.7112 C   0  0  0  0  0  0
   50.8480   98.5482   27.5036 C   0  0  0  0  0  0
   50.8792   99.9726   27.3736 C   0  0  0  0  0  0
   50.4365  100.5288   26.1329 C   0  0  0  0  0  0
   50.0433   99.6749   25.1027 C   0  0  0  0  0  0
   50.0423   98.3257   25.2106 N   0  0  0  0  0  0
   50.4223   97.7945   26.3899 C   0  0  0  0  0  0
   50.6940  105.6580   34.4124 Cl  0  0  0  0  0  0
   55.5556  103.2315   35.7984 H   0  0  0  0  0  0
   54.8602  105.3658   36.8527 H   0  0  0  0  0  0
   52.7256  106.4231   36.2062 H   0  0  0  0  0  0
   54.1204  102.1663   34.1095 H   0  0  0  0  0  0
   51.9050  101.9219   33.1737 H   0  0  0  0  0  0
   50.6813  103.1187   33.4048 H   0  0  0  0  0  0
   54.0274  103.8143   31.6109 H   0  0  0  0  0  0
   53.6075  102.1258   31.6080 H   0  0  0  0  0  0
   53.6424  104.0458   29.3427 H   0  0  0  0  0  0
   53.7085  102.3003   29.2661 H   0  0  0  0  0  0
   51.4500  104.1597   29.0897 H   0  0  0  0  0  0
   50.8444  101.9035   31.0410 H   0  0  0  0  0  0
   50.0438  103.3852   30.8741 H   0  0  0  0  0  0
   50.4003  102.4532   27.9319 H   0  0  0  0  0  0
   52.3216  100.6296   30.4104 H   0  0  0  0  0  0
   52.1516   98.2426   30.6253 H   0  0  0  0  0  0
   51.1880   96.8717   28.8211 H   0  0  0  0  0  0
   50.4328  101.5982   25.9786 H   0  0  0  0  0  0
   49.7208  100.0758   24.1532 H   0  0  0  0  0  0
   50.4077   96.7156   26.4497 H   0  0  0  0  0  0
  1  6  1  0  0  0
  1  2  2  0  0  0
  1 25  1  0  0  0
  2  3  1  0  0  0
  2 26  1  0  0  0
  3  4  2  0  0  0
  3 27  1  0  0  0
  4  5  1  0  0  0
  4 24  1  0  0  0
  5  6  2  0  0  0
  5  7  1  0  0  0
  6 28  1  0  0  0
  7  8  1  0  0  0
  7 29  1  0  0  0
  7 30  1  0  0  0
  8 12  1  0  0  0
  8  9  1  0  0  0
  9 10  1  0  0  0
  9 31  1  0  0  0
  9 32  1  0  0  0
 10 11  1  0  0  0
 10 33  1  0  0  0
 10 34  1  0  0  0
 11 12  1  0  0  0
 11 13  1  0  0  0
 11 35  1  0  0  0
 12 36  1  0  0  0
 12 37  1  0  0  0
 13 14  1  0  0  0
 13 38  1  0  0  0
 14 19  1  0  0  0
 14 15  2  0  0  0
 15 16  1  0  0  0
 15 39  1  0  0  0
 16 17  2  0  0  0
 16 40  1  0  0  0
 17 18  1  0  0  0
 17 41  1  0  0  0
 18 23  2  0  0  0
 18 19  1  0  0  0
 19 20  2  0  0  0
 20 21  1  0  0  0
 20 42  1  0  0  0
 21 22  2  0  0  0
 21 43  1  0  0  0
 22 23  1  0  0  0
 23 44  1  0  0  0
M  END
> <s_m_entry_id>
30639

> <s_m_entry_name>
ligand_docking-pose.69

> <s_m_Source_Path>
/home/csk/Desktop/cluster/DUD-E-result/rock1

> <s_m_Source_File>
ligand_docking-pose.sdf

> <i_m_Source_File_Index>
69

> <i_lp_mmshare_version>
53161

> <i_f3d_flags>
0

> <r_lp_tautomer_probability>
1

> <s_lp_Force_Field>
OPLS_2005

> <r_lp_Energy>
36.06495

> <b_lp_Chiralities_Consistent>
1

> <s_lp_Variant>
376378-2

> <s_i_glide_gridfile>
glide-grid_2etr

> <i_i_glide_lignum>
86

> <i_i_glide_rotatable_bonds>
4

> <r_i_docking_score>
-6.9961549952169

> <r_i_glide_ligand_efficiency>
-0.291506458134038

> <r_i_glide_ligand_efficiency_sa>
-0.840850127080545

> <r_i_glide_ligand_efficiency_ln>
-1.67450092298937

> <r_i_glide_gscore>
-6.9961549952169

> <r_i_glide_lipo>
-2.55588746854181

> <r_i_glide_hbond>
-0.245316714822186

> <r_i_glide_metal>
0

> <r_i_glide_rewards>
-2.48893151515151

> <r_i_glide_evdw>
-38.2099533081055

> <r_i_glide_ecoul>
-3.05348706245422

> <r_i_glide_erotb>
0.662501428072015

> <r_i_glide_esite>
0

> <r_i_glide_emodel>
-58.4964977888519

> <r_i_glide_energy>
-41.2634403705597

> <r_i_glide_einternal>
2.71145558357239

> <i_i_glide_confnum>
20

> <i_i_glide_posenum>
341

> <r_i_glide_eff_state_penalty>
0

> <s_user_duplicate_titles>
376378

> <s_m_subgroup_title>
dock_pv

> <s_m_subgroupid>
dock_pv1

> <b_m_subgroup_collapsed>
0

$$$$
375605
                    3D
 Schrodinger Suite 2021-1.
 41 43  0  0  1  0            999 V2000
   49.6310  102.8207   34.2506 C   0  0  0  0  0  0
   50.6848  103.9291   34.3979 C   0  0  0  0  0  0
   52.0859  103.6544   33.8087 C   0  0  0  0  0  0
   52.0875  103.4152   32.3560 N   0  0  1  0  0  0
   53.3288  103.9560   31.7632 C   0  0  0  0  0  0
   53.4506  103.6742   30.2489 C   0  0  0  0  0  0
   53.2247  102.1981   29.9071 C   0  0  0  0  0  0
   51.8805  101.7459   30.5114 C   0  0  2  0  0  0
   51.9491  101.9793   32.0390 C   0  0  0  0  0  0
   51.6975  100.3155   30.2505 N   0  0  0  0  0  0
   51.2656   99.8491   28.9958 C   0  0  0  0  0  0
   51.2576   98.4693   28.7845 C   0  0  0  0  0  0
   50.8494   97.9073   27.5737 C   0  0  0  0  0  0
   50.4470   98.7658   26.5431 C   0  0  0  0  0  0
   50.4202  100.1765   26.7600 C   0  0  0  0  0  0
   50.8348  100.7123   27.9792 C   0  0  0  0  0  0
   49.9119  100.7004   25.5523 C   0  0  0  0  0  0
   49.7141   99.6095   24.7460 N   0  0  0  0  0  0
   50.0417   98.4246   25.2839 N   0  0  0  0  0  0
   49.3384   99.6764   23.8048 H   0  0  0  0  0  0
   48.7357  103.0574   34.8232 H   0  0  0  0  0  0
   50.0044  101.8592   34.6105 H   0  0  0  0  0  0
   49.3251  102.7030   33.2099 H   0  0  0  0  0  0
   50.3070  104.8765   34.0192 H   0  0  0  0  0  0
   50.8179  104.0992   35.4671 H   0  0  0  0  0  0
   52.7005  104.5258   34.0467 H   0  0  0  0  0  0
   52.5577  102.8188   34.3308 H   0  0  0  0  0  0
   53.3681  105.0325   31.9377 H   0  0  0  0  0  0
   54.1929  103.5365   32.2823 H   0  0  0  0  0  0
   52.7682  104.3028   29.6825 H   0  0  0  0  0  0
   54.4428  103.9774   29.9195 H   0  0  0  0  0  0
   53.2284  102.0710   28.8258 H   0  0  0  0  0  0
   54.0494  101.5966   30.2959 H   0  0  0  0  0  0
   51.0510  102.3219   30.1007 H   0  0  0  0  0  0
   52.7678  101.4137   32.4907 H   0  0  0  0  0  0
   51.0447  101.5779   32.4850 H   0  0  0  0  0  0
   52.3253   99.6990   30.7455 H   0  0  0  0  0  0
   51.5692   97.8066   29.5780 H   0  0  0  0  0  0
   50.8460   96.8380   27.4295 H   0  0  0  0  0  0
   50.8218  101.7844   28.1067 H   0  0  0  0  0  0
   49.6640  101.6931   25.2152 H   0  0  0  0  0  0
  1  2  1  0  0  0
  1 21  1  0  0  0
  1 22  1  0  0  0
  1 23  1  0  0  0
  2  3  1  0  0  0
  2 24  1  0  0  0
  2 25  1  0  0  0
  3  4  1  0  0  0
  3 26  1  0  0  0
  3 27  1  0  0  0
  4  9  1  0  0  0
  4  5  1  0  0  0
  5  6  1  0  0  0
  5 28  1  0  0  0
  5 29  1  0  0  0
  6  7  1  0  0  0
  6 30  1  0  0  0
  6 31  1  0  0  0
  7  8  1  0  0  0
  7 32  1  0  0  0
  7 33  1  0  0  0
  8  9  1  0  0  0
  8 34  1  0  0  0
  8 10  1  0  0  0
  9 35  1  0  0  0
  9 36  1  0  0  0
 10 11  1  0  0  0
 10 37  1  0  0  0
 11 16  2  0  0  0
 11 12  1  0  0  0
 12 13  2  0  0  0
 12 38  1  0  0  0
 13 14  1  0  0  0
 13 39  1  0  0  0
 14 19  2  0  0  0
 14 15  1  0  0  0
 15 16  1  0  0  0
 15 17  2  0  0  0
 16 40  1  0  0  0
 17 41  1  0  0  0
 17 18  1  0  0  0
 18 20  1  0  0  0
 18 19  1  0  0  0
M  END
> <s_m_entry_id>
30640

> <s_m_entry_name>
ligand_docking-pose.70

> <s_m_Source_Path>
/home/csk/Desktop/cluster/DUD-E-result/rock1

> <s_m_Source_File>
ligand_docking-pose.sdf

> <i_m_Source_File_Index>
70

> <i_lp_mmshare_version>
53161

> <i_f3d_flags>
0

> <r_lp_tautomer_probability>
0.0168294951151403

> <s_lp_Force_Field>
OPLS_2005

> <r_lp_Energy>
33.106415

> <b_lp_Chiralities_Consistent>
1

> <s_lp_Variant>
375605-4

> <s_i_glide_gridfile>
glide-grid_2etr

> <i_i_glide_lignum>
387

> <i_i_glide_rotatable_bonds>
4

> <r_i_docking_score>
-6.99336583557645

> <r_i_glide_ligand_efficiency>
-0.368071886082971

> <r_i_glide_ligand_efficiency_sa>
-0.982163626708022

> <r_i_glide_ligand_efficiency_ln>
-1.77296844304442

> <r_i_glide_gscore>
-6.99336583557645

> <r_i_glide_lipo>
-1.93456352509959

> <r_i_glide_hbond>
-0.45342107153341

> <r_i_glide_metal>
0

> <r_i_glide_rewards>
-2.59452080795179

> <r_i_glide_evdw>
-31.1211109161377

> <r_i_glide_ecoul>
-6.73665189743042

> <r_i_glide_erotb>
0.555692899429786

> <r_i_glide_esite>
0

> <r_i_glide_emodel>
-53.2540585678329

> <r_i_glide_energy>
-37.8577628135681

> <r_i_glide_einternal>
1.58101916313171

> <i_i_glide_confnum>
2

> <i_i_glide_posenum>
32

> <r_i_glide_eff_state_penalty>
0

> <s_user_duplicate_titles>
375605

> <s_m_subgroup_title>
dock_pv

> <s_m_subgroupid>
dock_pv1

> <b_m_subgroup_collapsed>
0

$$$$
376386
                    3D
 Schrodinger Suite 2021-1.
 44 47  0  0  1  0            999 V2000
   51.6200   98.5790   29.8172 C   0  0  0  0  0  0
   51.0670   97.8516   28.7730 C   0  0  0  0  0  0
   50.8393   98.4516   27.5172 C   0  0  0  0  0  0
   50.3059   97.7517   26.4136 C   0  0  0  0  0  0
   50.0425   98.3030   25.2111 N   0  0  0  0  0  0
   50.3078   99.6179   25.0522 C   0  0  0  0  0  0
   50.8559  100.4112   26.0549 C   0  0  0  0  0  0
   51.1517   99.8295   27.3290 C   0  0  0  0  0  0
   51.7149  100.5598   28.4197 C   0  0  0  0  0  0
   51.9434   99.9145   29.6390 C   0  0  0  0  0  0
   52.0451  101.9031   28.2197 N   0  0  0  0  0  0
   52.0617  102.9795   29.2115 C   0  0  1  0  0  0
   50.8516  102.9585   30.1474 C   0  0  0  0  0  0
   51.4366  102.7251   31.5438 C   0  0  0  0  0  0
   52.7636  103.3173   31.4826 N   0  0  2  0  0  0
   53.2708  102.9707   30.1580 C   0  0  0  0  0  0
   53.6951  102.9085   32.5377 C   0  0  0  0  0  0
   53.2036  103.2767   33.9319 C   0  0  0  0  0  0
   53.2148  104.6120   34.3429 C   0  0  0  0  0  0
   52.7313  104.9503   35.6050 C   0  0  0  0  0  0
   52.2337  103.9541   36.4446 C   0  0  0  0  0  0
   52.2012  102.6238   36.0282 C   0  0  0  0  0  0
   52.6815  102.2858   34.7671 C   0  0  0  0  0  0
   51.6439  104.3674   38.0112 Cl  0  0  0  0  0  0
   51.8105   98.0966   30.7662 H   0  0  0  0  0  0
   50.8443   96.8046   28.9186 H   0  0  0  0  0  0
   50.0721   96.7022   26.5087 H   0  0  0  0  0  0
   50.0705  100.0373   24.0846 H   0  0  0  0  0  0
   51.0521  101.4557   25.8635 H   0  0  0  0  0  0
   52.4040  100.4293   30.4605 H   0  0  0  0  0  0
   52.6681  102.0506   27.4389 H   0  0  0  0  0  0
   52.1272  103.9274   28.6737 H   0  0  0  0  0  0
   50.1240  102.1863   29.8974 H   0  0  0  0  0  0
   50.3189  103.9010   30.0521 H   0  0  0  0  0  0
   51.4492  101.6764   31.8441 H   0  0  0  0  0  0
   50.8648  103.2362   32.3193 H   0  0  0  0  0  0
   54.0669  103.6410   29.8304 H   0  0  0  0  0  0
   53.7741  102.0026   30.1570 H   0  0  0  0  0  0
   54.6615  103.3885   32.3702 H   0  0  0  0  0  0
   53.8582  101.8310   32.4787 H   0  0  0  0  0  0
   53.5906  105.3822   33.6835 H   0  0  0  0  0  0
   52.7448  105.9820   35.9248 H   0  0  0  0  0  0
   51.8125  101.8552   36.6825 H   0  0  0  0  0  0
   52.6573  101.2537   34.4445 H   0  0  0  0  0  0
  1 10  1  0  0  0
  1  2  2  0  0  0
  1 25  1  0  0  0
  2  3  1  0  0  0
  2 26  1  0  0  0
  3  8  2  0  0  0
  3  4  1  0  0  0
  4  5  2  0  0  0
  4 27  1  0  0  0
  5  6  1  0  0  0
  6  7  2  0  0  0
  6 28  1  0  0  0
  7  8  1  0  0  0
  7 29  1  0  0  0
  8  9  1  0  0  0
  9 10  2  0  0  0
  9 11  1  0  0  0
 10 30  1  0  0  0
 11 12  1  0  0  0
 11 31  1  0  0  0
 12 16  1  0  0  0
 12 13  1  0  0  0
 12 32  1  0  0  0
 13 14  1  0  0  0
 13 33  1  0  0  0
 13 34  1  0  0  0
 14 15  1  0  0  0
 14 35  1  0  0  0
 14 36  1  0  0  0
 15 16  1  0  0  0
 15 17  1  0  0  0
 16 37  1  0  0  0
 16 38  1  0  0  0
 17 18  1  0  0  0
 17 39  1  0  0  0
 17 40  1  0  0  0
 18 23  1  0  0  0
 18 19  2  0  0  0
 19 20  1  0  0  0
 19 41  1  0  0  0
 20 21  2  0  0  0
 20 42  1  0  0  0
 21 22  1  0  0  0
 21 24  1  0  0  0
 22 23  2  0  0  0
 22 43  1  0  0  0
 23 44  1  0  0  0
M  END
> <s_m_entry_id>
30642

> <s_m_entry_name>
ligand_docking-pose.72

> <s_m_Source_Path>
/home/csk/Desktop/cluster/DUD-E-result/rock1

> <s_m_Source_File>
ligand_docking-pose.sdf

> <i_m_Source_File_Index>
72

> <i_lp_mmshare_version>
53161

> <i_f3d_flags>
0

> <r_lp_tautomer_probability>
1

> <s_lp_Force_Field>
OPLS_2005

> <r_lp_Energy>
36.601918

> <b_lp_Chiralities_Consistent>
1

> <s_lp_Variant>
376386-2

> <s_i_glide_gridfile>
glide-grid_2etr

> <i_i_glide_lignum>
22

> <i_i_glide_rotatable_bonds>
4

> <r_i_docking_score>
-6.97943562832168

> <r_i_glide_ligand_efficiency>
-0.290809817846737

> <r_i_glide_ligand_efficiency_sa>
-0.838840668772636

> <r_i_glide_ligand_efficiency_ln>
-1.67049921128959

> <r_i_glide_gscore>
-6.97943562832168

> <r_i_glide_lipo>
-2.5767231073021

> <r_i_glide_hbond>
-0.235953104767306

> <r_i_glide_metal>
0

> <r_i_glide_rewards>
-2.48059818181818

> <r_i_glide_evdw>
-37.541862487793

> <r_i_glide_ecoul>
-3.14379692077637

> <r_i_glide_erotb>
0.662501428072015

> <r_i_glide_esite>
0

> <r_i_glide_emodel>
-56.2726766597135

> <r_i_glide_energy>
-40.6856594085693

> <r_i_glide_einternal>
3.7631995677948

> <i_i_glide_confnum>
14

> <i_i_glide_posenum>
128

> <r_i_glide_eff_state_penalty>
0

> <s_user_duplicate_titles>
376386

> <s_m_subgroup_title>
dock_pv

> <s_m_subgroupid>
dock_pv1

> <b_m_subgroup_collapsed>
0

$$$$
599136
                    3D
 Schrodinger Suite 2021-1.
 54 57  0  0  1  0            999 V2000
   57.5649   95.5820   33.6941 C   0  0  0  0  0  0
   56.7927   96.8146   33.6109 N   0  0  2  0  0  0
   55.5216   96.5641   32.9453 C   0  0  0  0  0  0
   54.6235   97.8226   32.9252 C   0  0  0  0  0  0
   55.2447   99.0490   32.2227 C   0  0  0  0  0  0
   54.3031  100.2706   32.2724 C   0  0  0  0  0  0
   52.9964   99.9656   31.6622 N   0  0  0  0  0  0
   52.3553   98.7784   32.2544 C   0  0  0  0  0  0
   53.2846   97.5473   32.2207 C   0  0  0  0  0  0
   52.3668  100.7752   30.7193 C   0  0  0  0  0  0
   52.3063  102.1900   30.7442 C   0  0  0  0  0  0
   51.7670  102.8763   29.6983 N   0  0  0  0  0  0
   51.2661  102.1709   28.6524 C   0  0  0  0  0  0
   51.3165  100.7708   28.6071 C   0  0  0  0  0  0
   51.8506  100.0936   29.6609 N   0  0  0  0  0  0
   50.8540   99.9472   27.4367 C   0  0  0  0  0  0
   50.8465   98.5392   27.4840 C   0  0  0  0  0  0
   50.4429   97.8054   26.3683 C   0  0  0  0  0  0
   50.0429   98.3837   25.2117 N   0  0  0  0  0  0
   50.0429   99.7393   25.1600 C   0  0  0  0  0  0
   50.4357  100.5430   26.2328 C   0  0  0  0  0  0
   52.7575  103.0061   31.7923 N   0  0  0  0  0  0
   52.4496  102.8594   33.2166 C   0  0  0  0  0  0
   53.6235  103.4679   33.9894 C   0  0  0  0  0  0
   54.1495  104.5391   33.0540 C   0  0  0  0  0  0
   53.8860  103.9311   31.6745 C   0  0  0  0  0  0
   58.5096   95.7682   34.2035 H   0  0  0  0  0  0
   57.7970   95.1975   32.6993 H   0  0  0  0  0  0
   57.0292   94.8091   34.2491 H   0  0  0  0  0  0
   57.3043   97.4406   32.9852 H   0  0  0  0  0  0
   55.7303   96.2688   31.9159 H   0  0  0  0  0  0
   54.9861   95.7295   33.4038 H   0  0  0  0  0  0
   54.3991   98.1059   33.9571 H   0  0  0  0  0  0
   56.1936   99.3046   32.6968 H   0  0  0  0  0  0
   55.5202   98.8218   31.1914 H   0  0  0  0  0  0
   54.1616  100.5803   33.3062 H   0  0  0  0  0  0
   54.7817  101.0937   31.7385 H   0  0  0  0  0  0
   52.0791   99.0207   33.2840 H   0  0  0  0  0  0
   51.4304   98.5390   31.7259 H   0  0  0  0  0  0
   53.4323   97.2134   31.1931 H   0  0  0  0  0  0
   52.7986   96.7029   32.7073 H   0  0  0  0  0  0
   50.8485  102.7622   27.8533 H   0  0  0  0  0  0
   51.1621   98.0052   28.3669 H   0  0  0  0  0  0
   50.4427   96.7255   26.3970 H   0  0  0  0  0  0
   49.7228  100.1824   24.2273 H   0  0  0  0  0  0
   50.4154  101.6139   26.1055 H   0  0  0  0  0  0
   51.5369  103.3979   33.4762 H   0  0  0  0  0  0
   52.3741  101.8104   33.5002 H   0  0  0  0  0  0
   53.3086  103.8830   34.9462 H   0  0  0  0  0  0
   54.3840  102.7148   34.2021 H   0  0  0  0  0  0
   55.2117  104.7214   33.2145 H   0  0  0  0  0  0
   53.6415  105.4984   33.1843 H   0  0  0  0  0  0
   54.7771  103.4116   31.3201 H   0  0  0  0  0  0
   53.6438  104.7079   30.9492 H   0  0  0  0  0  0
  1  2  1  0  0  0
  1 27  1  0  0  0
  1 28  1  0  0  0
  1 29  1  0  0  0
  2  3  1  0  0  0
  2 30  1  0  0  0
  3  4  1  0  0  0
  3 31  1  0  0  0
  3 32  1  0  0  0
  4  9  1  0  0  0
  4  5  1  0  0  0
  4 33  1  0  0  0
  5  6  1  0  0  0
  5 34  1  0  0  0
  5 35  1  0  0  0
  6  7  1  0  0  0
  6 36  1  0  0  0
  6 37  1  0  0  0
  7  8  1  0  0  0
  7 10  1  0  0  0
  8  9  1  0  0  0
  8 38  1  0  0  0
  8 39  1  0  0  0
  9 40  1  0  0  0
  9 41  1  0  0  0
 10 15  1  0  0  0
 10 11  2  0  0  0
 11 12  1  0  0  0
 11 22  1  0  0  0
 12 13  2  0  0  0
 13 14  1  0  0  0
 13 42  1  0  0  0
 14 15  2  0  0  0
 14 16  1  0  0  0
 16 21  1  0  0  0
 16 17  2  0  0  0
 17 18  1  0  0  0
 17 43  1  0  0  0
 18 19  2  0  0  0
 18 44  1  0  0  0
 19 20  1  0  0  0
 20 21  2  0  0  0
 20 45  1  0  0  0
 21 46  1  0  0  0
 22 26  1  0  0  0
 22 23  1  0  0  0
 23 24  1  0  0  0
 23 47  1  0  0  0
 23 48  1  0  0  0
 24 25  1  0  0  0
 24 49  1  0  0  0
 24 50  1  0  0  0
 25 26  1  0  0  0
 25 51  1  0  0  0
 25 52  1  0  0  0
 26 53  1  0  0  0
 26 54  1  0  0  0
M  END
> <s_m_entry_id>
30644

> <s_m_entry_name>
ligand_docking-pose.74

> <s_m_Source_Path>
/home/csk/Desktop/cluster/DUD-E-result/rock1

> <s_m_Source_File>
ligand_docking-pose.sdf

> <i_m_Source_File_Index>
74

> <i_lp_mmshare_version>
53161

> <i_f3d_flags>
0

> <r_lp_tautomer_probability>
1

> <s_lp_Force_Field>
OPLS_2005

> <r_lp_Energy>
58.609619

> <b_lp_Chiralities_Consistent>
1

> <s_lp_Variant>
599136-1

> <s_i_glide_gridfile>
glide-grid_2etr

> <i_i_glide_lignum>
446

> <i_i_glide_rotatable_bonds>
5

> <r_i_docking_score>
-6.93363615528829

> <r_i_glide_ligand_efficiency>
-0.266678313664934

> <r_i_glide_ligand_efficiency_sa>
-0.790033454903874

> <r_i_glide_ligand_efficiency_ln>
-1.62834169995357

> <r_i_glide_gscore>
-6.93363615528829

> <r_i_glide_lipo>
-2.05346943251166

> <r_i_glide_hbond>
-0.347748093491537

> <r_i_glide_metal>
0

> <r_i_glide_rewards>
-2.34750857575757

> <r_i_glide_evdw>
-40.116828918457

> <r_i_glide_ecoul>
-4.94903945922852

> <r_i_glide_erotb>
0.614468799697864

> <r_i_glide_esite>
-0.0511814884182589

> <r_i_glide_emodel>
-60.8573470927461

> <r_i_glide_energy>
-45.0658683776855

> <r_i_glide_einternal>
8.2725715637207

> <i_i_glide_confnum>
209

> <i_i_glide_posenum>
129

> <r_i_glide_eff_state_penalty>
0

> <s_user_duplicate_titles>
599136

> <s_m_subgroup_title>
dock_pv

> <s_m_subgroupid>
dock_pv1

> <b_m_subgroup_collapsed>
0

$$$$
376369
                    3D
 Schrodinger Suite 2021-1.
 47 50  0  0  1  0            999 V2000
   51.8023  105.9252   35.4938 C   0  0  0  0  0  0
   51.8765  105.0502   34.4108 C   0  0  0  0  0  0
   51.0081  103.9512   34.3166 C   0  0  0  0  0  0
   50.0946  103.7258   35.3404 C   0  0  0  0  0  0
   50.0149  104.6024   36.4128 C   0  0  0  0  0  0
   50.8668  105.7023   36.5013 C   0  0  0  0  0  0
   48.8392  104.3030   37.6108 Cl  0  0  0  0  0  0
   51.0233  102.9391   33.1775 C   0  0  0  0  0  0
   51.7915  103.3501   31.9986 N   0  0  1  0  0  0
   53.2112  102.9892   32.1655 C   0  0  0  0  0  0
   54.0434  103.4260   30.9540 C   0  0  0  0  0  0
   53.5517  102.7849   29.6541 C   0  0  0  0  0  0
   52.0286  102.9867   29.5099 C   0  0  2  0  0  0
   51.2136  102.7308   30.8010 C   0  0  0  0  0  0
   51.4929  102.1799   28.4111 N   0  0  0  0  0  0
   51.4614  100.7679   28.3312 C   0  0  0  0  0  0
   51.9081   99.9426   29.3738 C   0  0  0  0  0  0
   51.7736   98.5652   29.3307 C   0  0  0  0  0  0
   51.2429   97.9479   28.2098 C   0  0  0  0  0  0
   50.8505   98.7162   27.0987 C   0  0  0  0  0  0
   50.9349  100.1429   27.1541 C   0  0  0  0  0  0
   50.4961  100.8700   26.0039 C   0  0  0  0  0  0
   50.0427  100.1707   24.8862 C   0  0  0  0  0  0
   49.9902   98.8209   24.8145 N   0  0  0  0  0  0
   50.3735   98.1279   25.9091 C   0  0  0  0  0  0
   52.4652  106.7783   35.5383 H   0  0  0  0  0  0
   52.5964  105.2576   33.6321 H   0  0  0  0  0  0
   49.4246  102.8773   35.3000 H   0  0  0  0  0  0
   50.8023  106.3819   37.3388 H   0  0  0  0  0  0
   51.4013  101.9894   33.5610 H   0  0  0  0  0  0
   49.9794  102.7569   32.9109 H   0  0  0  0  0  0
   53.6292  103.4436   33.0639 H   0  0  0  0  0  0
   53.3016  101.9103   32.3105 H   0  0  0  0  0  0
   54.0409  104.5147   30.8804 H   0  0  0  0  0  0
   55.0844  103.1462   31.1198 H   0  0  0  0  0  0
   54.0741  103.2524   28.8227 H   0  0  0  0  0  0
   53.8480  101.7401   29.6143 H   0  0  0  0  0  0
   51.8670  104.0232   29.2112 H   0  0  0  0  0  0
   51.0892  101.6726   31.0045 H   0  0  0  0  0  0
   50.1978  103.1031   30.6651 H   0  0  0  0  0  0
   50.7796  102.6416   27.8661 H   0  0  0  0  0  0
   52.3689  100.3406   30.2622 H   0  0  0  0  0  0
   52.1057   97.9661   30.1678 H   0  0  0  0  0  0
   51.1665   96.8726   28.1713 H   0  0  0  0  0  0
   50.5309  101.9490   25.9864 H   0  0  0  0  0  0
   49.7057  100.7028   24.0109 H   0  0  0  0  0  0
   50.3169   97.0503   25.8396 H   0  0  0  0  0  0
  1  6  1  0  0  0
  1  2  2  0  0  0
  1 26  1  0  0  0
  2  3  1  0  0  0
  2 27  1  0  0  0
  3  4  2  0  0  0
  3  8  1  0  0  0
  4  5  1  0  0  0
  4 28  1  0  0  0
  5  6  2  0  0  0
  5  7  1  0  0  0
  6 29  1  0  0  0
  8  9  1  0  0  0
  8 30  1  0  0  0
  8 31  1  0  0  0
  9 14  1  0  0  0
  9 10  1  0  0  0
 10 11  1  0  0  0
 10 32  1  0  0  0
 10 33  1  0  0  0
 11 12  1  0  0  0
 11 34  1  0  0  0
 11 35  1  0  0  0
 12 13  1  0  0  0
 12 36  1  0  0  0
 12 37  1  0  0  0
 13 14  1  0  0  0
 13 15  1  0  0  0
 13 38  1  0  0  0
 14 39  1  0  0  0
 14 40  1  0  0  0
 15 16  1  0  0  0
 15 41  1  0  0  0
 16 21  1  0  0  0
 16 17  2  0  0  0
 17 18  1  0  0  0
 17 42  1  0  0  0
 18 19  2  0  0  0
 18 43  1  0  0  0
 19 20  1  0  0  0
 19 44  1  0  0  0
 20 25  2  0  0  0
 20 21  1  0  0  0
 21 22  2  0  0  0
 22 23  1  0  0  0
 22 45  1  0  0  0
 23 24  2  0  0  0
 23 46  1  0  0  0
 24 25  1  0  0  0
 25 47  1  0  0  0
M  END
> <s_m_entry_id>
30646

> <s_m_entry_name>
ligand_docking-pose.76

> <s_m_Source_Path>
/home/csk/Desktop/cluster/DUD-E-result/rock1

> <s_m_Source_File>
ligand_docking-pose.sdf

> <i_m_Source_File_Index>
76

> <i_lp_mmshare_version>
53161

> <i_f3d_flags>
0

> <r_lp_tautomer_probability>
1

> <s_lp_Force_Field>
OPLS_2005

> <r_lp_Energy>
25.213196

> <b_lp_Chiralities_Consistent>
1

> <s_lp_Variant>
376369-2

> <s_i_glide_gridfile>
glide-grid_2etr

> <i_i_glide_lignum>
70

> <i_i_glide_rotatable_bonds>
4

> <r_i_docking_score>
-6.86830749737618

> <r_i_glide_ligand_efficiency>
-0.274732299895047

> <r_i_glide_ligand_efficiency_sa>
-0.803322117291204

> <r_i_glide_ligand_efficiency_ln>
-1.62799470344467

> <r_i_glide_gscore>
-6.86830749737618

> <r_i_glide_lipo>
-2.73192228049844

> <r_i_glide_hbond>
-0.151586770496656

> <r_i_glide_metal>
0

> <r_i_glide_rewards>
-1.87784806676366

> <r_i_glide_evdw>
-40.4718360900879

> <r_i_glide_ecoul>
-4.66470623016357

> <r_i_glide_erotb>
0.616347359411504

> <r_i_glide_esite>
0

> <r_i_glide_emodel>
-62.7020912612834

> <r_i_glide_energy>
-45.1365423202515

> <r_i_glide_einternal>
3.60650539398193

> <i_i_glide_confnum>
15

> <i_i_glide_posenum>
216

> <r_i_glide_eff_state_penalty>
0

> <s_user_duplicate_titles>
376369

> <s_m_subgroup_title>
dock_pv

> <s_m_subgroupid>
dock_pv1

> <b_m_subgroup_collapsed>
0

$$$$
376332
                    3D
 Schrodinger Suite 2021-1.
 43 45  0  0  1  0            999 V2000
   56.6967   94.9196   32.7218 C   0  0  0  0  0  0
   55.9213   96.2206   32.9694 C   0  0  0  0  0  0
   54.5963   96.2921   32.1898 C   0  0  0  0  0  0
   54.0516   97.6526   32.1780 N   0  0  2  0  0  0
   52.5890   97.6562   32.2978 C   0  0  0  0  0  0
   52.0421   99.1017   32.3581 C   0  0  0  0  0  0
   52.4691   99.9290   31.1403 C   0  0  0  0  0  0
   54.0031   99.8715   31.0036 C   0  0  0  0  0  0
   54.5545   98.4267   31.0278 C   0  0  0  0  0  0
   51.8308   99.3778   29.9374 N   0  0  0  0  0  0
   51.3719  100.1451   28.8469 C   0  0  0  0  0  0
   51.3208  101.5429   28.9140 C   0  0  0  0  0  0
   50.8430  102.3029   27.8603 C   0  0  0  0  0  0
   50.4433  101.7075   26.6757 C   0  0  0  0  0  0
   50.4673  100.3054   26.5503 C   0  0  0  0  0  0
   50.9190   99.5016   27.6452 C   0  0  0  0  0  0
   50.8837   98.0855   27.4703 C   0  0  0  0  0  0
   50.4443   97.5508   26.2599 C   0  0  0  0  0  0
   50.0430   98.3037   25.2122 N   0  0  0  0  0  0
   50.0519   99.6450   25.3703 C   0  0  0  0  0  0
   57.6131   94.8914   33.3151 H   0  0  0  0  0  0
   56.9832   94.8276   31.6720 H   0  0  0  0  0  0
   56.1048   94.0421   32.9885 H   0  0  0  0  0  0
   55.6767   96.2361   34.0325 H   0  0  0  0  0  0
   56.5406   97.1031   32.8116 H   0  0  0  0  0  0
   54.7237   95.9017   31.1794 H   0  0  0  0  0  0
   53.8941   95.6091   32.6740 H   0  0  0  0  0  0
   52.1447   97.1021   31.4696 H   0  0  0  0  0  0
   52.3274   97.1206   33.2100 H   0  0  0  0  0  0
   50.9538   99.1029   32.4069 H   0  0  0  0  0  0
   52.3626   99.5763   33.2880 H   0  0  0  0  0  0
   52.1661  100.9562   31.3261 H   0  0  0  0  0  0
   54.4904  100.4627   31.7783 H   0  0  0  0  0  0
   54.3084  100.3458   30.0696 H   0  0  0  0  0  0
   55.6430   98.4608   31.0742 H   0  0  0  0  0  0
   54.3062   97.9108   30.0994 H   0  0  0  0  0  0
   52.0364   98.4071   29.7539 H   0  0  0  0  0  0
   51.6397  102.0864   29.7869 H   0  0  0  0  0  0
   50.8130  103.3784   27.9570 H   0  0  0  0  0  0
   50.0878  102.3149   25.8559 H   0  0  0  0  0  0
   51.2040   97.4273   28.2636 H   0  0  0  0  0  0
   50.4293   96.4799   26.1113 H   0  0  0  0  0  0
   49.7112  100.2245   24.5233 H   0  0  0  0  0  0
  1  2  1  0  0  0
  1 21  1  0  0  0
  1 22  1  0  0  0
  1 23  1  0  0  0
  2  3  1  0  0  0
  2 24  1  0  0  0
  2 25  1  0  0  0
  3  4  1  0  0  0
  3 26  1  0  0  0
  3 27  1  0  0  0
  4  9  1  0  0  0
  4  5  1  0  0  0
  5  6  1  0  0  0
  5 28  1  0  0  0
  5 29  1  0  0  0
  6  7  1  0  0  0
  6 30  1  0  0  0
  6 31  1  0  0  0
  7  8  1  0  0  0
  7 10  1  0  0  0
  7 32  1  0  0  0
  8  9  1  0  0  0
  8 33  1  0  0  0
  8 34  1  0  0  0
  9 35  1  0  0  0
  9 36  1  0  0  0
 10 11  1  0  0  0
 10 37  1  0  0  0
 11 16  1  0  0  0
 11 12  2  0  0  0
 12 13  1  0  0  0
 12 38  1  0  0  0
 13 14  2  0  0  0
 13 39  1  0  0  0
 14 15  1  0  0  0
 14 40  1  0  0  0
 15 20  2  0  0  0
 15 16  1  0  0  0
 16 17  2  0  0  0
 17 18  1  0  0  0
 17 41  1  0  0  0
 18 19  2  0  0  0
 18 42  1  0  0  0
 19 20  1  0  0  0
 20 43  1  0  0  0
M  END
> <s_m_entry_id>
30648

> <s_m_entry_name>
ligand_docking-pose.78

> <s_m_Source_Path>
/home/csk/Desktop/cluster/DUD-E-result/rock1

> <s_m_Source_File>
ligand_docking-pose.sdf

> <i_m_Source_File_Index>
78

> <i_lp_mmshare_version>
53161

> <i_f3d_flags>
0

> <r_lp_tautomer_probability>
1

> <s_lp_Force_Field>
OPLS_2005

> <r_lp_Energy>
22.42213

> <b_lp_Chiralities_Consistent>
1

> <s_lp_Variant>
376332-1

> <s_i_glide_gridfile>
glide-grid_2etr

> <i_i_glide_lignum>
388

> <i_i_glide_rotatable_bonds>
4

> <r_i_docking_score>
-6.85199588534996

> <r_i_glide_ligand_efficiency>
-0.342599794267498

> <r_i_glide_ligand_efficiency_sa>
-0.929958916072851

> <r_i_glide_ligand_efficiency_ln>
-1.7148285761537

> <r_i_glide_gscore>
-6.85199588534996

> <r_i_glide_lipo>
-2.42580545076585

> <r_i_glide_hbond>
-0.234975953096391

> <r_i_glide_metal>
0

> <r_i_glide_rewards>
-2.98904425757576

> <r_i_glide_evdw>
-33.2906303405762

> <r_i_glide_ecoul>
-1.84189105033875

> <r_i_glide_erotb>
0.738644950667657

> <r_i_glide_esite>
0

> <r_i_glide_emodel>
-47.2607199654202

> <r_i_glide_energy>
-35.1325213909149

> <r_i_glide_einternal>
3.93565249443054

> <i_i_glide_confnum>
28

> <i_i_glide_posenum>
251

> <r_i_glide_eff_state_penalty>
0

> <s_user_duplicate_titles>
376332

> <s_m_subgroup_title>
dock_pv

> <s_m_subgroupid>
dock_pv1

> <b_m_subgroup_collapsed>
0

$$$$
375589
                    3D
 Schrodinger Suite 2021-1.
 42 45  0  0  1  0            999 V2000
   54.8807   95.4918   33.9676 C   0  0  0  0  0  0
   55.4765   94.3721   33.4019 C   0  0  0  0  0  0
   55.8814   94.3763   32.0714 C   0  0  0  0  0  0
   55.6430   95.4953   31.2775 C   0  0  0  0  0  0
   55.0145   96.6283   31.8269 C   0  0  0  0  0  0
   54.6644   96.6204   33.1861 C   0  0  0  0  0  0
   54.7263   97.8486   30.9488 C   0  0  0  0  0  0
   53.6968   98.7501   31.4645 N   0  0  2  0  0  0
   52.3573   98.1826   31.4372 C   0  0  0  0  0  0
   51.4204   99.3871   31.5172 C   0  0  0  0  0  0
   52.2582  100.5989   31.0520 C   0  0  1  0  0  0
   53.6007   99.9663   30.6726 C   0  0  0  0  0  0
   51.6730  101.4084   29.9734 N   0  0  0  0  0  0
   51.2539  100.9365   28.7155 C   0  0  0  0  0  0
   50.8431  101.9026   27.7946 C   0  0  0  0  0  0
   50.4246  101.5830   26.5017 C   0  0  0  0  0  0
   50.3646  100.2276   26.1790 C   0  0  0  0  0  0
   50.7655   99.2231   27.0888 C   0  0  0  0  0  0
   51.2434   99.5862   28.3499 C   0  0  0  0  0  0
   50.5434   98.0023   26.3952 C   0  0  0  0  0  0
   50.0429   98.2188   25.2108 N   0  0  0  0  0  0
   49.9502   99.5505   25.0503 N   0  0  0  0  0  0
   56.0430   95.3952   29.5976 Cl  0  0  0  0  0  0
   49.5793   99.9361   24.1906 H   0  0  0  0  0  0
   54.5939   95.4855   35.0088 H   0  0  0  0  0  0
   55.6425   93.5037   34.0100 H   0  0  0  0  0  0
   56.3642   93.5049   31.6528 H   0  0  0  0  0  0
   54.2103   97.4865   33.6438 H   0  0  0  0  0  0
   55.6441   98.4154   30.8360 H   0  0  0  0  0  0
   54.4424   97.5199   29.9507 H   0  0  0  0  0  0
   52.1734   97.5506   30.5676 H   0  0  0  0  0  0
   52.2302   97.5202   32.2940 H   0  0  0  0  0  0
   50.5190   99.2086   30.9326 H   0  0  0  0  0  0
   51.0911   99.5349   32.5456 H   0  0  0  0  0  0
   52.4357  101.2174   31.9338 H   0  0  0  0  0  0
   54.4510  100.6314   30.8332 H   0  0  0  0  0  0
   53.6633   99.7338   29.6083 H   0  0  0  0  0  0
   52.1008  102.3208   29.9094 H   0  0  0  0  0  0
   50.8571  102.9450   28.0784 H   0  0  0  0  0  0
   50.1133  102.3515   25.8105 H   0  0  0  0  0  0
   51.5788   98.8143   29.0124 H   0  0  0  0  0  0
   50.7259   96.9991   26.7507 H   0  0  0  0  0  0
  1  6  1  0  0  0
  1  2  2  0  0  0
  1 25  1  0  0  0
  2  3  1  0  0  0
  2 26  1  0  0  0
  3  4  2  0  0  0
  3 27  1  0  0  0
  4  5  1  0  0  0
  4 23  1  0  0  0
  5  6  2  0  0  0
  5  7  1  0  0  0
  6 28  1  0  0  0
  7  8  1  0  0  0
  7 29  1  0  0  0
  7 30  1  0  0  0
  8 12  1  0  0  0
  8  9  1  0  0  0
  9 10  1  0  0  0
  9 31  1  0  0  0
  9 32  1  0  0  0
 10 11  1  0  0  0
 10 33  1  0  0  0
 10 34  1  0  0  0
 11 12  1  0  0  0
 11 13  1  0  0  0
 11 35  1  0  0  0
 12 36  1  0  0  0
 12 37  1  0  0  0
 13 14  1  0  0  0
 13 38  1  0  0  0
 14 19  1  0  0  0
 14 15  2  0  0  0
 15 16  1  0  0  0
 15 39  1  0  0  0
 16 17  2  0  0  0
 16 40  1  0  0  0
 17 22  1  0  0  0
 17 18  1  0  0  0
 18 19  2  0  0  0
 18 20  1  0  0  0
 19 41  1  0  0  0
 20 21  2  0  0  0
 20 42  1  0  0  0
 21 22  1  0  0  0
 22 24  1  0  0  0
M  END
> <s_m_entry_id>
30649

> <s_m_entry_name>
ligand_docking-pose.79

> <s_m_Source_Path>
/home/csk/Desktop/cluster/DUD-E-result/rock1

> <s_m_Source_File>
ligand_docking-pose.sdf

> <i_m_Source_File_Index>
79

> <i_lp_mmshare_version>
53161

> <i_f3d_flags>
0

> <r_lp_tautomer_probability>
0.983170504884488

> <s_lp_Force_Field>
OPLS_2005

> <r_lp_Energy>
35.590705

> <b_lp_Chiralities_Consistent>
1

> <s_lp_Variant>
375589-1

> <s_i_glide_gridfile>
glide-grid_2etr

> <i_i_glide_lignum>
81

> <i_i_glide_rotatable_bonds>
4

> <r_i_docking_score>
-6.84475675262531

> <r_i_glide_ligand_efficiency>
-0.297598119679361

> <r_i_glide_ligand_efficiency_sa>
-0.846329464937497

> <r_i_glide_ligand_efficiency_ln>
-1.6551242476076

> <r_i_glide_gscore>
-6.84475675262531

> <r_i_glide_lipo>
-2.270304613052

> <r_i_glide_hbond>
-0.392515567860655

> <r_i_glide_metal>
0

> <r_i_glide_rewards>
-2.25075077751817

> <r_i_glide_evdw>
-39.8459129333496

> <r_i_glide_ecoul>
-2.87108087539673

> <r_i_glide_erotb>
0.491771983782494

> <r_i_glide_esite>
0

> <r_i_glide_emodel>
-57.4833817537849

> <r_i_glide_energy>
-42.7169938087463

> <r_i_glide_einternal>
3.66791677474976

> <i_i_glide_confnum>
17

> <i_i_glide_posenum>
228

> <r_i_glide_eff_state_penalty>
0

> <s_user_duplicate_titles>
375589

> <s_m_subgroup_title>
dock_pv

> <s_m_subgroupid>
dock_pv1

> <b_m_subgroup_collapsed>
0

$$$$
376342
                    3D
 Schrodinger Suite 2021-1.
 46 48  0  0  1  0            999 V2000
   56.4929   94.0996   31.4368 C   0  0  0  0  0  0
   56.2721   94.6054   32.8695 C   0  0  0  0  0  0
   55.7880   96.0634   32.9516 C   0  0  0  0  0  0
   54.4482   96.1910   32.3846 N   0  0  2  0  0  0
   53.9908   97.5710   32.3104 C   0  0  2  0  0  0
   52.4524   97.6340   32.3296 C   0  0  0  0  0  0
   51.9400   99.0896   32.3344 C   0  0  0  0  0  0
   52.4758   99.8954   31.1366 C   0  0  1  0  0  0
   54.0196   99.8169   31.0506 C   0  0  0  0  0  0
   54.5488   98.3622   31.0978 C   0  0  0  0  0  0
   51.8805   99.3601   29.9084 N   0  0  0  0  0  0
   51.4011  100.1360   28.8330 C   0  0  0  0  0  0
   51.3401  101.5336   28.9154 C   0  0  0  0  0  0
   50.8428  102.2986   27.8720 C   0  0  0  0  0  0
   50.4430  101.7065   26.6830 C   0  0  0  0  0  0
   50.4754  100.3042   26.5477 C   0  0  0  0  0  0
   50.9386   99.4959   27.6351 C   0  0  0  0  0  0
   50.9032   98.0798   27.4594 C   0  0  0  0  0  0
   50.4447   97.5481   26.2560 C   0  0  0  0  0  0
   50.0426   98.3028   25.2114 N   0  0  0  0  0  0
   50.0540   99.6439   25.3697 C   0  0  0  0  0  0
   56.8423   93.0691   31.4290 H   0  0  0  0  0  0
   57.2430   94.7018   30.9273 H   0  0  0  0  0  0
   55.5848   94.1634   30.8420 H   0  0  0  0  0  0
   55.5821   93.9473   33.3995 H   0  0  0  0  0  0
   57.2200   94.5310   33.4051 H   0  0  0  0  0  0
   55.7816   96.3917   33.9927 H   0  0  0  0  0  0
   56.4836   96.7029   32.4102 H   0  0  0  0  0  0
   53.7800   95.6143   32.8807 H   0  0  0  0  0  0
   54.3183   98.1040   33.2054 H   0  0  0  0  0  0
   52.0455   97.1034   31.4667 H   0  0  0  0  0  0
   52.0930   97.1048   33.2099 H   0  0  0  0  0  0
   52.2359   99.5839   33.2595 H   0  0  0  0  0  0
   50.8505   99.1064   32.3194 H   0  0  0  0  0  0
   52.1952  100.9303   31.3060 H   0  0  0  0  0  0
   54.4540  100.3837   31.8747 H   0  0  0  0  0  0
   54.3756  100.3060   30.1432 H   0  0  0  0  0  0
   55.6374   98.3797   31.1193 H   0  0  0  0  0  0
   54.2728   97.8550   30.1727 H   0  0  0  0  0  0
   52.0977   98.3928   29.7111 H   0  0  0  0  0  0
   51.6696  102.0761   29.7855 H   0  0  0  0  0  0
   50.7974  103.3749   27.9772 H   0  0  0  0  0  0
   50.0784  102.3133   25.8681 H   0  0  0  0  0  0
   51.2288   97.4181   28.2510 H   0  0  0  0  0  0
   50.4338   96.4776   26.1048 H   0  0  0  0  0  0
   49.7077  100.2233   24.5245 H   0  0  0  0  0  0
  1  2  1  0  0  0
  1 22  1  0  0  0
  1 23  1  0  0  0
  1 24  1  0  0  0
  2  3  1  0  0  0
  2 25  1  0  0  0
  2 26  1  0  0  0
  3  4  1  0  0  0
  3 27  1  0  0  0
  3 28  1  0  0  0
  4  5  1  0  0  0
  4 29  1  0  0  0
  5 10  1  0  0  0
  5  6  1  0  0  0
  5 30  1  0  0  0
  6  7  1  0  0  0
  6 31  1  0  0  0
  6 32  1  0  0  0
  7  8  1  0  0  0
  7 33  1  0  0  0
  7 34  1  0  0  0
  8  9  1  0  0  0
  8 11  1  0  0  0
  8 35  1  0  0  0
  9 10  1  0  0  0
  9 36  1  0  0  0
  9 37  1  0  0  0
 10 38  1  0  0  0
 10 39  1  0  0  0
 11 12  1  0  0  0
 11 40  1  0  0  0
 12 17  1  0  0  0
 12 13  2  0  0  0
 13 14  1  0  0  0
 13 41  1  0  0  0
 14 15  2  0  0  0
 14 42  1  0  0  0
 15 16  1  0  0  0
 15 43  1  0  0  0
 16 21  2  0  0  0
 16 17  1  0  0  0
 17 18  2  0  0  0
 18 19  1  0  0  0
 18 44  1  0  0  0
 19 20  2  0  0  0
 19 45  1  0  0  0
 20 21  1  0  0  0
 21 46  1  0  0  0
M  END
> <s_m_entry_id>
30650

> <s_m_entry_name>
ligand_docking-pose.80

> <s_m_Source_Path>
/home/csk/Desktop/cluster/DUD-E-result/rock1

> <s_m_Source_File>
ligand_docking-pose.sdf

> <i_m_Source_File_Index>
80

> <i_lp_mmshare_version>
53161

> <i_f3d_flags>
0

> <r_lp_tautomer_probability>
1

> <s_lp_Force_Field>
OPLS_2005

> <r_lp_Energy>
19.839165

> <b_lp_Chiralities_Consistent>
1

> <s_lp_Variant>
376342-1

> <s_i_glide_gridfile>
glide-grid_2etr

> <i_i_glide_lignum>
389

> <i_i_glide_rotatable_bonds>
5

> <r_i_docking_score>
-6.82253286707236

> <r_i_glide_ligand_efficiency>
-0.324882517479636

> <r_i_glide_ligand_efficiency_sa>
-0.896326231048502

> <r_i_glide_ligand_efficiency_ln>
-1.68685746515789

> <r_i_glide_gscore>
-6.82253286707236

> <r_i_glide_lipo>
-2.47801235757008

> <r_i_glide_hbond>
-0.235812270767343

> <r_i_glide_metal>
0

> <r_i_glide_rewards>
-2.89340848484848

> <r_i_glide_evdw>
-34.0271453857422

> <r_i_glide_ecoul>
-2.77208781242371

> <r_i_glide_erotb>
0.901870687264208

> <r_i_glide_esite>
0

> <r_i_glide_emodel>
-51.422687642596

> <r_i_glide_energy>
-36.7992331981659

> <r_i_glide_einternal>
1.57733333110809

> <i_i_glide_confnum>
9

> <i_i_glide_posenum>
159

> <r_i_glide_eff_state_penalty>
0

> <s_user_duplicate_titles>
376342

> <s_m_subgroup_title>
dock_pv

> <s_m_subgroupid>
dock_pv1

> <b_m_subgroup_collapsed>
0

$$$$
572181
                    3D
 Schrodinger Suite 2021-1.
 56 60  0  0  1  0            999 V2000
   50.0308   99.9757   25.3048 C   0  0  0  0  0  0
   50.0436   98.6150   25.5928 C   0  0  0  0  0  0
   50.5379   98.1676   26.8126 C   0  0  0  0  0  0
   51.0214   99.0630   27.7707 C   0  0  0  0  0  0
   50.9754  100.4517   27.4974 C   0  0  0  0  0  0
   50.4911  100.8816   26.2562 C   0  0  0  0  0  0
   51.3890  101.4801   28.5544 C   0  0  0  0  0  0
   52.2519  100.8802   29.6777 C   0  0  0  0  0  0
   51.6255   99.5731   30.1926 C   0  0  1  0  0  0
   51.6440   98.5358   29.0642 C   0  0  0  0  0  0
   52.3724   99.0665   31.3456 N   0  0  0  0  0  0
   52.2368   99.5957   32.6353 C   0  0  0  0  0  0
   51.2517  100.4858   32.9164 N   0  0  0  0  0  0
   51.2579  100.9764   34.1771 C   0  0  0  0  0  0
   52.1546  100.6394   35.1344 N   0  0  0  0  0  0
   53.0980   99.7332   34.7556 C   0  0  0  0  0  0
   53.1542   99.1644   33.5223 N   0  0  0  0  0  0
   54.0246   99.3107   35.7116 N   0  0  0  0  0  0
   55.1910   98.4606   35.3923 C   0  0  0  0  0  0
   56.4645   99.3033   35.1457 C   0  0  0  0  0  0
   56.7911  100.1255   36.3104 N   0  0  0  0  0  0
   55.6458  100.9706   36.6438 C   0  0  0  0  0  0
   54.3761  100.1168   36.8964 C   0  0  0  0  0  0
   50.2010  101.8439   34.4707 N   0  0  0  0  0  0
   49.9364  102.7355   35.5210 C   0  0  0  0  0  0
   48.6311  103.2183   35.6592 C   0  0  0  0  0  0
   48.3530  104.1374   36.6727 C   0  0  0  0  0  0
   49.2960  104.6042   37.5312 N   0  0  0  0  0  0
   50.5639  104.1454   37.3710 C   0  0  0  0  0  0
   50.9215  103.2064   36.3991 C   0  0  0  0  0  0
   49.6507  100.3272   24.3567 H   0  0  0  0  0  0
   49.6747   97.9087   24.8672 H   0  0  0  0  0  0
   50.5685   97.1061   27.0064 H   0  0  0  0  0  0
   50.4497  101.9393   26.0355 H   0  0  0  0  0  0
   51.9246  102.3037   28.0817 H   0  0  0  0  0  0
   50.4847  101.9045   28.9884 H   0  0  0  0  0  0
   53.2551  100.6857   29.3001 H   0  0  0  0  0  0
   52.3680  101.6089   30.4809 H   0  0  0  0  0  0
   50.5930   99.7518   30.4798 H   0  0  0  0  0  0
   51.1645   97.6077   29.3802 H   0  0  0  0  0  0
   52.6827   98.3034   28.8392 H   0  0  0  0  0  0
   53.2192   98.5429   31.1766 H   0  0  0  0  0  0
   55.3634   97.7669   36.2158 H   0  0  0  0  0  0
   55.0047   97.8330   34.5216 H   0  0  0  0  0  0
   56.3493   99.9352   34.2630 H   0  0  0  0  0  0
   57.3156   98.6576   34.9237 H   0  0  0  0  0  0
   57.6043  100.6970   36.0826 H   0  0  0  0  0  0
   55.4762  101.6937   35.8418 H   0  0  0  0  0  0
   55.8948  101.5619   37.5251 H   0  0  0  0  0  0
   53.5540  100.7705   37.1920 H   0  0  0  0  0  0
   54.5393   99.4524   37.7463 H   0  0  0  0  0  0
   49.5298  101.8685   33.7203 H   0  0  0  0  0  0
   47.8391  102.8814   35.0054 H   0  0  0  0  0  0
   47.3499  104.5172   36.8091 H   0  0  0  0  0  0
   51.3075  104.5415   38.0488 H   0  0  0  0  0  0
   51.9482  102.8846   36.3164 H   0  0  0  0  0  0
  1  6  1  0  0  0
  1  2  2  0  0  0
  1 31  1  0  0  0
  2  3  1  0  0  0
  2 32  1  0  0  0
  3  4  2  0  0  0
  3 33  1  0  0  0
  4 10  1  0  0  0
  4  5  1  0  0  0
  5  6  2  0  0  0
  5  7  1  0  0  0
  6 34  1  0  0  0
  7  8  1  0  0  0
  7 35  1  0  0  0
  7 36  1  0  0  0
  8  9  1  0  0  0
  8 37  1  0  0  0
  8 38  1  0  0  0
  9 10  1  0  0  0
  9 11  1  0  0  0
  9 39  1  0  0  0
 10 40  1  0  0  0
 10 41  1  0  0  0
 11 12  1  0  0  0
 11 42  1  0  0  0
 12 17  1  0  0  0
 12 13  2  0  0  0
 13 14  1  0  0  0
 14 15  2  0  0  0
 14 24  1  0  0  0
 15 16  1  0  0  0
 16 17  2  0  0  0
 16 18  1  0  0  0
 18 23  1  0  0  0
 18 19  1  0  0  0
 19 20  1  0  0  0
 19 43  1  0  0  0
 19 44  1  0  0  0
 20 21  1  0  0  0
 20 45  1  0  0  0
 20 46  1  0  0  0
 21 22  1  0  0  0
 21 47  1  0  0  0
 22 23  1  0  0  0
 22 48  1  0  0  0
 22 49  1  0  0  0
 23 50  1  0  0  0
 23 51  1  0  0  0
 24 25  1  0  0  0
 24 52  1  0  0  0
 25 30  1  0  0  0
 25 26  2  0  0  0
 26 27  1  0  0  0
 26 53  1  0  0  0
 27 28  2  0  0  0
 27 54  1  0  0  0
 28 29  1  0  0  0
 29 30  2  0  0  0
 29 55  1  0  0  0
 30 56  1  0  0  0
M  END
> <s_m_entry_id>
30652

> <s_m_entry_name>
ligand_docking-pose.82

> <s_m_Source_Path>
/home/csk/Desktop/cluster/DUD-E-result/rock1

> <s_m_Source_File>
ligand_docking-pose.sdf

> <i_m_Source_File_Index>
82

> <i_lp_mmshare_version>
53161

> <i_f3d_flags>
0

> <r_lp_tautomer_probability>
0.999999106000422

> <s_lp_Force_Field>
OPLS_2005

> <r_lp_Energy>
25.362069

> <b_lp_Chiralities_Consistent>
1

> <s_lp_Variant>
572181-1

> <s_i_glide_gridfile>
glide-grid_2etr

> <i_i_glide_lignum>
37

> <i_i_glide_rotatable_bonds>
5

> <r_i_docking_score>
-6.80067871166872

> <r_i_glide_ligand_efficiency>
-0.226689290388957

> <r_i_glide_ligand_efficiency_sa>
-0.704376331049608

> <r_i_glide_ligand_efficiency_ln>
-1.54518830262059

> <r_i_glide_gscore>
-6.80067871166872

> <r_i_glide_lipo>
-3.38139854605864

> <r_i_glide_hbond>
-0.271904643492389

> <r_i_glide_metal>
0

> <r_i_glide_rewards>
-1.27755681563672

> <r_i_glide_evdw>
-45.1314582824707

> <r_i_glide_ecoul>
-1.39280259609222

> <r_i_glide_erotb>
0.605679673712348

> <r_i_glide_esite>
-0.0100050766559491

> <r_i_glide_emodel>
-65.5168800726933

> <r_i_glide_energy>
-46.5242608785629

> <r_i_glide_einternal>
2.90297889709473

> <i_i_glide_confnum>
37

> <i_i_glide_posenum>
237

> <r_i_glide_eff_state_penalty>
0

> <s_user_duplicate_titles>
572181

> <s_m_subgroup_title>
dock_pv

> <s_m_subgroupid>
dock_pv1

> <b_m_subgroup_collapsed>
0

$$$$
