CHEMBL206_lig23
                    3D
 Schrodinger Suite 2021-1.
 50 52  0  0  1  0            999 V2000
   31.8581   -1.5608   23.9077 C   0  0  0  0  0  0
   31.1741   -1.0039   24.9814 C   0  0  0  0  0  0
   31.4795   -1.3938   26.2879 C   0  0  0  0  0  0
   32.4570   -2.3724   26.5033 C   0  0  0  0  0  0
   33.1298   -2.9417   25.4199 C   0  0  0  0  0  0
   32.8411   -2.5266   24.1185 C   0  0  0  0  0  0
   30.7127   -0.7870   27.4081 C   0  0  0  0  0  0
   31.2208    0.1793   28.2263 C   0  0  0  0  0  0
   32.6076    0.6552   28.0769 C   0  0  0  0  0  0
   32.9299    1.4951   27.0129 C   0  0  0  0  0  0
   34.2063    2.0243   26.9036 C   0  0  0  0  0  0
   35.1621    1.7134   27.8633 C   0  0  0  0  0  0
   34.8602    0.8551   28.9175 C   0  0  0  0  0  0
   33.5820    0.3208   29.0224 C   0  0  0  0  0  0
   30.4290    0.9168   29.3179 C   0  0  0  0  0  0
   29.3447   -1.3373   27.5220 C   0  0  0  0  0  0
   29.2044   -2.7054   27.7646 C   0  0  0  0  0  0
   27.9542   -3.2862   27.8641 C   0  0  0  0  0  0
   26.8320   -2.4883   27.7296 C   0  0  0  0  0  0
   26.9378   -1.1238   27.4653 C   0  0  0  0  0  0
   28.2014   -0.5474   27.3521 C   0  0  0  0  0  0
   25.6165   -3.0771   27.8640 O   0  0  0  0  0  0
   30.9338    0.7414   30.7607 C   0  0  0  0  0  0
   33.6039   -3.0435   22.9713 C   0  0  0  0  0  0
   33.0697   -3.4269   21.7908 C   0  0  0  0  0  0
   33.9010   -3.7633   20.6637 C   0  0  0  0  0  0
   33.2600   -4.5419   19.7431 O   0  0  0  0  0  0
   35.0482   -3.3422   20.5132 O   0  0  0  0  0  0
   31.6597   -1.2156   22.9065 H   0  0  0  0  0  0
   30.4177   -0.2542   24.7983 H   0  0  0  0  0  0
   32.6941   -2.6907   27.5082 H   0  0  0  0  0  0
   33.8834   -3.6962   25.5856 H   0  0  0  0  0  0
   32.1911    1.7362   26.2694 H   0  0  0  0  0  0
   34.4595    2.6592   26.0692 H   0  0  0  0  0  0
   36.1532    2.1285   27.7735 H   0  0  0  0  0  0
   35.6195    0.6069   29.6448 H   0  0  0  0  0  0
   33.3524   -0.3429   29.8432 H   0  0  0  0  0  0
   30.4451    1.9795   29.0689 H   0  0  0  0  0  0
   29.3752    0.6578   29.2933 H   0  0  0  0  0  0
   30.0616   -3.3418   27.8625 H   0  0  0  0  0  0
   27.8598   -4.3463   28.0489 H   0  0  0  0  0  0
   26.0508   -0.5184   27.3485 H   0  0  0  0  0  0
   28.2896    0.5078   27.1353 H   0  0  0  0  0  0
   25.2600   -3.3420   26.9834 H   0  0  0  0  0  0
   30.2218    1.1680   31.4659 H   0  0  0  0  0  0
   31.0670   -0.3108   31.0152 H   0  0  0  0  0  0
   31.8834    1.2527   30.9222 H   0  0  0  0  0  0
   34.6787   -3.0421   23.1001 H   0  0  0  0  0  0
   32.0006   -3.4656   21.6353 H   0  0  0  0  0  0
   32.3971   -4.9113   19.9898 H   0  0  0  0  0  0
  1  6  1  0  0  0
  1  2  2  0  0  0
  1 29  1  0  0  0
  2  3  1  0  0  0
  2 30  1  0  0  0
  3  7  1  0  0  0
  3  4  2  0  0  0
  4  5  1  0  0  0
  4 31  1  0  0  0
  5  6  2  0  0  0
  5 32  1  0  0  0
  6 24  1  0  0  0
  7 16  1  0  0  0
  7  8  2  3  0  0
  8 15  1  0  0  0
  8  9  1  0  0  0
  9 14  1  0  0  0
  9 10  2  0  0  0
 10 11  1  0  0  0
 10 33  1  0  0  0
 11 12  2  0  0  0
 11 34  1  0  0  0
 12 13  1  0  0  0
 12 35  1  0  0  0
 13 14  2  0  0  0
 13 36  1  0  0  0
 14 37  1  0  0  0
 15 23  1  0  0  0
 15 38  1  0  0  0
 15 39  1  0  0  0
 16 17  2  0  0  0
 16 21  1  0  0  0
 17 18  1  0  0  0
 17 40  1  0  0  0
 18 19  2  0  0  0
 18 41  1  0  0  0
 19 20  1  0  0  0
 19 22  1  0  0  0
 20 21  2  0  0  0
 20 42  1  0  0  0
 21 43  1  0  0  0
 22 44  1  0  0  0
 23 45  1  0  0  0
 23 46  1  0  0  0
 23 47  1  0  0  0
 24 25  2  0  0  0
 24 48  1  0  0  0
 25 26  1  0  0  0
 25 49  1  0  0  0
 26 27  1  0  0  0
 26 28  2  0  0  0
 27 50  1  0  0  0
M  END
> <s_m_entry_id>
16836

> <s_m_entry_name>
dock_pv.2

> <s_m_Source_Path>
/home/csk/Desktop/cluster/DUD-E-result/esr1

> <s_m_Source_File>
dock_pv.maegz

> <i_m_Source_File_Index>
2

> <chembl_id>
CHEMBL1091535

> <chembl_pref_name>
None

> <i_lp_mmshare_version>
53161

> <r_lp_tautomer_probability>
1

> <s_lp_Force_Field>
OPLS_2005

> <r_lp_Energy>
30.81174

> <b_lp_Chiralities_Consistent>
1

> <s_lp_Variant>
CHEMBL206_lig23-1

> <s_i_glide_gridfile>
glide-grid_1sj0

> <i_i_glide_lignum>
30

> <i_i_glide_rotatable_bonds>
8

> <r_i_docking_score>
-10.6710953380188

> <r_i_glide_ligand_efficiency>
-0.381110547786385

> <r_i_glide_ligand_efficiency_sa>
-1.1572760851882

> <r_i_glide_ligand_efficiency_ln>
-2.46320212098833

> <r_i_glide_gscore>
-10.6710953380188

> <r_i_glide_lipo>
-5.54776004804484

> <r_i_glide_hbond>
-0.152

> <r_i_glide_metal>
0

> <r_i_glide_rewards>
-1.78336104545454

> <r_i_glide_evdw>
-45.3949241638184

> <r_i_glide_ecoul>
-11.5016536712646

> <r_i_glide_erotb>
0.843518130309064

> <r_i_glide_esite>
-0.0364981159478478

> <r_i_glide_emodel>
-85.3532671379853

> <r_i_glide_energy>
-56.896577835083

> <r_i_glide_einternal>
14.0175676345825

> <i_i_glide_confnum>
72

> <i_i_glide_posenum>
337

> <r_i_glide_eff_state_penalty>
0

> <s_user_duplicate_titles>
CHEMBL206_lig23

> <i_f3d_flags>
0

> <s_m_subgroup_title>
dock_pv

> <s_m_subgroupid>
dock_pv

> <b_m_subgroup_collapsed>
1

$$$$
CHEMBL206_lig314
                    3D
 Schrodinger Suite 2021-1.
 45 48  0  0  1  0            999 V2000
   31.1601   -0.8794   28.2989 C   0  0  1  0  0  0
   33.0070    0.8011   28.8069 C   0  0  2  0  0  0
   32.6657   -0.5825   28.2146 C   0  0  1  0  0  0
   30.3680    0.2785   27.6428 C   0  0  1  0  0  0
   28.8693    0.0162   27.6505 C   0  0  0  0  0  0
   28.3551   -1.3014   27.5906 C   0  0  0  0  0  0
   30.7189   -2.1493   27.5532 C   0  0  0  0  0  0
   29.2697   -2.4439   27.9815 C   0  0  2  0  0  0
   32.2897    1.8580   27.9656 C   0  0  0  0  0  0
   30.7784    1.6859   28.1115 C   0  0  0  0  0  0
   33.6603   -1.5047   28.9105 C   0  0  0  0  0  0
   27.9876    1.0838   27.6346 C   0  0  0  0  0  0
   34.5175    0.7813   28.5822 C   0  0  2  0  0  0
   26.9918   -1.4960   27.3365 C   0  0  0  0  0  0
   34.9125   -0.5931   29.1016 C   0  0  0  0  0  0
   26.1511   -0.4024   27.2268 C   0  0  0  0  0  0
   26.6538    0.8654   27.4640 C   0  0  0  0  0  0
   28.7495   -3.7419   27.8640 O   0  0  0  0  0  0
   32.6735    0.9400   30.3402 C   0  0  0  0  0  0
   35.2600    1.8570   29.0641 O   0  0  0  0  0  0
   24.8471   -0.5420   26.8678 O   0  0  0  0  0  0
   30.6128    0.2684   26.5770 H   0  0  0  0  0  0
   30.9009   -0.9516   29.3572 H   0  0  0  0  0  0
   32.9115   -0.6001   27.1477 H   0  0  0  0  0  0
   30.8612   -2.1134   26.4719 H   0  0  0  0  0  0
   31.3900   -2.9420   27.8455 H   0  0  0  0  0  0
   29.2664   -2.3852   29.0644 H   0  0  0  0  0  0
   32.5705    2.8648   28.2637 H   0  0  0  0  0  0
   32.5767    1.7811   26.9145 H   0  0  0  0  0  0
   30.3136    2.4137   27.4643 H   0  0  0  0  0  0
   30.4289    1.9004   29.1198 H   0  0  0  0  0  0
   33.8559   -2.3906   28.3104 H   0  0  0  0  0  0
   33.2746   -1.8598   29.8640 H   0  0  0  0  0  0
   28.2971    2.1108   27.7269 H   0  0  0  0  0  0
   34.7242    0.7840   27.5089 H   0  0  0  0  0  0
   26.5803   -2.4904   27.2329 H   0  0  0  0  0  0
   35.8427   -0.9416   28.6639 H   0  0  0  0  0  0
   35.1431   -0.5104   30.1603 H   0  0  0  0  0  0
   26.0600    1.7507   27.4644 H   0  0  0  0  0  0
   29.2358   -4.2398   27.1897 H   0  0  0  0  0  0
   31.6111    0.9128   30.5677 H   0  0  0  0  0  0
   33.1094    0.1487   30.9473 H   0  0  0  0  0  0
   33.0705    1.8585   30.7536 H   0  0  0  0  0  0
   36.2025    1.6437   28.9854 H   0  0  0  0  0  0
   24.4614    0.3213   26.6688 H   0  0  0  0  0  0
  1  3  1  0  0  0
  1  4  1  0  0  0
  1  7  1  0  0  0
  1 23  1  0  0  0
  2  3  1  0  0  0
  2 13  1  0  0  0
  2 19  1  0  0  0
  2  9  1  0  0  0
  3 11  1  0  0  0
  3 24  1  0  0  0
  4  5  1  0  0  0
  4 10  1  0  0  0
  4 22  1  0  0  0
  5 12  2  0  0  0
  5  6  1  0  0  0
  6  8  1  0  0  0
  6 14  2  0  0  0
  7  8  1  0  0  0
  7 25  1  0  0  0
  7 26  1  0  0  0
  8 18  1  0  0  0
  8 27  1  0  0  0
  9 10  1  0  0  0
  9 28  1  0  0  0
  9 29  1  0  0  0
 10 30  1  0  0  0
 10 31  1  0  0  0
 11 15  1  0  0  0
 11 32  1  0  0  0
 11 33  1  0  0  0
 12 17  1  0  0  0
 12 34  1  0  0  0
 13 20  1  0  0  0
 13 15  1  0  0  0
 13 35  1  0  0  0
 14 16  1  0  0  0
 14 36  1  0  0  0
 15 37  1  0  0  0
 15 38  1  0  0  0
 16 21  1  0  0  0
 16 17  2  0  0  0
 17 39  1  0  0  0
 18 40  1  0  0  0
 19 41  1  0  0  0
 19 42  1  0  0  0
 19 43  1  0  0  0
 20 44  1  0  0  0
 21 45  1  0  0  0
M  END
> <s_m_entry_id>
16837

> <s_m_entry_name>
dock_pv.3

> <s_m_Source_Path>
/home/csk/Desktop/cluster/DUD-E-result/esr1

> <s_m_Source_File>
dock_pv.maegz

> <i_m_Source_File_Index>
3

> <chembl_id>
CHEMBL1432305

> <chembl_pref_name>
None

> <i_lp_mmshare_version>
53161

> <r_lp_tautomer_probability>
0.999999999997365

> <s_lp_Force_Field>
OPLS_2005

> <r_lp_Energy>
47.31184

> <b_lp_Chiralities_Consistent>
1

> <s_lp_Variant>
CHEMBL206_lig314-1

> <s_i_glide_gridfile>
glide-grid_1sj0

> <i_i_glide_lignum>
401

> <i_i_glide_rotatable_bonds>
3

> <r_i_docking_score>
-10.2394890895951

> <r_i_glide_ligand_efficiency>
-0.487594718552149

> <r_i_glide_ligand_efficiency_sa>
-1.34523685592407

> <r_i_glide_ligand_efficiency_ln>
-2.53169298656647

> <r_i_glide_gscore>
-10.2394890895951

> <r_i_glide_lipo>
-4.32211126958025

> <r_i_glide_hbond>
-0.925370843692352

> <r_i_glide_metal>
0

> <r_i_glide_rewards>
-2.34285436363636

> <r_i_glide_evdw>
-18.7358837127686

> <r_i_glide_ecoul>
-11.4157228469849

> <r_i_glide_erotb>
0

> <r_i_glide_esite>
0

> <r_i_glide_emodel>
-47.7720115093112

> <r_i_glide_energy>
-30.1516065597534

> <r_i_glide_einternal>
0.756524443626404

> <i_i_glide_confnum>
1

> <i_i_glide_posenum>
140

> <r_i_glide_eff_state_penalty>
0

> <s_user_duplicate_titles>
CHEMBL206_lig314

> <i_f3d_flags>
0

> <s_m_subgroup_title>
dock_pv

> <s_m_subgroupid>
dock_pv

> <b_m_subgroup_collapsed>
1

$$$$
CHEMBL206_lig33
                    3D
 Schrodinger Suite 2021-1.
 56 59  0  0  1  0            999 V2000
   31.4633   -0.3029   28.2262 N   0  0  0  0  0  0
   32.4808   -0.3234   29.1307 C   0  0  0  0  0  0
   30.9211   -1.5617   27.6854 C   0  0  1  0  0  0
   32.9145    0.9563   29.8730 C   0  0  0  0  0  0
   29.3863   -1.4818   27.6225 C   0  0  0  0  0  0
   28.7144   -0.2371   27.6370 C   0  0  0  0  0  0
   30.9956    0.9063   27.5244 C   0  0  0  0  0  0
   28.6368   -2.6532   27.4641 C   0  0  0  0  0  0
   31.5838   -2.0060   26.3748 C   0  0  0  0  0  0
   34.7333   -3.0701   20.1058 N   0  0  0  0  0  0
   33.0246   -1.3790   29.4640 O   0  0  0  0  0  0
   29.4967    1.0590   27.8539 C   0  0  0  0  0  0
   27.3263   -0.2104   27.4639 C   0  0  0  0  0  0
   31.9332    1.8578   29.9405 F   0  0  0  0  0  0
   33.2600    0.6615   31.1244 F   0  0  0  0  0  0
   33.9731    1.4579   29.2396 F   0  0  0  0  0  0
   31.0967   -1.5850   25.1333 C   0  0  0  0  0  0
   32.6590   -2.8948   26.4232 C   0  0  0  0  0  0
   26.6069   -1.3857   27.2756 C   0  0  0  0  0  0
   27.2598   -2.6109   27.2830 C   0  0  0  0  0  0
   32.7579   -2.9422   24.0052 C   0  0  0  0  0  0
   33.2487   -3.3416   25.2449 C   0  0  0  0  0  0
   31.6780   -2.0502   23.9576 C   0  0  0  0  0  0
   33.3815   -3.4812   22.8968 O   0  0  0  0  0  0
   33.6510   -3.9733   20.5171 C   0  0  0  0  0  0
   25.2601   -1.3420   27.0627 O   0  0  0  0  0  0
   32.7541   -3.3710   21.6180 C   0  0  0  0  0  0
   35.4970   -3.5927   18.9815 C   0  0  0  0  0  0
   35.7525   -2.8356   21.1196 C   0  0  0  0  0  0
   36.9473   -2.2455   20.3680 C   0  0  0  0  0  0
   36.7612   -2.7326   18.9280 C   0  0  0  0  0  0
   31.1300   -2.3567   28.4012 H   0  0  0  0  0  0
   31.1250    0.7834   26.4497 H   0  0  0  0  0  0
   31.5789    1.8043   27.7235 H   0  0  0  0  0  0
   29.1370   -3.6106   27.4491 H   0  0  0  0  0  0
   29.0699    1.8563   27.2437 H   0  0  0  0  0  0
   29.3822    1.3898   28.8870 H   0  0  0  0  0  0
   26.7992    0.7329   27.4651 H   0  0  0  0  0  0
   30.2526   -0.9137   25.0724 H   0  0  0  0  0  0
   33.0415   -3.2409   27.3731 H   0  0  0  0  0  0
   26.7069   -3.5275   27.1319 H   0  0  0  0  0  0
   34.0631   -4.0455   25.2854 H   0  0  0  0  0  0
   31.2598   -1.7251   23.0212 H   0  0  0  0  0  0
   34.0586   -4.9302   20.8505 H   0  0  0  0  0  0
   33.0272   -4.1954   19.6488 H   0  0  0  0  0  0
   24.9662   -2.1109   26.5440 H   0  0  0  0  0  0
   31.8058   -3.9118   21.6434 H   0  0  0  0  0  0
   32.5343   -2.3340   21.3681 H   0  0  0  0  0  0
   35.7151   -4.6588   19.0747 H   0  0  0  0  0  0
   34.8952   -3.5029   18.0758 H   0  0  0  0  0  0
   35.3642   -2.1422   21.8636 H   0  0  0  0  0  0
   36.0054   -3.7418   21.6700 H   0  0  0  0  0  0
   36.9409   -1.1558   20.4244 H   0  0  0  0  0  0
   37.8894   -2.5905   20.7956 H   0  0  0  0  0  0
   37.6172   -3.3135   18.5814 H   0  0  0  0  0  0
   36.6325   -1.8971   18.2392 H   0  0  0  0  0  0
  1  2  1  0  0  0
  1  3  1  0  0  0
  1  7  1  0  0  0
  2  4  1  0  0  0
  2 11  2  0  0  0
  3  5  1  0  0  0
  3  9  1  0  0  0
  3 32  1  0  0  0
  4 14  1  0  0  0
  4 15  1  0  0  0
  4 16  1  0  0  0
  5  6  1  0  0  0
  5  8  2  0  0  0
  6 13  2  0  0  0
  6 12  1  0  0  0
  7 12  1  0  0  0
  7 33  1  0  0  0
  7 34  1  0  0  0
  8 20  1  0  0  0
  8 35  1  0  0  0
  9 17  1  0  0  0
  9 18  2  0  0  0
 10 25  1  0  0  0
 10 28  1  0  0  0
 10 29  1  0  0  0
 12 36  1  0  0  0
 12 37  1  0  0  0
 13 19  1  0  0  0
 13 38  1  0  0  0
 17 23  2  0  0  0
 17 39  1  0  0  0
 18 22  1  0  0  0
 18 40  1  0  0  0
 19 26  1  0  0  0
 19 20  2  0  0  0
 20 41  1  0  0  0
 21 22  2  0  0  0
 21 24  1  0  0  0
 21 23  1  0  0  0
 22 42  1  0  0  0
 23 43  1  0  0  0
 24 27  1  0  0  0
 25 27  1  0  0  0
 25 44  1  0  0  0
 25 45  1  0  0  0
 26 46  1  0  0  0
 27 47  1  0  0  0
 27 48  1  0  0  0
 28 31  1  0  0  0
 28 49  1  0  0  0
 28 50  1  0  0  0
 29 30  1  0  0  0
 29 51  1  0  0  0
 29 52  1  0  0  0
 30 31  1  0  0  0
 30 53  1  0  0  0
 30 54  1  0  0  0
 31 55  1  0  0  0
 31 56  1  0  0  0
M  END
> <s_m_entry_id>
16838

> <s_m_entry_name>
dock_pv.4

> <s_m_Source_Path>
/home/csk/Desktop/cluster/DUD-E-result/esr1

> <s_m_Source_File>
dock_pv.maegz

> <i_m_Source_File_Index>
4

> <chembl_id>
CHEMBL1213615

> <chembl_pref_name>
None

> <i_lp_mmshare_version>
53161

> <r_lp_tautomer_probability>
0.999999999997365

> <s_lp_Force_Field>
OPLS_2005

> <r_lp_Energy>
52.525509

> <b_lp_Chiralities_Consistent>
1

> <s_lp_Variant>
CHEMBL206_lig33-1

> <s_i_glide_gridfile>
glide-grid_1sj0

> <i_i_glide_lignum>
43

> <i_i_glide_rotatable_bonds>
8

> <r_i_docking_score>
-10.0118916380886

> <r_i_glide_ligand_efficiency>
-0.322964246389954

> <r_i_glide_ligand_efficiency_sa>
-1.01455363386225

> <r_i_glide_ligand_efficiency_ln>
-2.25798839201908

> <r_i_glide_gscore>
-10.0118916380886

> <r_i_glide_lipo>
-4.52368859811887

> <r_i_glide_hbond>
-0.222650728175534

> <r_i_glide_metal>
0

> <r_i_glide_rewards>
-2.71674125094606

> <r_i_glide_evdw>
-46.7722587585449

> <r_i_glide_ecoul>
-3.86335134506226

> <r_i_glide_erotb>
0.369304578838458

> <r_i_glide_esite>
0

> <r_i_glide_emodel>
-82.6528978211063

> <r_i_glide_energy>
-50.6356101036072

> <r_i_glide_einternal>
3.22827935218811

> <i_i_glide_confnum>
5

> <i_i_glide_posenum>
98

> <r_i_glide_eff_state_penalty>
0

> <s_user_duplicate_titles>
CHEMBL206_lig33,149664

> <i_f3d_flags>
0

> <s_m_subgroup_title>
dock_pv

> <s_m_subgroupid>
dock_pv

> <b_m_subgroup_collapsed>
1

$$$$
CHEMBL206_lig26
                    3D
 Schrodinger Suite 2021-1.
 44 46  0  0  1  0            999 V2000
   34.8600    0.6581   29.0309 C   0  0  0  0  0  0
   35.1455    1.7863   28.2640 C   0  0  0  0  0  0
   34.2746    2.2072   27.2684 C   0  0  0  0  0  0
   33.1043    1.5058   27.0427 C   0  0  0  0  0  0
   32.8052    0.3786   27.8043 C   0  0  0  0  0  0
   33.6930   -0.0584   28.7915 C   0  0  0  0  0  0
   31.5827   -0.3780   27.4947 C   0  0  0  0  0  0
   30.3999   -0.1333   28.1249 C   0  0  0  0  0  0
   29.1651   -0.9360   27.8925 C   0  0  0  0  0  0
   30.2715    0.9820   29.1825 C   0  0  0  0  0  0
   30.9293    0.6886   30.5443 C   0  0  0  0  0  0
   31.8062   -1.3471   26.3995 C   0  0  0  0  0  0
   32.6375   -2.4574   26.5873 C   0  0  0  0  0  0
   32.9801   -3.2623   25.5050 C   0  0  0  0  0  0
   32.5008   -2.9548   24.2357 C   0  0  0  0  0  0
   31.6600   -1.8629   24.0441 C   0  0  0  0  0  0
   31.3012   -1.0662   25.1271 C   0  0  0  0  0  0
   29.2121   -2.3359   27.9174 C   0  0  0  0  0  0
   28.0413   -3.0854   27.8640 C   0  0  0  0  0  0
   26.8147   -2.4356   27.7801 C   0  0  0  0  0  0
   26.7535   -1.0510   27.6554 C   0  0  0  0  0  0
   27.9281   -0.3047   27.7008 C   0  0  0  0  0  0
   25.6600   -3.1618   27.8640 O   0  0  0  0  0  0
   32.8602   -3.7420   23.1753 O   0  0  0  0  0  0
   35.5545    0.3315   29.7911 H   0  0  0  0  0  0
   36.0600    2.3338   28.4309 H   0  0  0  0  0  0
   34.5033    3.0580   26.6543 H   0  0  0  0  0  0
   32.4411    1.8354   26.2640 H   0  0  0  0  0  0
   33.4789   -0.9436   29.3731 H   0  0  0  0  0  0
   30.6843    1.9060   28.7749 H   0  0  0  0  0  0
   29.2251    1.2207   29.3641 H   0  0  0  0  0  0
   30.4601    1.2721   31.3370 H   0  0  0  0  0  0
   30.8600   -0.3644   30.8174 H   0  0  0  0  0  0
   31.9841    0.9578   30.5466 H   0  0  0  0  0  0
   33.0468   -2.6775   27.5624 H   0  0  0  0  0  0
   33.6311   -4.1132   25.6424 H   0  0  0  0  0  0
   31.2799   -1.6292   23.0640 H   0  0  0  0  0  0
   30.6687   -0.2045   24.9683 H   0  0  0  0  0  0
   30.1499   -2.8535   28.0367 H   0  0  0  0  0  0
   28.0851   -4.1624   27.9345 H   0  0  0  0  0  0
   25.7993   -0.5535   27.5635 H   0  0  0  0  0  0
   27.8618    0.7715   27.6352 H   0  0  0  0  0  0
   25.2714   -3.3420   26.9765 H   0  0  0  0  0  0
   32.4158   -3.5184   22.3542 H   0  0  0  0  0  0
  1  6  1  0  0  0
  1  2  2  0  0  0
  1 25  1  0  0  0
  2  3  1  0  0  0
  2 26  1  0  0  0
  3  4  2  0  0  0
  3 27  1  0  0  0
  4  5  1  0  0  0
  4 28  1  0  0  0
  5  7  1  0  0  0
  5  6  2  0  0  0
  6 29  1  0  0  0
  7 12  1  0  0  0
  7  8  2  0  0  0
  8  9  1  0  0  0
  8 10  1  0  0  0
  9 18  2  0  0  0
  9 22  1  0  0  0
 10 11  1  0  0  0
 10 30  1  0  0  0
 10 31  1  0  0  0
 11 32  1  0  0  0
 11 33  1  0  0  0
 11 34  1  0  0  0
 12 13  2  0  0  0
 12 17  1  0  0  0
 13 14  1  0  0  0
 13 35  1  0  0  0
 14 15  2  0  0  0
 14 36  1  0  0  0
 15 16  1  0  0  0
 15 24  1  0  0  0
 16 17  2  0  0  0
 16 37  1  0  0  0
 17 38  1  0  0  0
 18 19  1  0  0  0
 18 39  1  0  0  0
 19 20  2  0  0  0
 19 40  1  0  0  0
 20 21  1  0  0  0
 20 23  1  0  0  0
 21 22  2  0  0  0
 21 41  1  0  0  0
 22 42  1  0  0  0
 23 43  1  0  0  0
 24 44  1  0  0  0
M  END
> <s_m_entry_id>
16839

> <s_m_entry_name>
dock_pv.5

> <s_m_Source_Path>
/home/csk/Desktop/cluster/DUD-E-result/esr1

> <s_m_Source_File>
dock_pv.maegz

> <i_m_Source_File_Index>
5

> <chembl_id>
CHEMBL1093253

> <chembl_pref_name>
None

> <i_lp_mmshare_version>
53161

> <r_lp_tautomer_probability>
1

> <s_lp_Force_Field>
OPLS_2005

> <r_lp_Energy>
27.980517

> <b_lp_Chiralities_Consistent>
1

> <s_lp_Variant>
CHEMBL206_lig26-1

> <s_i_glide_gridfile>
glide-grid_1sj0

> <i_i_glide_lignum>
34

> <i_i_glide_rotatable_bonds>
6

> <r_i_docking_score>
-9.81572010466381

> <r_i_glide_ligand_efficiency>
-0.408988337694325

> <r_i_glide_ligand_efficiency_sa>
-1.17972650735102

> <r_i_glide_ligand_efficiency_ln>
-2.34935223509228

> <r_i_glide_gscore>
-9.81572010466381

> <r_i_glide_lipo>
-5.18521849384303

> <r_i_glide_hbond>
-0.16

> <r_i_glide_metal>
0

> <r_i_glide_rewards>
-2.15186590909091

> <r_i_glide_evdw>
-41.7440757751465

> <r_i_glide_ecoul>
-6.50199842453003

> <r_i_glide_erotb>
0.743867850706961

> <r_i_glide_esite>
0

> <r_i_glide_emodel>
-59.8361264007955

> <r_i_glide_energy>
-48.2460741996765

> <r_i_glide_einternal>
12.1169538497925

> <i_i_glide_confnum>
119

> <i_i_glide_posenum>
272

> <r_i_glide_eff_state_penalty>
0

> <s_user_duplicate_titles>
CHEMBL206_lig26,CHEMBL206_lig27

> <i_f3d_flags>
0

> <s_m_subgroup_title>
dock_pv

> <s_m_subgroupid>
dock_pv

> <b_m_subgroup_collapsed>
1

$$$$
CHEMBL206_lig30
                    3D
 Schrodinger Suite 2021-1.
 54 57  0  0  1  0            999 V2000
   31.1331    0.4535   29.1212 C   0  0  2  0  0  0
   31.6523    1.9069   28.9461 C   0  0  0  0  0  0
   33.2316   -0.4213   28.0333 C   0  0  2  0  0  0
   33.6593   -1.0656   29.3678 C   0  0  0  0  0  0
   33.0453   -0.3519   30.5847 C   0  0  0  0  0  0
   31.5382   -0.1718   30.4653 C   0  0  0  0  0  0
   32.7200    2.1026   27.8366 C   0  0  0  0  0  0
   33.8028    1.0175   27.8632 C   0  0  0  0  0  0
   31.6837   -0.4142   27.9732 C   0  0  0  0  0  0
   33.0750   -3.3421   24.9555 C   0  0  0  0  0  0
   32.4298   -2.7706   26.0479 C   0  0  0  0  0  0
   31.5028   -1.7384   25.8615 C   0  0  0  0  0  0
   31.1653   -1.3599   24.5584 C   0  0  0  0  0  0
   31.7633   -1.9907   23.4712 C   0  0  0  0  0  0
   32.7381   -2.9677   23.6554 C   0  0  0  0  0  0
   30.9168   -0.9953   27.0079 C   0  0  0  0  0  0
   29.4318   -0.8819   27.0110 C   0  0  0  0  0  0
   28.6328   -2.0303   27.0642 C   0  0  0  0  0  0
   27.2430   -1.9207   27.0838 C   0  0  0  0  0  0
   26.6490   -0.6606   27.0805 C   0  0  0  0  0  0
   27.4347    0.4883   27.0640 C   0  0  0  0  0  0
   28.8178    0.3771   26.9814 C   0  0  0  0  0  0
   25.2850   -0.5419   27.0643 O   0  0  0  0  0  0
   33.4162   -3.5985   22.5039 C   0  0  0  0  0  0
   33.4750   -3.0922   21.2529 C   0  0  0  0  0  0
   34.1571   -3.7557   20.1792 C   0  0  0  0  0  0
   33.6600   -4.9961   19.9006 O   0  0  0  0  0  0
   35.0663   -3.2275   19.5455 O   0  0  0  0  0  0
   30.0478    0.4827   29.1395 H   0  0  0  0  0  0
   30.8056    2.5597   28.7338 H   0  0  0  0  0  0
   32.0601    2.2587   29.8915 H   0  0  0  0  0  0
   33.6595   -1.0100   27.2335 H   0  0  0  0  0  0
   33.3805   -2.1209   29.3703 H   0  0  0  0  0  0
   34.7472   -1.0624   29.4538 H   0  0  0  0  0  0
   33.2564   -0.9269   31.4775 H   0  0  0  0  0  0
   33.5291    0.6140   30.7327 H   0  0  0  0  0  0
   31.1754    0.4431   31.2907 H   0  0  0  0  0  0
   31.0389   -1.1354   30.5813 H   0  0  0  0  0  0
   33.1699    3.0941   27.8639 H   0  0  0  0  0  0
   32.2223    2.0438   26.8672 H   0  0  0  0  0  0
   34.5147    1.2513   28.6569 H   0  0  0  0  0  0
   34.3740    1.0813   26.9361 H   0  0  0  0  0  0
   33.8181   -4.1075   25.1246 H   0  0  0  0  0  0
   32.6910   -3.0978   27.0440 H   0  0  0  0  0  0
   30.4359   -0.5814   24.3840 H   0  0  0  0  0  0
   31.4672   -1.7422   22.4716 H   0  0  0  0  0  0
   29.0885   -3.0104   27.0757 H   0  0  0  0  0  0
   26.6261   -2.8091   27.0861 H   0  0  0  0  0  0
   26.9756    1.4651   27.0642 H   0  0  0  0  0  0
   29.4170    1.2745   26.9260 H   0  0  0  0  0  0
   24.9926    0.3668   26.9301 H   0  0  0  0  0  0
   33.8959   -4.5420   22.7095 H   0  0  0  0  0  0
   33.0406   -2.1432   20.9842 H   0  0  0  0  0  0
   32.7927   -5.2176   20.2682 H   0  0  0  0  0  0
  1  9  1  0  0  0
  1  2  1  0  0  0
  1  6  1  0  0  0
  1 29  1  0  0  0
  2  7  1  0  0  0
  2 30  1  0  0  0
  2 31  1  0  0  0
  3  8  1  0  0  0
  3  9  1  0  0  0
  3  4  1  0  0  0
  3 32  1  0  0  0
  4  5  1  0  0  0
  4 33  1  0  0  0
  4 34  1  0  0  0
  5  6  1  0  0  0
  5 35  1  0  0  0
  5 36  1  0  0  0
  6 37  1  0  0  0
  6 38  1  0  0  0
  7  8  1  0  0  0
  7 39  1  0  0  0
  7 40  1  0  0  0
  8 41  1  0  0  0
  8 42  1  0  0  0
  9 16  2  0  0  0
 10 15  1  0  0  0
 10 11  2  0  0  0
 10 43  1  0  0  0
 11 12  1  0  0  0
 11 44  1  0  0  0
 12 16  1  0  0  0
 12 13  2  0  0  0
 13 14  1  0  0  0
 13 45  1  0  0  0
 14 15  2  0  0  0
 14 46  1  0  0  0
 15 24  1  0  0  0
 16 17  1  0  0  0
 17 18  2  0  0  0
 17 22  1  0  0  0
 18 19  1  0  0  0
 18 47  1  0  0  0
 19 20  2  0  0  0
 19 48  1  0  0  0
 20 21  1  0  0  0
 20 23  1  0  0  0
 21 22  2  0  0  0
 21 49  1  0  0  0
 22 50  1  0  0  0
 23 51  1  0  0  0
 24 25  2  0  0  0
 24 52  1  0  0  0
 25 26  1  0  0  0
 25 53  1  0  0  0
 26 27  1  0  0  0
 26 28  2  0  0  0
 27 54  1  0  0  0
M  END
> <s_m_entry_id>
16840

> <s_m_entry_name>
dock_pv.6

> <s_m_Source_Path>
/home/csk/Desktop/cluster/DUD-E-result/esr1

> <s_m_Source_File>
dock_pv.maegz

> <i_m_Source_File_Index>
6

> <chembl_id>
CHEMBL1090490

> <chembl_pref_name>
None

> <i_lp_mmshare_version>
53161

> <r_lp_tautomer_probability>
1

> <s_lp_Force_Field>
OPLS_2005

> <r_lp_Energy>
42.635554

> <b_lp_Chiralities_Consistent>
1

> <s_lp_Variant>
CHEMBL206_lig30-1

> <s_i_glide_gridfile>
glide-grid_1sj0

> <i_i_glide_lignum>
39

> <i_i_glide_rotatable_bonds>
6

> <r_i_docking_score>
-9.75460624553294

> <r_i_glide_ligand_efficiency>
-0.348378794483319

> <r_i_glide_ligand_efficiency_sa>
-1.05788320418836

> <r_i_glide_ligand_efficiency_ln>
-2.25164952915356

> <r_i_glide_gscore>
-9.75460624553294

> <r_i_glide_lipo>
-5.48892375974939

> <r_i_glide_hbond>
-0.305854152868107

> <r_i_glide_metal>
0

> <r_i_glide_rewards>
-1.68584167564111

> <r_i_glide_evdw>
-42.3312377929688

> <r_i_glide_ecoul>
-4.50146102905273

> <r_i_glide_erotb>
0.551563916147641

> <r_i_glide_esite>
-0.0337695294156277

> <r_i_glide_emodel>
-67.2614991065524

> <r_i_glide_energy>
-46.8326988220215

> <r_i_glide_einternal>
5.46268510818481

> <i_i_glide_confnum>
124

> <i_i_glide_posenum>
29

> <r_i_glide_eff_state_penalty>
0

> <s_user_duplicate_titles>
CHEMBL206_lig30

> <i_f3d_flags>
0

> <s_m_subgroup_title>
dock_pv

> <s_m_subgroupid>
dock_pv

> <b_m_subgroup_collapsed>
1

$$$$
CHEMBL206_lig28
                    3D
 Schrodinger Suite 2021-1.
 58 60  0  0  1  0            999 V2000
   30.9977    0.9781   30.8227 C   0  0  0  0  0  0
   30.3970    1.0249   29.4034 C   0  0  0  0  0  0
   31.1844    0.2744   28.3206 C   0  0  0  0  0  0
   32.5642    0.7445   28.1499 C   0  0  0  0  0  0
   32.8459    1.7345   27.2123 C   0  0  0  0  0  0
   34.1376    2.2076   27.0579 C   0  0  0  0  0  0
   35.1489    1.6976   27.8645 C   0  0  0  0  0  0
   34.8708    0.7204   28.8186 C   0  0  0  0  0  0
   33.5783    0.2394   28.9625 C   0  0  0  0  0  0
   30.6988   -0.7283   27.5339 C   0  0  0  0  0  0
   29.3380   -1.3002   27.6388 C   0  0  0  0  0  0
   28.1930   -0.5045   27.5264 C   0  0  0  0  0  0
   26.9317   -1.0793   27.6312 C   0  0  0  0  0  0
   26.8272   -2.4545   27.8211 C   0  0  0  0  0  0
   25.6088   -3.0351   27.9554 O   0  0  0  0  0  0
   27.9480   -3.2636   27.8829 C   0  0  0  0  0  0
   29.2017   -2.6855   27.8076 C   0  0  0  0  0  0
   31.4820   -1.3479   26.4361 C   0  0  0  0  0  0
   32.3803   -2.3891   26.6789 C   0  0  0  0  0  0
   32.9923   -3.0419   25.6134 C   0  0  0  0  0  0
   32.7331   -2.6557   24.2977 C   0  0  0  0  0  0
   33.3473   -3.3894   23.2988 O   0  0  0  0  0  0
   33.0677   -3.0711   21.9336 C   0  0  0  0  0  0
   33.5463   -4.2017   21.0101 C   0  0  0  0  0  0
   33.6886   -3.7857   19.6076 N   0  0  0  0  0  0
   34.1326   -4.9358   18.8214 C   0  0  0  0  0  0
   32.4441   -3.2794   19.0264 C   0  0  0  0  0  0
   31.8678   -1.5782   24.0612 C   0  0  0  0  0  0
   31.2343   -0.9417   25.1229 C   0  0  0  0  0  0
   30.3350    1.4575   31.5426 H   0  0  0  0  0  0
   31.1646   -0.0507   31.1488 H   0  0  0  0  0  0
   31.9541    1.5080   30.8718 H   0  0  0  0  0  0
   30.3197    2.0672   29.0843 H   0  0  0  0  0  0
   29.3685    0.6796   29.4638 H   0  0  0  0  0  0
   32.0599    2.1337   26.5988 H   0  0  0  0  0  0
   34.3574    2.9589   26.3162 H   0  0  0  0  0  0
   36.1544    2.0676   27.7425 H   0  0  0  0  0  0
   35.6600    0.3334   29.4458 H   0  0  0  0  0  0
   33.3692   -0.5171   29.7049 H   0  0  0  0  0  0
   28.2811    0.5600   27.3625 H   0  0  0  0  0  0
   26.0470   -0.4672   27.5611 H   0  0  0  0  0  0
   25.2579   -3.3420   27.0994 H   0  0  0  0  0  0
   27.8497   -4.3335   28.0031 H   0  0  0  0  0  0
   30.0595   -3.3367   27.8614 H   0  0  0  0  0  0
   32.5784   -2.7131   27.6901 H   0  0  0  0  0  0
   33.6589   -3.8702   25.8008 H   0  0  0  0  0  0
   31.9944   -2.9446   21.7778 H   0  0  0  0  0  0
   33.5692   -2.1378   21.6797 H   0  0  0  0  0  0
   34.5127   -4.5486   21.3735 H   0  0  0  0  0  0
   32.8606   -5.0481   21.0896 H   0  0  0  0  0  0
   34.2889   -4.6561   17.7786 H   0  0  0  0  0  0
   35.0812   -5.3243   19.1948 H   0  0  0  0  0  0
   33.3987   -5.7461   18.8466 H   0  0  0  0  0  0
   32.5889   -3.0097   17.9784 H   0  0  0  0  0  0
   31.6434   -4.0203   19.0728 H   0  0  0  0  0  0
   32.1042   -2.3782   19.5359 H   0  0  0  0  0  0
   31.6603   -1.2278   23.0642 H   0  0  0  0  0  0
   30.5377   -0.1428   24.9220 H   0  0  0  0  0  0
  1  2  1  0  0  0
  1 30  1  0  0  0
  1 31  1  0  0  0
  1 32  1  0  0  0
  2  3  1  0  0  0
  2 33  1  0  0  0
  2 34  1  0  0  0
  3  4  1  0  0  0
  3 10  2  3  0  0
  4  5  1  0  0  0
  4  9  2  0  0  0
  5  6  2  0  0  0
  5 35  1  0  0  0
  6  7  1  0  0  0
  6 36  1  0  0  0
  7  8  2  0  0  0
  7 37  1  0  0  0
  8  9  1  0  0  0
  8 38  1  0  0  0
  9 39  1  0  0  0
 10 11  1  0  0  0
 10 18  1  0  0  0
 11 12  1  0  0  0
 11 17  2  0  0  0
 12 13  2  0  0  0
 12 40  1  0  0  0
 13 14  1  0  0  0
 13 41  1  0  0  0
 14 15  1  0  0  0
 14 16  2  0  0  0
 15 42  1  0  0  0
 16 17  1  0  0  0
 16 43  1  0  0  0
 17 44  1  0  0  0
 18 19  2  0  0  0
 18 29  1  0  0  0
 19 20  1  0  0  0
 19 45  1  0  0  0
 20 21  2  0  0  0
 20 46  1  0  0  0
 21 22  1  0  0  0
 21 28  1  0  0  0
 22 23  1  0  0  0
 23 24  1  0  0  0
 23 47  1  0  0  0
 23 48  1  0  0  0
 24 25  1  0  0  0
 24 49  1  0  0  0
 24 50  1  0  0  0
 25 26  1  0  0  0
 25 27  1  0  0  0
 26 51  1  0  0  0
 26 52  1  0  0  0
 26 53  1  0  0  0
 27 54  1  0  0  0
 27 55  1  0  0  0
 27 56  1  0  0  0
 28 29  2  0  0  0
 28 57  1  0  0  0
 29 58  1  0  0  0
M  END
> <s_m_entry_id>
16841

> <s_m_entry_name>
dock_pv.7

> <s_m_Source_Path>
/home/csk/Desktop/cluster/DUD-E-result/esr1

> <s_m_Source_File>
dock_pv.maegz

> <i_m_Source_File_Index>
7

> <chembl_id>
CHEMBL2137046

> <chembl_pref_name>
AFIMOXIFENE

> <i_lp_mmshare_version>
53161

> <r_lp_tautomer_probability>
1

> <s_lp_Force_Field>
OPLS_2005

> <r_lp_Energy>
36.070553

> <b_lp_Chiralities_Consistent>
1

> <s_lp_Variant>
CHEMBL206_lig28-1

> <s_i_glide_gridfile>
glide-grid_1sj0

> <i_i_glide_lignum>
36

> <i_i_glide_rotatable_bonds>
9

> <r_i_docking_score>
-9.64161970562878

> <r_i_glide_ligand_efficiency>
-0.332469645021682

> <r_i_glide_ligand_efficiency_sa>
-1.0214520832834

> <r_i_glide_ligand_efficiency_ln>
-2.20768642220846

> <r_i_glide_gscore>
-9.64161970562878

> <r_i_glide_lipo>
-5.36987203949828

> <r_i_glide_hbond>
-0.16

> <r_i_glide_metal>
0

> <r_i_glide_rewards>
-1.66694378803043

> <r_i_glide_evdw>
-48.3519172668457

> <r_i_glide_ecoul>
-6.23338031768799

> <r_i_glide_erotb>
0.907799032895416

> <r_i_glide_esite>
0

> <r_i_glide_emodel>
-80.1918010621669

> <r_i_glide_energy>
-54.5852975845337

> <r_i_glide_einternal>
11.9996633529663

> <i_i_glide_confnum>
2

> <i_i_glide_posenum>
365

> <r_i_glide_eff_state_penalty>
0

> <s_user_duplicate_titles>
CHEMBL206_lig28,6402

> <i_f3d_flags>
0

> <s_m_subgroup_title>
dock_pv

> <s_m_subgroupid>
dock_pv

> <b_m_subgroup_collapsed>
1

$$$$
CHEMBL206_lig2
                    3D
 Schrodinger Suite 2021-1.
 68 72  0  0  1  0            999 V2000
   30.1554   -0.9505   28.4044 C   0  0  2  0  0  0
   33.0801   -0.2425   28.4041 C   0  0  2  0  0  0
   30.6705    0.5060   28.4924 C   0  0  2  0  0  0
   35.4565   -2.6863   19.3107 S   0  0  0  0  0  0
   31.2231   -1.9398   27.7644 C   0  0  2  0  0  0
   32.0144    0.5006   29.2246 C   0  0  2  0  0  0
   28.7194   -0.9692   27.8569 C   0  0  0  0  0  0
   32.6224   -1.7313   28.4290 C   0  0  0  0  0  0
   27.9408    0.2176   27.7986 C   0  0  0  0  0  0
   29.6630    1.4972   29.0771 C   0  0  0  0  0  0
   32.6350    1.8281   29.5619 C   0  0  0  0  0  0
   31.3847   -2.0345   26.2548 C   0  0  0  0  0  0
   28.1417   -2.1594   27.4018 C   0  0  0  0  0  0
   34.3354    0.0439   29.2627 C   0  0  2  0  0  0
   34.2984   -1.9720   18.7638 O   0  0  0  0  0  0
   36.2278   -3.6260   18.4908 O   0  0  0  0  0  0
   28.4879    1.5974   28.1278 C   0  0  0  0  0  0
   26.6359    0.1593   27.3443 C   0  0  0  0  0  0
   34.9998   -3.4703   20.7127 O   0  0  0  0  0  0
   34.1198    1.4581   29.7869 C   0  0  0  0  0  0
   30.7560   -1.1588   25.3824 C   0  0  0  0  0  0
   32.2228   -3.0369   25.7487 C   0  0  0  0  0  0
   26.1013   -1.0031   26.8386 C   0  0  0  0  0  0
   36.6465   -1.4419   20.0635 C   0  0  0  0  0  0
   26.8594   -2.1719   26.8749 C   0  0  0  0  0  0
   33.2689    0.3810   26.9703 C   0  0  0  0  0  0
   31.7326   -2.3433   23.4986 C   0  0  0  0  0  0
   30.9277   -1.3216   24.0228 C   0  0  0  0  0  0
   32.4203   -3.1760   24.3845 C   0  0  0  0  0  0
   35.6037   -0.1424   28.6651 O   0  0  0  0  0  0
   34.1106   -2.8097   21.5990 C   0  0  0  0  0  0
   24.8616   -0.9419   26.2649 O   0  0  0  0  0  0
   31.7337   -2.5411   22.1299 O   0  0  0  0  0  0
   32.6909   -3.3991   21.5014 C   0  0  0  0  0  0
   30.0609   -1.2956   29.4378 H   0  0  0  0  0  0
   30.7913    0.8349   27.4687 H   0  0  0  0  0  0
   31.8578   -0.0042   30.1831 H   0  0  0  0  0  0
   30.8338   -2.9378   27.9248 H   0  0  0  0  0  0
   32.5509   -2.0592   29.4630 H   0  0  0  0  0  0
   33.3902   -2.3789   28.0076 H   0  0  0  0  0  0
   30.1158    2.4862   29.1042 H   0  0  0  0  0  0
   29.3901    1.2638   30.1058 H   0  0  0  0  0  0
   32.4855    2.5106   28.7197 H   0  0  0  0  0  0
   32.1507    2.2563   30.4437 H   0  0  0  0  0  0
   28.6927   -3.0877   27.4227 H   0  0  0  0  0  0
   34.3042   -0.6137   30.1313 H   0  0  0  0  0  0
   28.8138    2.0570   27.1924 H   0  0  0  0  0  0
   27.7228    2.2598   28.5340 H   0  0  0  0  0  0
   26.0604    1.0650   27.2986 H   0  0  0  0  0  0
   34.7578    2.1470   29.2270 H   0  0  0  0  0  0
   34.3851    1.5593   30.8345 H   0  0  0  0  0  0
   30.1114   -0.3677   25.7275 H   0  0  0  0  0  0
   32.7124   -3.7355   26.4113 H   0  0  0  0  0  0
   37.1678   -0.9449   19.2475 H   0  0  0  0  0  0
   37.3610   -1.9766   20.6871 H   0  0  0  0  0  0
   36.0879   -0.7155   20.6523 H   0  0  0  0  0  0
   26.4621   -3.1004   26.4974 H   0  0  0  0  0  0
   34.2163    0.9099   26.8853 H   0  0  0  0  0  0
   33.2582   -0.3586   26.1788 H   0  0  0  0  0  0
   32.5719    1.1584   26.6785 H   0  0  0  0  0  0
   30.3621   -0.6343   23.4336 H   0  0  0  0  0  0
   33.0462   -3.9835   24.0392 H   0  0  0  0  0  0
   36.2591    0.4448   29.0644 H   0  0  0  0  0  0
   34.5094   -2.9188   22.6059 H   0  0  0  0  0  0
   34.0625   -1.7422   21.4008 H   0  0  0  0  0  0
   24.6254   -1.8050   25.8702 H   0  0  0  0  0  0
   32.4062   -3.4883   20.4515 H   0  0  0  0  0  0
   32.6449   -4.4132   21.9021 H   0  0  0  0  0  0
  1  3  1  0  0  0
  1  5  1  0  0  0
  1  7  1  0  0  0
  1 35  1  0  0  0
  2  8  1  0  0  0
  2 14  1  0  0  0
  2 26  1  0  0  0
  2  6  1  0  0  0
  3  6  1  0  0  0
  3 10  1  0  0  0
  3 36  1  0  0  0
  4 19  1  0  0  0
  4 15  2  0  0  0
  4 16  2  0  0  0
  4 24  1  0  0  0
  5  8  1  0  0  0
  5 12  1  0  0  0
  5 38  1  0  0  0
  6 11  1  0  0  0
  6 37  1  0  0  0
  7  9  2  0  0  0
  7 13  1  0  0  0
  8 39  1  0  0  0
  8 40  1  0  0  0
  9 17  1  0  0  0
  9 18  1  0  0  0
 10 17  1  0  0  0
 10 41  1  0  0  0
 10 42  1  0  0  0
 11 20  1  0  0  0
 11 43  1  0  0  0
 11 44  1  0  0  0
 12 21  2  0  0  0
 12 22  1  0  0  0
 13 25  2  0  0  0
 13 45  1  0  0  0
 14 30  1  0  0  0
 14 20  1  0  0  0
 14 46  1  0  0  0
 17 47  1  0  0  0
 17 48  1  0  0  0
 18 23  2  0  0  0
 18 49  1  0  0  0
 19 31  1  0  0  0
 20 50  1  0  0  0
 20 51  1  0  0  0
 21 28  1  0  0  0
 21 52  1  0  0  0
 22 29  2  0  0  0
 22 53  1  0  0  0
 23 25  1  0  0  0
 23 32  1  0  0  0
 24 54  1  0  0  0
 24 55  1  0  0  0
 24 56  1  0  0  0
 25 57  1  0  0  0
 26 58  1  0  0  0
 26 59  1  0  0  0
 26 60  1  0  0  0
 27 29  1  0  0  0
 27 33  1  0  0  0
 27 28  2  0  0  0
 28 61  1  0  0  0
 29 62  1  0  0  0
 30 63  1  0  0  0
 31 34  1  0  0  0
 31 64  1  0  0  0
 31 65  1  0  0  0
 32 66  1  0  0  0
 33 34  1  0  0  0
 34 67  1  0  0  0
 34 68  1  0  0  0
M  END
> <s_m_entry_id>
16842

> <s_m_entry_name>
dock_pv.8

> <s_m_Source_Path>
/home/csk/Desktop/cluster/DUD-E-result/esr1

> <s_m_Source_File>
dock_pv.maegz

> <i_m_Source_File_Index>
8

> <chembl_id>
CHEMBL1627672

> <chembl_pref_name>
None

> <i_lp_mmshare_version>
53161

> <r_lp_tautomer_probability>
0.999999999997365

> <s_lp_Force_Field>
OPLS_2005

> <r_lp_Energy>
52.719247

> <b_lp_Chiralities_Consistent>
1

> <s_lp_Variant>
CHEMBL206_lig2-1

> <s_i_glide_gridfile>
glide-grid_1sj0

> <i_i_glide_lignum>
2

> <i_i_glide_rotatable_bonds>
8

> <r_i_docking_score>
-9.61322562602609

> <r_i_glide_ligand_efficiency>
-0.282741930177238

> <r_i_glide_ligand_efficiency_sa>
-0.915974092641469

> <r_i_glide_ligand_efficiency_ln>
-2.1238311826346

> <r_i_glide_gscore>
-9.61322562602609

> <r_i_glide_lipo>
-5.79634476794625

> <r_i_glide_hbond>
-0.536127394280332

> <r_i_glide_metal>
0

> <r_i_glide_rewards>
-1.03448677717597

> <r_i_glide_evdw>
-34.8655242919922

> <r_i_glide_ecoul>
-5.34203672409058

> <r_i_glide_erotb>
0.300389848203803

> <r_i_glide_esite>
-0.00207481161414498

> <r_i_glide_emodel>
-49.2191204631621

> <r_i_glide_energy>
-40.2075610160828

> <r_i_glide_einternal>
7.90324592590332

> <i_i_glide_confnum>
2

> <i_i_glide_posenum>
2

> <r_i_glide_eff_state_penalty>
0

> <s_user_duplicate_titles>
CHEMBL206_lig2

> <i_f3d_flags>
0

> <s_m_subgroup_title>
dock_pv

> <s_m_subgroupid>
dock_pv

> <b_m_subgroup_collapsed>
1

$$$$
CHEMBL206_lig4
                    3D
 Schrodinger Suite 2021-1.
 71 75  0  0  1  0            999 V2000
   30.0205   -0.8927   28.3985 C   0  0  2  0  0  0
   32.9391   -0.3864   28.5889 C   0  0  2  0  0  0
   30.5990    0.5569   28.4339 C   0  0  2  0  0  0
   31.0186   -1.9968   27.8946 C   0  0  2  0  0  0
   31.8999    0.5352   29.2364 C   0  0  2  0  0  0
   28.5865   -0.9176   27.8650 C   0  0  0  0  0  0
   32.3541   -1.8203   28.6997 C   0  0  0  0  0  0
   27.8695    0.2898   27.6839 C   0  0  0  0  0  0
   29.5852    1.5764   28.9622 C   0  0  0  0  0  0
   35.2889   -2.4720   19.8038 C   0  0  0  0  0  0
   32.6043    1.8435   29.5020 C   0  0  0  0  0  0
   31.2886   -2.1414   26.3905 C   0  0  0  0  0  0
   27.9240   -2.1302   27.6340 C   0  0  0  0  0  0
   34.1573   -0.0697   29.4843 C   0  0  2  0  0  0
   34.5557   -3.5741   20.1018 N   0  0  0  0  0  0
   28.4659    1.6668   27.9372 C   0  0  0  0  0  0
   26.5634    0.2328   27.2455 C   0  0  0  0  0  0
   35.7266   -1.7108   20.6637 O   0  0  0  0  0  0
   34.0842    1.4532   29.7080 C   0  0  0  0  0  0
   30.8121   -1.2312   25.4484 C   0  0  0  0  0  0
   32.1411   -3.1715   25.9704 C   0  0  0  0  0  0
   25.9339   -0.9608   26.9743 C   0  0  0  0  0  0
   26.6025   -2.1524   27.2130 C   0  0  0  0  0  0
   33.3035   -0.0349   27.1282 C   0  0  0  0  0  0
   32.0598   -2.3586   23.6994 C   0  0  0  0  0  0
   32.5409   -3.2688   24.6435 C   0  0  0  0  0  0
   31.2251   -1.3220   24.1263 C   0  0  0  0  0  0
   35.4203   -0.5420   29.0641 O   0  0  0  0  0  0
   35.6059   -2.1437   18.3427 C   0  0  0  0  0  0
   34.0603   -1.3428   17.3780 Br  0  0  0  0  0  0
   32.3806   -2.4321   22.3576 O   0  0  0  0  0  0
   24.6844   -0.9421   26.4317 O   0  0  0  0  0  0
   32.6528   -3.7144   21.7797 C   0  0  0  0  0  0
   34.1597   -3.8998   21.4809 C   0  0  0  0  0  0
   34.1862   -4.5907   19.1098 C   0  0  0  0  0  0
   29.8972   -1.1809   29.4420 H   0  0  0  0  0  0
   30.8017    0.8725   27.4170 H   0  0  0  0  0  0
   31.6436    0.1415   30.2264 H   0  0  0  0  0  0
   30.5212   -2.9394   28.1309 H   0  0  0  0  0  0
   32.1380   -1.9646   29.7457 H   0  0  0  0  0  0
   33.0957   -2.5831   28.4557 H   0  0  0  0  0  0
   30.0403    2.5618   29.0519 H   0  0  0  0  0  0
   29.2537    1.3351   29.9705 H   0  0  0  0  0  0
   32.4596    2.5402   28.6697 H   0  0  0  0  0  0
   32.1787    2.2580   30.4133 H   0  0  0  0  0  0
   28.4143   -3.0766   27.7995 H   0  0  0  0  0  0
   33.9785   -0.5371   30.4529 H   0  0  0  0  0  0
   28.8509    2.0600   26.9945 H   0  0  0  0  0  0
   27.7002    2.3651   28.2732 H   0  0  0  0  0  0
   26.0603    1.1566   27.0644 H   0  0  0  0  0  0
   34.7098    1.9651   28.9746 H   0  0  0  0  0  0
   34.4614    1.7443   30.6856 H   0  0  0  0  0  0
   30.1651   -0.4169   25.7295 H   0  0  0  0  0  0
   32.5302   -3.8876   26.6781 H   0  0  0  0  0  0
   26.1142   -3.1030   27.0645 H   0  0  0  0  0  0
   34.1428    0.6587   27.0609 H   0  0  0  0  0  0
   33.5852   -0.9765   26.6655 H   0  0  0  0  0  0
   32.5315    0.4066   26.5117 H   0  0  0  0  0  0
   33.2334   -4.0475   24.3604 H   0  0  0  0  0  0
   30.8692   -0.5632   23.4549 H   0  0  0  0  0  0
   36.1049    0.0692   29.3581 H   0  0  0  0  0  0
   35.9328   -3.0256   17.7950 H   0  0  0  0  0  0
   36.4234   -1.4260   18.2971 H   0  0  0  0  0  0
   24.4594   -1.8338   26.0972 H   0  0  0  0  0  0
   32.0673   -3.7931   20.8632 H   0  0  0  0  0  0
   32.2778   -4.5449   22.3819 H   0  0  0  0  0  0
   34.4199   -4.9433   21.6564 H   0  0  0  0  0  0
   34.7426   -3.3629   22.2315 H   0  0  0  0  0  0
   34.9527   -5.3674   19.0642 H   0  0  0  0  0  0
   33.2505   -5.0851   19.3770 H   0  0  0  0  0  0
   34.0508   -4.1774   18.1076 H   0  0  0  0  0  0
  1  3  1  0  0  0
  1  4  1  0  0  0
  1  6  1  0  0  0
  1 36  1  0  0  0
  2  7  1  0  0  0
  2 14  1  0  0  0
  2 24  1  0  0  0
  2  5  1  0  0  0
  3  5  1  0  0  0
  3  9  1  0  0  0
  3 37  1  0  0  0
  4  7  1  0  0  0
  4 12  1  0  0  0
  4 39  1  0  0  0
  5 11  1  0  0  0
  5 38  1  0  0  0
  6  8  2  0  0  0
  6 13  1  0  0  0
  7 40  1  0  0  0
  7 41  1  0  0  0
  8 16  1  0  0  0
  8 17  1  0  0  0
  9 16  1  0  0  0
  9 42  1  0  0  0
  9 43  1  0  0  0
 10 15  1  0  0  0
 10 18  2  0  0  0
 10 29  1  0  0  0
 11 19  1  0  0  0
 11 44  1  0  0  0
 11 45  1  0  0  0
 12 20  1  0  0  0
 12 21  2  0  0  0
 13 23  2  0  0  0
 13 46  1  0  0  0
 14 28  1  0  0  0
 14 19  1  0  0  0
 14 47  1  0  0  0
 15 34  1  0  0  0
 15 35  1  0  0  0
 16 48  1  0  0  0
 16 49  1  0  0  0
 17 22  2  0  0  0
 17 50  1  0  0  0
 19 51  1  0  0  0
 19 52  1  0  0  0
 20 27  2  0  0  0
 20 53  1  0  0  0
 21 26  1  0  0  0
 21 54  1  0  0  0
 22 23  1  0  0  0
 22 32  1  0  0  0
 23 55  1  0  0  0
 24 56  1  0  0  0
 24 57  1  0  0  0
 24 58  1  0  0  0
 25 26  2  0  0  0
 25 31  1  0  0  0
 25 27  1  0  0  0
 26 59  1  0  0  0
 27 60  1  0  0  0
 28 61  1  0  0  0
 29 30  1  0  0  0
 29 62  1  0  0  0
 29 63  1  0  0  0
 31 33  1  0  0  0
 32 64  1  0  0  0
 33 34  1  0  0  0
 33 65  1  0  0  0
 33 66  1  0  0  0
 34 67  1  0  0  0
 34 68  1  0  0  0
 35 69  1  0  0  0
 35 70  1  0  0  0
 35 71  1  0  0  0
M  END
> <s_m_entry_id>
16843

> <s_m_entry_name>
dock_pv.9

> <s_m_Source_Path>
/home/csk/Desktop/cluster/DUD-E-result/esr1

> <s_m_Source_File>
dock_pv.maegz

> <i_m_Source_File_Index>
9

> <chembl_id>
CHEMBL1627663

> <chembl_pref_name>
None

> <i_lp_mmshare_version>
53161

> <r_lp_tautomer_probability>
0.999999999997365

> <s_lp_Force_Field>
OPLS_2005

> <r_lp_Energy>
67.641285

> <b_lp_Chiralities_Consistent>
1

> <s_lp_Variant>
CHEMBL206_lig4-1

> <s_i_glide_gridfile>
glide-grid_1sj0

> <i_i_glide_lignum>
4

> <i_i_glide_rotatable_bonds>
9

> <r_i_docking_score>
-9.5427365562911

> <r_i_glide_ligand_efficiency>
-0.272649615894031

> <r_i_glide_ligand_efficiency_sa>
-0.891854971979874

> <r_i_glide_ligand_efficiency_ln>
-2.09484246373284

> <r_i_glide_gscore>
-9.5427365562911

> <r_i_glide_lipo>
-5.69167138968477

> <r_i_glide_hbond>
-0.523065716988883

> <r_i_glide_metal>
0

> <r_i_glide_rewards>
-0.912449336087871

> <r_i_glide_evdw>
-32.3744506835938

> <r_i_glide_ecoul>
-7.12426710128784

> <r_i_glide_erotb>
0.295213317101139

> <r_i_glide_esite>
-0.0234008312578506

> <r_i_glide_emodel>
-44.4666911193989

> <r_i_glide_energy>
-39.4987177848816

> <r_i_glide_einternal>
11.6162023544312

> <i_i_glide_confnum>
4

> <i_i_glide_posenum>
75

> <r_i_glide_eff_state_penalty>
0

> <s_user_duplicate_titles>
CHEMBL206_lig4

> <i_f3d_flags>
0

> <s_m_subgroup_title>
dock_pv

> <s_m_subgroupid>
dock_pv

> <b_m_subgroup_collapsed>
1

$$$$
CHEMBL206_lig268
                    3D
 Schrodinger Suite 2021-1.
 38 39  0  0  1  0            999 V2000
   31.4334   -1.2998   27.3424 C   0  0  0  0  0  0
   30.0981   -0.7491   27.7287 C   0  0  0  0  0  0
   32.6409   -0.4539   27.5307 C   0  0  0  0  0  0
   28.8485   -1.5671   27.6209 C   0  0  0  0  0  0
   31.5812   -2.5341   26.7906 C   0  0  0  0  0  0
   30.0293    0.5207   28.2319 C   0  0  0  0  0  0
   33.6597   -0.7942   28.4263 C   0  0  0  0  0  0
   32.6974    0.7681   26.8582 C   0  0  0  0  0  0
   28.8238   -2.8531   28.1717 C   0  0  0  0  0  0
   27.6621   -1.0608   27.0706 C   0  0  0  0  0  0
   26.4601   -2.9730   27.9026 C   0  0  0  0  0  0
   34.6983    1.3379   28.0084 C   0  0  0  0  0  0
   27.6492   -3.5786   28.2641 C   0  0  0  0  0  0
   34.6978    0.1062   28.6628 C   0  0  0  0  0  0
   26.4600   -1.7419   27.2467 C   0  0  0  0  0  0
   33.7129    1.6734   27.0971 C   0  0  0  0  0  0
   35.6600    2.2580   28.2639 O   0  0  0  0  0  0
   25.2911   -3.5820   28.2639 O   0  0  0  0  0  0
   32.8604   -3.2072   26.3198 C   0  0  0  0  0  0
   28.8602    1.3691   28.6640 C   0  0  0  0  0  0
   30.7223   -3.1579   26.6099 H   0  0  0  0  0  0
   30.9164    1.1014   28.3991 H   0  0  0  0  0  0
   33.6292   -1.7316   28.9627 H   0  0  0  0  0  0
   31.8663    1.0578   26.2485 H   0  0  0  0  0  0
   29.6977   -3.2848   28.6162 H   0  0  0  0  0  0
   27.6517   -0.0949   26.5874 H   0  0  0  0  0  0
   27.6468   -4.5423   28.7505 H   0  0  0  0  0  0
   35.4764   -0.1421   29.3690 H   0  0  0  0  0  0
   25.5334   -1.3003   26.9113 H   0  0  0  0  0  0
   33.7193    2.6358   26.6072 H   0  0  0  0  0  0
   36.4471    1.8610   28.6641 H   0  0  0  0  0  0
   24.8073   -3.7351   27.4306 H   0  0  0  0  0  0
   33.1208   -4.0276   26.9889 H   0  0  0  0  0  0
   32.7147   -3.6160   25.3199 H   0  0  0  0  0  0
   33.7052   -2.5241   26.2680 H   0  0  0  0  0  0
   29.0003    1.6881   29.6965 H   0  0  0  0  0  0
   28.7962    2.2580   28.0372 H   0  0  0  0  0  0
   27.9223    0.8496   28.5916 H   0  0  0  0  0  0
  1  2  1  0  0  0
  1  3  1  0  0  0
  1  5  2  0  0  0
  2  4  1  0  0  0
  2  6  2  0  0  0
  3  7  1  0  0  0
  3  8  2  0  0  0
  4  9  2  0  0  0
  4 10  1  0  0  0
  5 19  1  0  0  0
  5 21  1  0  0  0
  6 20  1  0  0  0
  6 22  1  0  0  0
  7 14  2  0  0  0
  7 23  1  0  0  0
  8 16  1  0  0  0
  8 24  1  0  0  0
  9 13  1  0  0  0
  9 25  1  0  0  0
 10 15  2  0  0  0
 10 26  1  0  0  0
 11 15  1  0  0  0
 11 18  1  0  0  0
 11 13  2  0  0  0
 12 16  2  0  0  0
 12 17  1  0  0  0
 12 14  1  0  0  0
 13 27  1  0  0  0
 14 28  1  0  0  0
 15 29  1  0  0  0
 16 30  1  0  0  0
 17 31  1  0  0  0
 18 32  1  0  0  0
 19 33  1  0  0  0
 19 34  1  0  0  0
 19 35  1  0  0  0
 20 36  1  0  0  0
 20 37  1  0  0  0
 20 38  1  0  0  0
M  END
> <s_m_entry_id>
16844

> <s_m_entry_name>
dock_pv.10

> <s_m_Source_Path>
/home/csk/Desktop/cluster/DUD-E-result/esr1

> <s_m_Source_File>
dock_pv.maegz

> <i_m_Source_File_Index>
10

> <chembl_id>
CHEMBL1018

> <chembl_pref_name>
DIENESTROL

> <i_lp_mmshare_version>
53161

> <r_lp_tautomer_probability>
1

> <s_lp_Force_Field>
OPLS_2005

> <r_lp_Energy>
31.020808

> <b_lp_Chiralities_Consistent>
1

> <s_lp_Variant>
CHEMBL206_lig268-1

> <s_i_glide_gridfile>
glide-grid_1sj0

> <i_i_glide_lignum>
344

> <i_i_glide_rotatable_bonds>
5

> <r_i_docking_score>
-9.39960948633214

> <r_i_glide_ligand_efficiency>
-0.469980474316607

> <r_i_glide_ligand_efficiency_sa>
-1.27572327766672

> <r_i_glide_ligand_efficiency_ln>
-2.35241223455937

> <r_i_glide_gscore>
-9.39960948633214

> <r_i_glide_lipo>
-4.20948611728402

> <r_i_glide_hbond>
-0.456

> <r_i_glide_metal>
0

> <r_i_glide_rewards>
-2.47186187164263

> <r_i_glide_evdw>
-29.4472599029541

> <r_i_glide_ecoul>
-8.78150844573975

> <r_i_glide_erotb>
0.527327764603174

> <r_i_glide_esite>
0

> <r_i_glide_emodel>
-53.2264669285378

> <r_i_glide_energy>
-38.2287683486938

> <r_i_glide_einternal>
10.0160236358643

> <i_i_glide_confnum>
27

> <i_i_glide_posenum>
336

> <r_i_glide_eff_state_penalty>
0

> <s_user_duplicate_titles>
CHEMBL206_lig268

> <i_f3d_flags>
0

> <s_m_subgroup_title>
dock_pv

> <s_m_subgroupid>
dock_pv

> <b_m_subgroup_collapsed>
1

$$$$
CHEMBL206_lig326
                    3D
 Schrodinger Suite 2021-1.
 39 41  0  0  1  0            999 V2000
   26.8600    0.6211   27.4640 C   0  0  0  0  0  0
   25.9636   -0.4252   27.2683 C   0  0  0  0  0  0
   26.4017   -1.7420   27.2347 C   0  0  0  0  0  0
   27.7601   -2.0183   27.2831 C   0  0  0  0  0  0
   28.6695   -0.9590   27.3540 C   0  0  0  0  0  0
   28.2161    0.3583   27.4993 C   0  0  0  0  0  0
   30.1119   -1.2327   27.1983 C   0  0  0  0  0  0
   30.7131   -0.1919   26.5646 O   0  0  0  0  0  0
   30.6406   -2.3153   27.4512 O   0  0  0  0  0  0
   24.6414   -0.1420   27.0640 O   0  0  0  0  0  0
   32.0543   -0.1752   26.0990 C   0  0  0  0  0  0
   32.3829   -1.3640   25.1830 C   0  0  0  0  0  0
   33.0318    0.2540   27.1993 C   0  0  0  0  0  0
   31.8264   -1.3816   23.8990 C   0  0  0  0  0  0
   32.1510   -2.3991   23.0068 C   0  0  0  0  0  0
   33.0543   -3.3842   23.3885 C   0  0  0  0  0  0
   33.6022   -3.3777   24.6671 C   0  0  0  0  0  0
   33.2392   -2.3953   25.5773 C   0  0  0  0  0  0
   33.7857    1.4206   27.0119 C   0  0  0  0  0  0
   34.7239    1.8027   27.9633 C   0  0  0  0  0  0
   34.8600    1.0608   29.1315 C   0  0  0  0  0  0
   34.0785   -0.0669   29.3537 C   0  0  0  0  0  0
   33.1724   -0.4774   28.3847 C   0  0  0  0  0  0
   26.5111    1.6412   27.5163 H   0  0  0  0  0  0
   25.6909   -2.5420   27.1033 H   0  0  0  0  0  0
   28.0925   -3.0437   27.1841 H   0  0  0  0  0  0
   28.9027    1.1896   27.5854 H   0  0  0  0  0  0
   24.4600    0.8185   27.0640 H   0  0  0  0  0  0
   32.0600    0.6580   25.4021 H   0  0  0  0  0  0
   31.1475   -0.6008   23.5890 H   0  0  0  0  0  0
   31.7201   -2.4172   22.0161 H   0  0  0  0  0  0
   33.3229   -4.1648   22.6911 H   0  0  0  0  0  0
   34.3008   -4.1420   24.9627 H   0  0  0  0  0  0
   33.6600   -2.4141   26.5697 H   0  0  0  0  0  0
   33.6921    1.9996   26.1043 H   0  0  0  0  0  0
   35.3577    2.6580   27.7950 H   0  0  0  0  0  0
   35.5940    1.3615   29.8640 H   0  0  0  0  0  0
   34.1880   -0.6340   30.2640 H   0  0  0  0  0  0
   32.6033   -1.3748   28.5641 H   0  0  0  0  0  0
  1  6  1  0  0  0
  1  2  2  0  0  0
  1 24  1  0  0  0
  2 10  1  0  0  0
  2  3  1  0  0  0
  3  4  2  0  0  0
  3 25  1  0  0  0
  4  5  1  0  0  0
  4 26  1  0  0  0
  5  6  2  0  0  0
  5  7  1  0  0  0
  6 27  1  0  0  0
  7  8  1  0  0  0
  7  9  2  0  0  0
  8 11  1  0  0  0
 10 28  1  0  0  0
 11 12  1  0  0  0
 11 13  1  0  0  0
 11 29  1  0  0  0
 12 14  2  0  0  0
 12 18  1  0  0  0
 13 19  2  0  0  0
 13 23  1  0  0  0
 14 15  1  0  0  0
 14 30  1  0  0  0
 15 16  2  0  0  0
 15 31  1  0  0  0
 16 17  1  0  0  0
 16 32  1  0  0  0
 17 18  2  0  0  0
 17 33  1  0  0  0
 18 34  1  0  0  0
 19 20  1  0  0  0
 19 35  1  0  0  0
 20 21  2  0  0  0
 20 36  1  0  0  0
 21 22  1  0  0  0
 21 37  1  0  0  0
 22 23  2  0  0  0
 22 38  1  0  0  0
 23 39  1  0  0  0
M  END
> <s_m_entry_id>
16845

> <s_m_entry_name>
dock_pv.11

> <s_m_Source_Path>
/home/csk/Desktop/cluster/DUD-E-result/esr1

> <s_m_Source_File>
dock_pv.maegz

> <i_m_Source_File_Index>
11

> <chembl_id>
CHEMBL2071180

> <chembl_pref_name>
None

> <i_lp_mmshare_version>
53161

> <r_lp_tautomer_probability>
1

> <s_lp_Force_Field>
OPLS_2005

> <r_lp_Energy>
19.91792

> <b_lp_Chiralities_Consistent>
1

> <s_lp_Variant>
CHEMBL206_lig326-1

> <s_i_glide_gridfile>
glide-grid_1sj0

> <i_i_glide_lignum>
418

> <i_i_glide_rotatable_bonds>
6

> <r_i_docking_score>
-9.39015127867353

> <r_i_glide_ligand_efficiency>
-0.408267446898849

> <r_i_glide_ligand_efficiency_sa>
-1.16105830997044

> <r_i_glide_ligand_efficiency_ln>
-2.27062372436756

> <r_i_glide_gscore>
-9.39015127867353

> <r_i_glide_lipo>
-4.80288746429314

> <r_i_glide_hbond>
-0.362281387910648

> <r_i_glide_metal>
0

> <r_i_glide_rewards>
-2.30868950457996

> <r_i_glide_evdw>
-32.9156379699707

> <r_i_glide_ecoul>
-8.4399356842041

> <r_i_glide_erotb>
0.995479329239359

> <r_i_glide_esite>
0

> <r_i_glide_emodel>
-64.3765985241814

> <r_i_glide_energy>
-41.3555736541748

> <r_i_glide_einternal>
4.12595796585083

> <i_i_glide_confnum>
20

> <i_i_glide_posenum>
328

> <r_i_glide_eff_state_penalty>
0

> <s_user_duplicate_titles>
CHEMBL206_lig326

> <i_f3d_flags>
0

> <s_m_subgroup_title>
dock_pv

> <s_m_subgroupid>
dock_pv

> <b_m_subgroup_collapsed>
1

$$$$
CHEMBL206_lig24
                    3D
 Schrodinger Suite 2021-1.
 44 46  0  0  1  0            999 V2000
   33.4695   -3.4263   24.6360 C   0  0  0  0  0  0
   33.0286   -2.9963   23.3947 C   0  0  0  0  0  0
   32.0111   -2.0557   23.3058 C   0  0  0  0  0  0
   31.4650   -1.5082   24.4668 C   0  0  0  0  0  0
   31.9005   -1.9440   25.7255 C   0  0  0  0  0  0
   32.8599   -2.9603   25.7924 C   0  0  0  0  0  0
   33.5963   -3.5160   22.2641 O   0  0  0  0  0  0
   31.3685   -1.3234   26.9709 C   0  0  0  0  0  0
   32.1781   -0.7224   27.9059 C   0  0  0  0  0  0
   31.7230   -0.0284   29.1346 C   0  0  0  0  0  0
   33.7002   -0.6240   27.7732 C   0  0  0  0  0  0
   34.2126    0.7964   27.4652 C   0  0  0  0  0  0
   29.8929   -1.4813   27.1023 C   0  0  0  0  0  0
   28.9932   -0.4929   26.6859 C   0  0  0  0  0  0
   27.6244   -0.6677   26.8796 C   0  0  0  0  0  0
   27.1379   -1.8827   27.3519 C   0  0  0  0  0  0
   28.0159   -2.9029   27.6972 C   0  0  0  0  0  0
   29.3863   -2.6875   27.5907 C   0  0  0  0  0  0
   30.6136    0.8146   29.1143 C   0  0  0  0  0  0
   30.2079    1.4579   30.2640 C   0  0  0  0  0  0
   30.9906    1.3804   31.4125 C   0  0  0  0  0  0
   32.1660    0.6580   31.4121 C   0  0  0  0  0  0
   32.4717   -0.1250   30.3190 C   0  0  0  0  0  0
   25.7881   -2.0773   27.4641 O   0  0  0  0  0  0
   34.2674   -4.1444   24.7012 H   0  0  0  0  0  0
   31.6593   -1.7419   22.3376 H   0  0  0  0  0  0
   30.7054   -0.7448   24.3829 H   0  0  0  0  0  0
   33.1862   -3.3452   26.7480 H   0  0  0  0  0  0
   33.1094   -3.3114   21.4625 H   0  0  0  0  0  0
   34.2176   -0.9966   28.6518 H   0  0  0  0  0  0
   34.0598   -1.3418   27.0642 H   0  0  0  0  0  0
   35.3033    0.8255   27.4627 H   0  0  0  0  0  0
   33.8624    1.1417   26.4921 H   0  0  0  0  0  0
   33.8799    1.5170   28.2131 H   0  0  0  0  0  0
   29.3543    0.4334   26.2624 H   0  0  0  0  0  0
   26.9330    0.1311   26.6640 H   0  0  0  0  0  0
   27.6412   -3.8506   28.0550 H   0  0  0  0  0  0
   30.0589   -3.4812   27.8587 H   0  0  0  0  0  0
   30.0532    1.0085   28.2238 H   0  0  0  0  0  0
   29.2798    2.0055   30.2479 H   0  0  0  0  0  0
   30.6833    1.8583   32.3272 H   0  0  0  0  0  0
   32.8229    0.6584   32.2640 H   0  0  0  0  0  0
   33.3349   -0.7604   30.4201 H   0  0  0  0  0  0
   25.4426   -2.7301   26.8261 H   0  0  0  0  0  0
  1  6  1  0  0  0
  1  2  2  0  0  0
  1 25  1  0  0  0
  2  7  1  0  0  0
  2  3  1  0  0  0
  3  4  2  0  0  0
  3 26  1  0  0  0
  4  5  1  0  0  0
  4 27  1  0  0  0
  5  8  1  0  0  0
  5  6  2  0  0  0
  6 28  1  0  0  0
  7 29  1  0  0  0
  8 13  1  0  0  0
  8  9  2  0  0  0
  9 10  1  0  0  0
  9 11  1  0  0  0
 10 19  2  0  0  0
 10 23  1  0  0  0
 11 12  1  0  0  0
 11 30  1  0  0  0
 11 31  1  0  0  0
 12 32  1  0  0  0
 12 33  1  0  0  0
 12 34  1  0  0  0
 13 14  2  0  0  0
 13 18  1  0  0  0
 14 15  1  0  0  0
 14 35  1  0  0  0
 15 16  2  0  0  0
 15 36  1  0  0  0
 16 17  1  0  0  0
 16 24  1  0  0  0
 17 18  2  0  0  0
 17 37  1  0  0  0
 18 38  1  0  0  0
 19 20  1  0  0  0
 19 39  1  0  0  0
 20 21  2  0  0  0
 20 40  1  0  0  0
 21 22  1  0  0  0
 21 41  1  0  0  0
 22 23  2  0  0  0
 22 42  1  0  0  0
 23 43  1  0  0  0
 24 44  1  0  0  0
M  END
> <s_m_entry_id>
16846

> <s_m_entry_name>
dock_pv.12

> <s_m_Source_Path>
/home/csk/Desktop/cluster/DUD-E-result/esr1

> <s_m_Source_File>
dock_pv.maegz

> <i_m_Source_File_Index>
12

> <chembl_id>
CHEMBL149791

> <chembl_pref_name>
None

> <i_lp_mmshare_version>
53161

> <r_lp_tautomer_probability>
1

> <s_lp_Force_Field>
OPLS_2005

> <r_lp_Energy>
27.55692

> <b_lp_Chiralities_Consistent>
1

> <s_lp_Variant>
CHEMBL206_lig24-1

> <s_i_glide_gridfile>
glide-grid_1sj0

> <i_i_glide_lignum>
32

> <i_i_glide_rotatable_bonds>
6

> <r_i_docking_score>
-9.11196688209906

> <r_i_glide_ligand_efficiency>
-0.379665286754127

> <r_i_glide_ligand_efficiency_sa>
-1.09514419220342

> <r_i_glide_ligand_efficiency_ln>
-2.1809117958014

> <r_i_glide_gscore>
-9.11196688209906

> <r_i_glide_lipo>
-5.58934389614162

> <r_i_glide_hbond>
-0.16

> <r_i_glide_metal>
0

> <r_i_glide_rewards>
-2.1027690749609

> <r_i_glide_evdw>
-26.5369186401367

> <r_i_glide_ecoul>
-4.51250553131104

> <r_i_glide_erotb>
0.743867850706961

> <r_i_glide_esite>
0

> <r_i_glide_emodel>
-39.8921340456883

> <r_i_glide_energy>
-31.0494241714478

> <r_i_glide_einternal>
8.42567729949951

> <i_i_glide_confnum>
158

> <i_i_glide_posenum>
25

> <r_i_glide_eff_state_penalty>
0

> <s_user_duplicate_titles>
CHEMBL206_lig24,250585

> <i_f3d_flags>
0

> <s_m_subgroup_title>
dock_pv

> <s_m_subgroupid>
dock_pv

> <b_m_subgroup_collapsed>
1

$$$$
CHEMBL206_lig32
                    3D
 Schrodinger Suite 2021-1.
 27 28  0  0  1  0            999 V2000
   31.7452   -0.7399   27.7812 N   0  0  0  0  0  0
   32.7810   -0.8125   28.6628 C   0  0  0  0  0  0
   33.3804    0.4849   29.2669 C   0  0  0  0  0  0
   30.9218    0.4721   27.6066 C   0  0  0  0  0  0
   29.4223    0.1677   27.5786 C   0  0  0  0  0  0
   28.9404   -1.1565   27.4995 C   0  0  0  0  0  0
   31.2990   -1.9236   27.0231 C   0  0  0  0  0  0
   33.3149   -1.8909   28.9363 O   0  0  0  0  0  0
   27.5685   -1.3821   27.3374 C   0  0  0  0  0  0
   29.9226   -2.3132   27.5919 C   0  0  0  0  0  0
   28.5064    1.2209   27.5818 C   0  0  0  0  0  0
   34.5936    0.2546   29.7677 F   0  0  0  0  0  0
   32.5920    0.9228   30.2512 F   0  0  0  0  0  0
   33.4945    1.4339   28.3335 F   0  0  0  0  0  0
   26.6738   -0.3186   27.3004 C   0  0  0  0  0  0
   27.1435    0.9812   27.4635 C   0  0  0  0  0  0
   25.3425   -0.5409   27.0708 O   0  0  0  0  0  0
   31.1021    1.2240   28.3745 H   0  0  0  0  0  0
   31.1920    0.9323   26.6559 H   0  0  0  0  0  0
   31.2293   -1.7066   25.9560 H   0  0  0  0  0  0
   32.0164   -2.7447   27.0782 H   0  0  0  0  0  0
   27.1910   -2.3893   27.2293 H   0  0  0  0  0  0
   29.5355   -3.1850   27.0639 H   0  0  0  0  0  0
   30.0282   -2.6145   28.6345 H   0  0  0  0  0  0
   28.8566    2.2398   27.6587 H   0  0  0  0  0  0
   26.4604    1.8159   27.4648 H   0  0  0  0  0  0
   24.8733    0.2879   26.9187 H   0  0  0  0  0  0
  1  2  1  0  0  0
  1  4  1  0  0  0
  1  7  1  0  0  0
  2  3  1  0  0  0
  2  8  2  0  0  0
  3 12  1  0  0  0
  3 13  1  0  0  0
  3 14  1  0  0  0
  4  5  1  0  0  0
  4 18  1  0  0  0
  4 19  1  0  0  0
  5  6  1  0  0  0
  5 11  2  0  0  0
  6  9  2  0  0  0
  6 10  1  0  0  0
  7 10  1  0  0  0
  7 20  1  0  0  0
  7 21  1  0  0  0
  9 15  1  0  0  0
  9 22  1  0  0  0
 10 23  1  0  0  0
 10 24  1  0  0  0
 11 16  1  0  0  0
 11 25  1  0  0  0
 15 16  2  0  0  0
 15 17  1  0  0  0
 16 26  1  0  0  0
 17 27  1  0  0  0
M  END
> <s_m_entry_id>
16847

> <s_m_entry_name>
dock_pv.13

> <s_m_Source_Path>
/home/csk/Desktop/cluster/DUD-E-result/esr1

> <s_m_Source_File>
dock_pv.maegz

> <i_m_Source_File_Index>
13

> <chembl_id>
CHEMBL1213617

> <chembl_pref_name>
None

> <i_lp_mmshare_version>
53161

> <r_lp_tautomer_probability>
0.999999999997365

> <s_lp_Force_Field>
OPLS_2005

> <r_lp_Energy>
20.657964

> <b_lp_Chiralities_Consistent>
1

> <s_lp_Variant>
CHEMBL206_lig32-1

> <s_i_glide_gridfile>
glide-grid_1sj0

> <i_i_glide_lignum>
42

> <i_i_glide_rotatable_bonds>
3

> <r_i_docking_score>
-8.7812447840679

> <r_i_glide_ligand_efficiency>
-0.516543810827523

> <r_i_glide_ligand_efficiency_sa>
-1.32817959029492

> <r_i_glide_ligand_efficiency_ln>
-2.29083121545638

> <r_i_glide_gscore>
-8.7812447840679

> <r_i_glide_lipo>
-2.60521407472804

> <r_i_glide_hbond>
-0.3168412777904

> <r_i_glide_metal>
0

> <r_i_glide_rewards>
-4.36846907440786

> <r_i_glide_evdw>
-29.9734840393066

> <r_i_glide_ecoul>
-1.87667620182037

> <r_i_glide_erotb>
0.289455275096791

> <r_i_glide_esite>
0

> <r_i_glide_emodel>
-49.9073010735092

> <r_i_glide_energy>
-31.850160241127

> <r_i_glide_einternal>
0.935895264148712

> <i_i_glide_confnum>
2

> <i_i_glide_posenum>
369

> <r_i_glide_eff_state_penalty>
0

> <s_user_duplicate_titles>
CHEMBL206_lig32,685462

> <i_f3d_flags>
0

> <s_m_subgroup_title>
dock_pv

> <s_m_subgroupid>
dock_pv

> <b_m_subgroup_collapsed>
1

$$$$
CHEMBL206_lig136
                    3D
 Schrodinger Suite 2021-1.
 44 47  0  0  1  0            999 V2000
   33.2591   -4.2000   27.0628 O   0  0  0  0  0  0
   27.4904   -2.6941   27.8640 O   0  0  0  0  0  0
   26.8605   -2.1414   25.7342 O   0  0  0  0  0  0
   32.3741   -2.1751   22.7130 O   0  0  0  0  0  0
   30.1374   -2.1398   26.8573 N   0  0  0  0  0  0
   32.9245   -2.6913   25.4039 N   0  0  0  0  0  0
   31.0944   -1.6555   27.7847 C   0  0  0  0  0  0
   30.7783   -0.5911   28.6462 C   0  0  0  0  0  0
   29.4184    0.0190   28.5093 C   0  0  2  0  0  0
   29.0346    0.0686   27.0452 C   0  0  1  0  0  0
   32.4026   -2.1420   27.7604 C   0  0  0  0  0  0
   28.9799   -1.3425   26.4268 C   0  0  2  0  0  0
   32.8653   -3.1029   26.6974 C   0  0  0  0  0  0
   31.7053   -0.1635   29.6007 C   0  0  0  0  0  0
   29.2169    1.4424   28.9108 C   0  0  0  0  0  0
   27.8365    0.9978   27.0192 C   0  0  0  0  0  0
   33.2959   -1.7420   28.7601 C   0  0  0  0  0  0
   27.7023   -2.1267   26.7927 C   0  0  0  0  0  0
   28.1927    1.8985   28.1745 C   0  0  0  0  0  0
   32.9538   -0.7568   29.6752 C   0  0  0  0  0  0
   32.5136   -1.3527   24.9750 C   0  0  0  0  0  0
   33.5998   -3.5097   24.3707 C   0  0  0  0  0  0
   31.6424   -1.5122   23.7334 C   0  0  0  0  0  0
   32.7380   -3.4979   23.0858 C   0  0  0  0  0  0
   26.0849   -2.7113   25.8641 H   0  0  0  0  0  0
   30.2943   -2.9994   26.3479 H   0  0  0  0  0  0
   28.7309   -0.6266   29.0603 H   0  0  0  0  0  0
   29.8279    0.5841   26.4925 H   0  0  0  0  0  0
   28.9876   -1.2708   25.3390 H   0  0  0  0  0  0
   31.4600    0.6222   30.2990 H   0  0  0  0  0  0
   29.6350    1.8884   29.7992 H   0  0  0  0  0  0
   27.7968    1.5570   26.0845 H   0  0  0  0  0  0
   26.8760    0.4993   27.1545 H   0  0  0  0  0  0
   34.2765   -2.1773   28.8424 H   0  0  0  0  0  0
   27.6583    2.8084   28.3556 H   0  0  0  0  0  0
   33.6608   -0.4437   30.4284 H   0  0  0  0  0  0
   33.4616   -0.9473   24.6608 H   0  0  0  0  0  0
   32.1184   -0.6551   25.7109 H   0  0  0  0  0  0
   33.7056   -4.5409   24.6870 H   0  0  0  0  0  0
   34.5537   -3.0246   24.1691 H   0  0  0  0  0  0
   30.7357   -2.0540   23.9845 H   0  0  0  0  0  0
   31.3132   -0.5400   23.3839 H   0  0  0  0  0  0
   31.8457   -4.1095   23.2083 H   0  0  0  0  0  0
   33.2952   -3.9571   22.2685 H   0  0  0  0  0  0
  1 13  2  0  0  0
  2 18  2  0  0  0
  3 18  1  0  0  0
  3 25  1  0  0  0
  4 23  1  0  0  0
  4 24  1  0  0  0
  5  7  1  0  0  0
  5 12  1  0  0  0
  5 26  1  0  0  0
  6 13  1  0  0  0
  6 21  1  0  0  0
  6 22  1  0  0  0
  7  8  2  0  0  0
  7 11  1  0  0  0
  8  9  1  0  0  0
  8 14  1  0  0  0
  9 10  1  0  0  0
  9 15  1  0  0  0
  9 27  1  0  0  0
 10 12  1  0  0  0
 10 16  1  0  0  0
 10 28  1  0  0  0
 11 13  1  0  0  0
 11 17  2  0  0  0
 12 18  1  0  0  0
 12 29  1  0  0  0
 14 20  2  0  0  0
 14 30  1  0  0  0
 15 19  2  0  0  0
 15 31  1  0  0  0
 16 19  1  0  0  0
 16 32  1  0  0  0
 16 33  1  0  0  0
 17 20  1  0  0  0
 17 34  1  0  0  0
 19 35  1  0  0  0
 20 36  1  0  0  0
 21 23  1  0  0  0
 21 37  1  0  0  0
 21 38  1  0  0  0
 22 24  1  0  0  0
 22 39  1  0  0  0
 22 40  1  0  0  0
 23 41  1  0  0  0
 23 42  1  0  0  0
 24 43  1  0  0  0
 24 44  1  0  0  0
M  END
> <s_m_entry_id>
16848

> <s_m_entry_name>
dock_pv.14

> <s_m_Source_Path>
/home/csk/Desktop/cluster/DUD-E-result/esr1

> <s_m_Source_File>
dock_pv.maegz

> <i_m_Source_File_Index>
14

> <chembl_id>
CHEMBL1570659

> <chembl_pref_name>
None

> <i_lp_mmshare_version>
53161

> <r_lp_tautomer_probability>
1

> <s_lp_Force_Field>
OPLS_2005

> <r_lp_Energy>
62.526151

> <b_lp_Chiralities_Consistent>
1

> <s_lp_Variant>
CHEMBL206_lig136-3

> <s_i_glide_gridfile>
glide-grid_1sj0

> <i_i_glide_lignum>
165

> <i_i_glide_rotatable_bonds>
4

> <r_i_docking_score>
-8.75804912519299

> <r_i_glide_ligand_efficiency>
-0.364918713549708

> <r_i_glide_ligand_efficiency_sa>
-1.05260771451332

> <r_i_glide_ligand_efficiency_ln>
-2.09620303634614

> <r_i_glide_gscore>
-8.75804912519299

> <r_i_glide_lipo>
-4.16206485257502

> <r_i_glide_hbond>
0

> <r_i_glide_metal>
0

> <r_i_glide_rewards>
-2.90297070521761

> <r_i_glide_evdw>
-25.685131072998

> <r_i_glide_ecoul>
-6.20867109298706

> <r_i_glide_erotb>
0.522543650197607

> <r_i_glide_esite>
0

> <r_i_glide_emodel>
-44.0529609513236

> <r_i_glide_energy>
-31.8938021659851

> <r_i_glide_einternal>
6.48828935623169

> <i_i_glide_confnum>
9

> <i_i_glide_posenum>
169

> <r_i_glide_eff_state_penalty>
0

> <s_user_duplicate_titles>
CHEMBL206_lig136

> <i_f3d_flags>
0

> <s_m_subgroup_title>
dock_pv

> <s_m_subgroupid>
dock_pv

> <b_m_subgroup_collapsed>
1

$$$$
CHEMBL206_lig253
                    3D
 Schrodinger Suite 2021-1.
 44 45  0  0  1  0            999 V2000
   31.6078   -1.5689   23.8150 C   0  0  0  0  0  0
   32.1950   -2.4768   22.9370 C   0  0  0  0  0  0
   33.2295   -3.3003   23.3782 C   0  0  0  0  0  0
   33.6158   -3.2619   24.7162 C   0  0  0  0  0  0
   32.0083   -1.4960   25.1482 C   0  0  0  0  0  0
   31.7450   -2.5422   21.6462 O   0  0  0  0  0  0
   33.8696   -4.1420   22.5086 O   0  0  0  0  0  0
   31.2717   -0.5187   26.0623 C   0  0  0  0  0  0
   32.0503    0.0958   27.2728 C   0  0  1  0  0  0
   33.1548    1.0499   26.7577 C   0  0  0  0  0  0
   31.2197    0.8194   28.4063 C   0  0  1  0  0  0
   29.6658    0.8548   28.3124 C   0  0  0  0  0  0
   31.7273    0.4779   29.8271 C   0  0  0  0  0  0
   32.9888   -2.3858   25.6057 C   0  0  0  0  0  0
   28.8764   -0.4434   28.1492 C   0  0  0  0  0  0
   29.3999   -1.7087   28.4531 C   0  0  0  0  0  0
   28.7059   -2.8592   28.0888 C   0  0  0  0  0  0
   27.4665   -2.7622   27.4630 C   0  0  0  0  0  0
   26.8944   -1.5028   27.2361 C   0  0  0  0  0  0
   27.6041   -0.3560   27.5780 C   0  0  0  0  0  0
   25.6591   -1.3420   26.6643 O   0  0  0  0  0  0
   26.8600   -3.9198   27.0641 O   0  0  0  0  0  0
   30.8122   -0.9302   23.4640 H   0  0  0  0  0  0
   34.3980   -3.9190   25.0637 H   0  0  0  0  0  0
   32.2667   -3.1157   21.0799 H   0  0  0  0  0  0
   33.2801   -4.6133   21.9129 H   0  0  0  0  0  0
   30.8353    0.2746   25.4648 H   0  0  0  0  0  0
   30.4313   -1.1225   26.3538 H   0  0  0  0  0  0
   32.5500   -0.7393   27.7621 H   0  0  0  0  0  0
   32.7443    2.0129   26.4530 H   0  0  0  0  0  0
   33.9080    1.2409   27.5231 H   0  0  0  0  0  0
   33.6599    0.6580   25.8812 H   0  0  0  0  0  0
   31.4562    1.8825   28.3240 H   0  0  0  0  0  0
   29.2573    1.3859   29.1738 H   0  0  0  0  0  0
   29.4226    1.4834   27.4526 H   0  0  0  0  0  0
   31.5863   -0.5677   30.0932 H   0  0  0  0  0  0
   32.7943    0.6875   29.9188 H   0  0  0  0  0  0
   31.2211    1.0767   30.5855 H   0  0  0  0  0  0
   33.2943   -2.3976   26.6397 H   0  0  0  0  0  0
   30.3787   -1.8227   28.8865 H   0  0  0  0  0  0
   29.1446   -3.8305   28.2641 H   0  0  0  0  0  0
   27.1746    0.6103   27.3544 H   0  0  0  0  0  0
   25.2732   -2.1355   26.2637 H   0  0  0  0  0  0
   26.1096   -3.7940   26.4639 H   0  0  0  0  0  0
  1  5  1  0  0  0
  1  2  2  0  0  0
  1 23  1  0  0  0
  2  3  1  0  0  0
  2  6  1  0  0  0
  3  7  1  0  0  0
  3  4  2  0  0  0
  4 14  1  0  0  0
  4 24  1  0  0  0
  5 14  2  0  0  0
  5  8  1  0  0  0
  6 25  1  0  0  0
  7 26  1  0  0  0
  8  9  1  0  0  0
  8 27  1  0  0  0
  8 28  1  0  0  0
  9 11  1  0  0  0
  9 10  1  0  0  0
  9 29  1  0  0  0
 10 30  1  0  0  0
 10 31  1  0  0  0
 10 32  1  0  0  0
 11 12  1  0  0  0
 11 13  1  0  0  0
 11 33  1  0  0  0
 12 15  1  0  0  0
 12 34  1  0  0  0
 12 35  1  0  0  0
 13 36  1  0  0  0
 13 37  1  0  0  0
 13 38  1  0  0  0
 14 39  1  0  0  0
 15 16  2  0  0  0
 15 20  1  0  0  0
 16 17  1  0  0  0
 16 40  1  0  0  0
 17 18  2  0  0  0
 17 41  1  0  0  0
 18 19  1  0  0  0
 18 22  1  0  0  0
 19 20  2  0  0  0
 19 21  1  0  0  0
 20 42  1  0  0  0
 21 43  1  0  0  0
 22 44  1  0  0  0
M  END
> <s_m_entry_id>
16849

> <s_m_entry_name>
dock_pv.15

> <s_m_Source_Path>
/home/csk/Desktop/cluster/DUD-E-result/esr1

> <s_m_Source_File>
dock_pv.maegz

> <i_m_Source_File_Index>
15

> <chembl_id>
CHEMBL52

> <chembl_pref_name>
NORDIHYDROGUAIARETIC ACID

> <i_lp_mmshare_version>
53161

> <r_lp_tautomer_probability>
0.999999999999552

> <s_lp_Force_Field>
OPLS_2005

> <r_lp_Energy>
14.458968

> <b_lp_Chiralities_Consistent>
1

> <s_lp_Variant>
CHEMBL206_lig253-3

> <s_i_glide_gridfile>
glide-grid_1sj0

> <i_i_glide_lignum>
328

> <i_i_glide_rotatable_bonds>
9

> <r_i_docking_score>
-8.60131856006362

> <r_i_glide_ligand_efficiency>
-0.390969025457438

> <r_i_glide_ligand_efficiency_sa>
-1.09551058527099

> <r_i_glide_ligand_efficiency_ln>
-2.10247599679706

> <r_i_glide_gscore>
-8.60131856006362

> <r_i_glide_lipo>
-4.65326916555774

> <r_i_glide_hbond>
0

> <r_i_glide_metal>
0

> <r_i_glide_rewards>
-2.20626937746171

> <r_i_glide_evdw>
-31.7624759674072

> <r_i_glide_ecoul>
-7.73701572418213

> <r_i_glide_erotb>
1.0068961399535

> <r_i_glide_esite>
0

> <r_i_glide_emodel>
-57.1241430037994

> <r_i_glide_energy>
-39.4994916915894

> <r_i_glide_einternal>
11.7996959686279

> <i_i_glide_confnum>
59

> <i_i_glide_posenum>
177

> <r_i_glide_eff_state_penalty>
0

> <s_user_duplicate_titles>
CHEMBL206_lig253

> <i_f3d_flags>
0

> <s_m_subgroup_title>
dock_pv

> <s_m_subgroupid>
dock_pv

> <b_m_subgroup_collapsed>
1

$$$$
CHEMBL206_lig167
                    3D
 Schrodinger Suite 2021-1.
 39 42  0  0  1  0            999 V2000
   34.4323   -4.4692   22.0592 Cl  0  0  0  0  0  0
   30.8766    1.4537   29.2195 S   0  0  0  0  0  0
   34.1248   -3.7416   25.0635 O   0  0  0  0  0  0
   32.3961   -2.2707   24.7176 N   0  0  0  0  0  0
   32.3380   -1.7500   25.9764 N   0  0  0  0  0  0
   33.1250    0.4947   28.0855 N   0  0  0  0  0  0
   31.2600   -2.1434   22.6640 N   0  0  0  0  0  0
   31.3207   -0.9002   25.9556 C   0  0  0  0  0  0
   30.9264   -0.0665   27.0849 C   0  0  0  0  0  0
   31.3961   -1.7508   23.9190 C   0  0  0  0  0  0
   31.7538    0.5486   28.0304 C   0  0  0  0  0  0
   33.2685   -3.1882   24.1866 C   0  0  0  0  0  0
   30.6700   -0.8716   24.7261 C   0  0  0  0  0  0
   33.2203   -3.5103   22.8309 C   0  0  0  0  0  0
   32.1596   -2.9832   22.1085 C   0  0  0  0  0  0
   29.5783    0.2577   27.3283 C   0  0  0  0  0  0
   33.8528   -0.4646   28.7706 C   0  0  0  0  0  0
   33.9968    1.4021   27.5032 C   0  0  0  0  0  0
   29.3907    1.0893   28.4200 C   0  0  0  0  0  0
   35.1832   -0.1100   28.6658 C   0  0  0  0  0  0
   35.2601    1.0407   27.8907 C   0  0  0  0  0  0
   31.9087   -3.2872   20.6401 C   0  0  0  0  0  0
   33.2188   -1.6490   29.4639 C   0  0  0  0  0  0
   33.6024    2.5474   26.6119 C   0  0  0  0  0  0
   34.3442   -4.6615   24.8539 H   0  0  0  0  0  0
   29.8131   -0.2751   24.4574 H   0  0  0  0  0  0
   28.7619   -0.0953   26.7145 H   0  0  0  0  0  0
   28.4597    1.4888   28.7897 H   0  0  0  0  0  0
   36.0220   -0.6414   29.0920 H   0  0  0  0  0  0
   36.1654    1.5531   27.6007 H   0  0  0  0  0  0
   32.4638   -4.1547   20.2888 H   0  0  0  0  0  0
   30.8524   -3.5003   20.4675 H   0  0  0  0  0  0
   32.1898   -2.4355   20.0215 H   0  0  0  0  0  0
   33.9702   -2.3302   29.8640 H   0  0  0  0  0  0
   32.5983   -2.2313   28.7828 H   0  0  0  0  0  0
   32.5857   -1.3369   30.2922 H   0  0  0  0  0  0
   34.4601    2.8741   26.0288 H   0  0  0  0  0  0
   32.8601    2.2608   25.8756 H   0  0  0  0  0  0
   33.2604    3.4079   27.1817 H   0  0  0  0  0  0
  1 14  1  0  0  0
  2 11  1  0  0  0
  2 19  1  0  0  0
  3 12  1  0  0  0
  3 25  1  0  0  0
  4  5  1  0  0  0
  4 10  1  0  0  0
  4 12  1  0  0  0
  5  8  2  0  0  0
  6 11  1  0  0  0
  6 17  1  0  0  0
  6 18  1  0  0  0
  7 10  1  0  0  0
  7 15  2  0  0  0
  8  9  1  0  0  0
  8 13  1  0  0  0
  9 11  2  0  0  0
  9 16  1  0  0  0
 10 13  2  0  0  0
 12 14  2  0  0  0
 13 26  1  0  0  0
 14 15  1  0  0  0
 15 22  1  0  0  0
 16 19  2  0  0  0
 16 27  1  0  0  0
 17 20  2  0  0  0
 17 23  1  0  0  0
 18 21  2  0  0  0
 18 24  1  0  0  0
 19 28  1  0  0  0
 20 21  1  0  0  0
 20 29  1  0  0  0
 21 30  1  0  0  0
 22 31  1  0  0  0
 22 32  1  0  0  0
 22 33  1  0  0  0
 23 34  1  0  0  0
 23 35  1  0  0  0
 23 36  1  0  0  0
 24 37  1  0  0  0
 24 38  1  0  0  0
 24 39  1  0  0  0
M  END
> <s_m_entry_id>
16850

> <s_m_entry_name>
dock_pv.16

> <s_m_Source_Path>
/home/csk/Desktop/cluster/DUD-E-result/esr1

> <s_m_Source_File>
dock_pv.maegz

> <i_m_Source_File_Index>
16

> <chembl_id>
CHEMBL1505467

> <chembl_pref_name>
None

> <i_lp_mmshare_version>
53161

> <r_lp_tautomer_probability>
1

> <s_lp_Force_Field>
OPLS_2005

> <r_lp_Energy>
11.430508

> <b_lp_Chiralities_Consistent>
1

> <s_lp_Variant>
CHEMBL206_lig167-1

> <s_i_glide_gridfile>
glide-grid_1sj0

> <i_i_glide_lignum>
221

> <i_i_glide_rotatable_bonds>
3

> <r_i_docking_score>
-8.56258188589762

> <r_i_glide_ligand_efficiency>
-0.356774245245734

> <r_i_glide_ligand_efficiency_sa>
-1.02911500271463

> <r_i_glide_ligand_efficiency_ln>
-2.0494187565756

> <r_i_glide_gscore>
-8.56258188589762

> <r_i_glide_lipo>
-3.75370123062083

> <r_i_glide_hbond>
-0.32

> <r_i_glide_metal>
0

> <r_i_glide_rewards>
-2.58701783601

> <r_i_glide_evdw>
-26.3910598754883

> <r_i_glide_ecoul>
-5.86601209640503

> <r_i_glide_erotb>
0.29759198896838

> <r_i_glide_esite>
0

> <r_i_glide_emodel>
-43.5394666962911

> <r_i_glide_energy>
-32.2570719718933

> <r_i_glide_einternal>
3.12747359275818

> <i_i_glide_confnum>
1

> <i_i_glide_posenum>
104

> <r_i_glide_eff_state_penalty>
0

> <s_user_duplicate_titles>
CHEMBL206_lig167

> <i_f3d_flags>
0

> <s_m_subgroup_title>
dock_pv

> <s_m_subgroupid>
dock_pv

> <b_m_subgroup_collapsed>
1

$$$$
CHEMBL206_lig253
                    3D
 Schrodinger Suite 2021-1.
 44 45  0  0  1  0            999 V2000
   32.6153    1.7801   28.3202 C   0  0  0  0  0  0
   33.9633    1.4244   28.3545 C   0  0  0  0  0  0
   34.3523    0.2589   29.0262 C   0  0  0  0  0  0
   33.3924   -0.5295   29.6614 C   0  0  0  0  0  0
   31.6504    0.9779   28.9387 C   0  0  0  0  0  0
   34.8732    2.2187   27.7041 O   0  0  0  0  0  0
   35.6598   -0.1462   29.0623 O   0  0  0  0  0  0
   30.1728    1.2754   28.7598 C   0  0  0  0  0  0
   29.6071    1.0711   27.3244 C   0  0  2  0  0  0
   28.0877    1.3727   27.3887 C   0  0  0  0  0  0
   29.9599   -0.3051   26.6312 C   0  0  2  0  0  0
   31.4410   -0.3464   26.1201 C   0  0  0  0  0  0
   28.9647   -0.6486   25.5037 C   0  0  0  0  0  0
   32.0488   -0.1671   29.6329 C   0  0  0  0  0  0
   31.9084   -1.4827   25.2152 C   0  0  0  0  0  0
   32.8165   -2.4347   25.6970 C   0  0  0  0  0  0
   33.4100   -3.3419   24.8214 C   0  0  0  0  0  0
   33.0720   -3.3327   23.4722 C   0  0  0  0  0  0
   32.0889   -2.4650   23.0071 C   0  0  0  0  0  0
   31.5479   -1.5086   23.8642 C   0  0  0  0  0  0
   31.6634   -2.5425   21.7085 O   0  0  0  0  0  0
   33.7398   -4.1420   22.5991 O   0  0  0  0  0  0
   32.3238    2.6580   27.7732 H   0  0  0  0  0  0
   33.6877   -1.4359   30.1680 H   0  0  0  0  0  0
   35.7225    1.7927   27.5608 H   0  0  0  0  0  0
   36.3182    0.5614   29.0628 H   0  0  0  0  0  0
   29.5987    0.6755   29.4640 H   0  0  0  0  0  0
   30.0116    2.3093   29.0640 H   0  0  0  0  0  0
   30.0302    1.8608   26.7014 H   0  0  0  0  0  0
   27.5356    0.5500   27.8450 H   0  0  0  0  0  0
   27.8725    2.2608   27.9797 H   0  0  0  0  0  0
   27.6671    1.5528   26.3989 H   0  0  0  0  0  0
   29.8494   -1.0905   27.3810 H   0  0  0  0  0  0
   31.7048    0.5841   25.6243 H   0  0  0  0  0  0
   32.1186   -0.3948   26.9603 H   0  0  0  0  0  0
   28.9865    0.1074   24.7179 H   0  0  0  0  0  0
   29.1865   -1.6151   25.0630 H   0  0  0  0  0  0
   27.9403   -0.7341   25.8656 H   0  0  0  0  0  0
   31.3173   -0.8072   30.1050 H   0  0  0  0  0  0
   33.1179   -2.4297   26.7347 H   0  0  0  0  0  0
   34.1496   -4.0418   25.1756 H   0  0  0  0  0  0
   30.8500   -0.7855   23.4719 H   0  0  0  0  0  0
   31.5517   -3.4442   21.3930 H   0  0  0  0  0  0
   33.4941   -4.0006   21.6806 H   0  0  0  0  0  0
  1  5  1  0  0  0
  1  2  2  0  0  0
  1 23  1  0  0  0
  2  3  1  0  0  0
  2  6  1  0  0  0
  3  7  1  0  0  0
  3  4  2  0  0  0
  4 14  1  0  0  0
  4 24  1  0  0  0
  5 14  2  0  0  0
  5  8  1  0  0  0
  6 25  1  0  0  0
  7 26  1  0  0  0
  8  9  1  0  0  0
  8 27  1  0  0  0
  8 28  1  0  0  0
  9 11  1  0  0  0
  9 10  1  0  0  0
  9 29  1  0  0  0
 10 30  1  0  0  0
 10 31  1  0  0  0
 10 32  1  0  0  0
 11 12  1  0  0  0
 11 13  1  0  0  0
 11 33  1  0  0  0
 12 15  1  0  0  0
 12 34  1  0  0  0
 12 35  1  0  0  0
 13 36  1  0  0  0
 13 37  1  0  0  0
 13 38  1  0  0  0
 14 39  1  0  0  0
 15 16  2  0  0  0
 15 20  1  0  0  0
 16 17  1  0  0  0
 16 40  1  0  0  0
 17 18  2  0  0  0
 17 41  1  0  0  0
 18 19  1  0  0  0
 18 22  1  0  0  0
 19 20  2  0  0  0
 19 21  1  0  0  0
 20 42  1  0  0  0
 21 43  1  0  0  0
 22 44  1  0  0  0
M  END
> <s_m_entry_id>
16851

> <s_m_entry_name>
dock_pv.17

> <s_m_Source_Path>
/home/csk/Desktop/cluster/DUD-E-result/esr1

> <s_m_Source_File>
dock_pv.maegz

> <i_m_Source_File_Index>
17

> <chembl_id>
CHEMBL52

> <chembl_pref_name>
NORDIHYDROGUAIARETIC ACID

> <i_lp_mmshare_version>
53161

> <r_lp_tautomer_probability>
0.999999999999552

> <s_lp_Force_Field>
OPLS_2005

> <r_lp_Energy>
15.208823

> <b_lp_Chiralities_Consistent>
1

> <s_lp_Variant>
CHEMBL206_lig253-1

> <s_i_glide_gridfile>
glide-grid_1sj0

> <i_i_glide_lignum>
326

> <i_i_glide_rotatable_bonds>
9

> <r_i_docking_score>
-8.48031792631255

> <r_i_glide_ligand_efficiency>
-0.38546899665057

> <r_i_glide_ligand_efficiency_sa>
-1.08009928825029

> <r_i_glide_ligand_efficiency_ln>
-2.07289902830294

> <r_i_glide_gscore>
-8.48031792631255

> <r_i_glide_lipo>
-4.935401008702

> <r_i_glide_hbond>
0

> <r_i_glide_metal>
0

> <r_i_glide_rewards>
-2.05704398503139

> <r_i_glide_evdw>
-32.4876747131348

> <r_i_glide_ecoul>
-5.8025689125061

> <r_i_glide_erotb>
1.0068961399535

> <r_i_glide_esite>
0

> <r_i_glide_emodel>
-54.8983792300271

> <r_i_glide_energy>
-38.2902436256409

> <r_i_glide_einternal>
10.0654153823853

> <i_i_glide_confnum>
42

> <i_i_glide_posenum>
252

> <r_i_glide_eff_state_penalty>
0

> <s_user_duplicate_titles>
CHEMBL206_lig253

> <i_f3d_flags>
0

> <s_m_subgroup_title>
dock_pv

> <s_m_subgroupid>
dock_pv

> <b_m_subgroup_collapsed>
1

$$$$
CHEMBL206_lig304
                    3D
 Schrodinger Suite 2021-1.
 32 35  0  0  1  0            999 V2000
   30.0982   -0.5422   24.2638 O   0  0  0  0  0  0
   32.9684   -2.9120   27.2170 O   0  0  0  0  0  0
   29.6679    1.0582   29.1146 N   0  0  0  0  0  0
   31.4242   -1.4275   26.0386 C   0  0  0  0  0  0
   30.9959   -1.2795   24.6547 C   0  0  0  0  0  0
   32.3668   -2.3873   26.1210 C   0  0  0  0  0  0
   30.8660   -0.5886   27.1392 C   0  0  0  0  0  0
   31.8246   -2.2138   23.8933 C   0  0  0  0  0  0
   32.6967   -2.8315   24.7695 C   0  0  0  0  0  0
   31.6697    0.0213   28.1665 C   0  0  0  0  0  0
   31.0001    0.7899   29.1734 C   0  0  0  0  0  0
   29.4836   -0.3574   27.1759 C   0  0  0  0  0  0
   31.8215   -2.5459   22.5364 C   0  0  0  0  0  0
   33.6591   -3.7096   24.2751 C   0  0  0  0  0  0
   33.0894   -0.0828   28.2515 C   0  0  0  0  0  0
   28.9400    0.4829   28.1346 C   0  0  0  0  0  0
   32.7376   -3.4648   22.0460 C   0  0  0  0  0  0
   33.6627   -4.0264   22.9134 C   0  0  0  0  0  0
   31.7311    1.2873   30.2793 C   0  0  0  0  0  0
   33.7796    0.4114   29.3526 C   0  0  0  0  0  0
   33.1002    1.0582   30.3748 C   0  0  0  0  0  0
   32.6470   -2.4495   27.9958 H   0  0  0  0  0  0
   28.8262   -0.7987   26.4408 H   0  0  0  0  0  0
   31.1161   -2.1481   21.8367 H   0  0  0  0  0  0
   34.3868   -4.1418   24.9411 H   0  0  0  0  0  0
   33.6552   -0.5543   27.4653 H   0  0  0  0  0  0
   27.8804    0.6968   28.1350 H   0  0  0  0  0  0
   32.7376   -3.7364   20.9997 H   0  0  0  0  0  0
   34.4064   -4.6974   22.5097 H   0  0  0  0  0  0
   31.2193    1.8447   31.0499 H   0  0  0  0  0  0
   34.8539    0.2938   29.4123 H   0  0  0  0  0  0
   33.6507    1.4395   31.2219 H   0  0  0  0  0  0
  1  5  2  0  0  0
  2  6  1  0  0  0
  2 22  1  0  0  0
  3 11  1  0  0  0
  3 16  2  0  0  0
  4  5  1  0  0  0
  4  6  2  0  0  0
  4  7  1  0  0  0
  5  8  1  0  0  0
  6  9  1  0  0  0
  7 10  1  0  0  0
  7 12  2  0  0  0
  8  9  1  0  0  0
  8 13  2  0  0  0
  9 14  2  0  0  0
 10 11  1  0  0  0
 10 15  2  0  0  0
 11 19  2  0  0  0
 12 16  1  0  0  0
 12 23  1  0  0  0
 13 17  1  0  0  0
 13 24  1  0  0  0
 14 18  1  0  0  0
 14 25  1  0  0  0
 15 20  1  0  0  0
 15 26  1  0  0  0
 16 27  1  0  0  0
 17 18  2  0  0  0
 17 28  1  0  0  0
 18 29  1  0  0  0
 19 21  1  0  0  0
 19 30  1  0  0  0
 20 21  2  0  0  0
 20 31  1  0  0  0
 21 32  1  0  0  0
M  END
> <s_m_entry_id>
16852

> <s_m_entry_name>
dock_pv.18

> <s_m_Source_Path>
/home/csk/Desktop/cluster/DUD-E-result/esr1

> <s_m_Source_File>
dock_pv.maegz

> <i_m_Source_File_Index>
18

> <chembl_id>
CHEMBL1467405

> <chembl_pref_name>
None

> <i_lp_mmshare_version>
53161

> <r_lp_tautomer_probability>
0.0909090909090909

> <s_lp_Force_Field>
OPLS_2005

> <r_lp_Energy>
33.601875

> <b_lp_Chiralities_Consistent>
1

> <s_lp_Variant>
CHEMBL206_lig304-2

> <s_i_glide_gridfile>
glide-grid_1sj0

> <i_i_glide_lignum>
389

> <i_i_glide_rotatable_bonds>
2

> <r_i_docking_score>
-8.46943401899422

> <r_i_glide_ligand_efficiency>
-0.403306381856868

> <r_i_glide_ligand_efficiency_sa>
-1.1126917262645

> <r_i_glide_ligand_efficiency_ln>
-2.09405044709345

> <r_i_glide_gscore>
-8.46943401899422

> <r_i_glide_lipo>
-4.13475706770037

> <r_i_glide_hbond>
0

> <r_i_glide_metal>
0

> <r_i_glide_rewards>
-2.81825929661336

> <r_i_glide_evdw>
-30.9599456787109

> <r_i_glide_ecoul>
-1.39056479930878

> <r_i_glide_erotb>
0.240164349151363

> <r_i_glide_esite>
0

> <r_i_glide_emodel>
-45.7324223341278

> <r_i_glide_energy>
-32.3505104780197

> <r_i_glide_einternal>
5.59512376785278

> <i_i_glide_confnum>
2

> <i_i_glide_posenum>
87

> <r_i_glide_eff_state_penalty>
0

> <s_user_duplicate_titles>
CHEMBL206_lig304

> <i_f3d_flags>
0

> <s_m_subgroup_title>
dock_pv

> <s_m_subgroupid>
dock_pv

> <b_m_subgroup_collapsed>
1

$$$$
CHEMBL206_lig89
                    3D
 Schrodinger Suite 2021-1.
 49 51  0  0  1  0            999 V2000
   28.6940   -0.5423   26.2760 S   0  0  0  0  0  0
   33.2600   -2.8471   27.2228 S   0  0  0  0  0  0
   31.6906    1.2920   29.8140 O   0  0  0  0  0  0
   32.8766   -1.7423   24.2774 O   0  0  0  0  0  0
   34.1670   -2.9261   18.1196 O   0  0  0  0  0  0
   34.1320   -2.5421   21.7816 O   0  0  0  0  0  0
   32.4116   -0.4925   28.5018 N   0  0  0  0  0  0
   31.1349   -1.4339   26.7765 N   0  0  0  0  0  0
   33.0041   -3.8146   23.3100 N   0  0  0  0  0  0
   33.2609   -4.5415   21.2099 N   0  0  0  0  0  0
   30.2696    0.3845   28.1196 C   0  0  0  0  0  0
   30.1946   -0.5314   27.0852 C   0  0  0  0  0  0
   31.4933    0.4787   28.9055 C   0  0  0  0  0  0
   32.1789   -1.4625   27.5125 C   0  0  0  0  0  0
   29.0753    1.0794   28.2639 C   0  0  0  0  0  0
   28.0644    0.5498   27.4665 C   0  0  0  0  0  0
   33.7218   -0.4290   29.1985 C   0  0  0  0  0  0
   26.6012    0.7492   27.5920 C   0  0  0  0  0  0
   32.6353   -3.6530   25.7156 C   0  0  0  0  0  0
   34.7237    0.6029   28.6828 C   0  0  0  0  0  0
   32.8785   -2.9687   24.3599 C   0  0  0  0  0  0
   25.8822   -0.5433   28.0178 C   0  0  0  0  0  0
   33.4968   -3.5483   22.0854 C   0  0  0  0  0  0
   33.2813   -3.5378   18.9491 C   0  0  0  0  0  0
   34.5593    1.4581   27.6572 C   0  0  0  0  0  0
   33.8438   -4.6047   19.8669 C   0  0  0  0  0  0
   32.0338   -2.9434   18.8123 C   0  0  0  0  0  0
   33.4925   -1.9495   17.4636 C   0  0  0  0  0  0
   32.1669   -1.9331   17.8638 C   0  0  0  0  0  0
   32.7467   -4.7743   23.4711 H   0  0  0  0  0  0
   32.5540   -5.2405   21.4012 H   0  0  0  0  0  0
   28.9080    1.8183   29.0364 H   0  0  0  0  0  0
   33.5723   -0.2134   30.2590 H   0  0  0  0  0  0
   34.2103   -1.4027   29.2354 H   0  0  0  0  0  0
   26.1784    1.0580   26.6639 H   0  0  0  0  0  0
   26.4602    1.5877   28.2642 H   0  0  0  0  0  0
   33.2600   -4.5419   25.7267 H   0  0  0  0  0  0
   31.5972   -3.9518   25.8203 H   0  0  0  0  0  0
   35.6604    0.6316   29.2195 H   0  0  0  0  0  0
   24.8106   -0.4692   27.8618 H   0  0  0  0  0  0
   26.0628   -0.7768   29.0654 H   0  0  0  0  0  0
   26.2003   -1.4058   27.4300 H   0  0  0  0  0  0
   35.3472    2.1457   27.3837 H   0  0  0  0  0  0
   33.6504    1.4870   27.0741 H   0  0  0  0  0  0
   34.9311   -4.5398   19.9339 H   0  0  0  0  0  0
   33.6441   -5.5939   19.4532 H   0  0  0  0  0  0
   31.1406   -3.2099   19.3586 H   0  0  0  0  0  0
   34.0674   -1.3600   16.7645 H   0  0  0  0  0  0
   31.3944   -1.2602   17.5196 H   0  0  0  0  0  0
  1 12  1  0  0  0
  1 16  1  0  0  0
  2 14  1  0  0  0
  2 19  1  0  0  0
  3 13  2  0  0  0
  4 21  2  0  0  0
  5 24  1  0  0  0
  5 28  1  0  0  0
  6 23  2  0  0  0
  7 13  1  0  0  0
  7 14  1  0  0  0
  7 17  1  0  0  0
  8 12  1  0  0  0
  8 14  2  0  0  0
  9 21  1  0  0  0
  9 23  1  0  0  0
  9 30  1  0  0  0
 10 23  1  0  0  0
 10 26  1  0  0  0
 10 31  1  0  0  0
 11 12  2  0  0  0
 11 13  1  0  0  0
 11 15  1  0  0  0
 15 16  2  0  0  0
 15 32  1  0  0  0
 16 18  1  0  0  0
 17 20  1  0  0  0
 17 33  1  0  0  0
 17 34  1  0  0  0
 18 22  1  0  0  0
 18 35  1  0  0  0
 18 36  1  0  0  0
 19 21  1  0  0  0
 19 37  1  0  0  0
 19 38  1  0  0  0
 20 25  2  0  0  0
 20 39  1  0  0  0
 22 40  1  0  0  0
 22 41  1  0  0  0
 22 42  1  0  0  0
 24 26  1  0  0  0
 24 27  2  0  0  0
 25 43  1  0  0  0
 25 44  1  0  0  0
 26 45  1  0  0  0
 26 46  1  0  0  0
 27 29  1  0  0  0
 27 47  1  0  0  0
 28 29  2  0  0  0
 28 48  1  0  0  0
 29 49  1  0  0  0
M  END
> <s_m_entry_id>
16853

> <s_m_entry_name>
dock_pv.19

> <s_m_Source_Path>
/home/csk/Desktop/cluster/DUD-E-result/esr1

> <s_m_Source_File>
dock_pv.maegz

> <i_m_Source_File_Index>
19

> <chembl_id>
CHEMBL1302802

> <chembl_pref_name>
None

> <i_lp_mmshare_version>
53161

> <r_lp_tautomer_probability>
0.99990000499975

> <s_lp_Force_Field>
OPLS_2005

> <r_lp_Energy>
17.239692

> <b_lp_Chiralities_Consistent>
1

> <s_lp_Variant>
CHEMBL206_lig89-1

> <s_i_glide_gridfile>
glide-grid_1sj0

> <i_i_glide_lignum>
106

> <i_i_glide_rotatable_bonds>
11

> <r_i_docking_score>
-8.42469489797747

> <r_i_glide_ligand_efficiency>
-0.290506720619913

> <r_i_glide_ligand_efficiency_sa>
-0.892528684733573

> <r_i_glide_ligand_efficiency_ln>
-1.92904149980689

> <r_i_glide_gscore>
-8.42469489797747

> <r_i_glide_lipo>
-3.71213720316051

> <r_i_glide_hbond>
-0.0311640429627064

> <r_i_glide_metal>
0

> <r_i_glide_rewards>
-2.41788960741514

> <r_i_glide_evdw>
-48.9640235900879

> <r_i_glide_ecoul>
-4.58381414413452

> <r_i_glide_erotb>
0.957346614092843

> <r_i_glide_esite>
-0.0850773574073819

> <r_i_glide_emodel>
-78.0077754153788

> <r_i_glide_energy>
-53.5478377342224

> <r_i_glide_einternal>
3.38888335227966

> <i_i_glide_confnum>
7

> <i_i_glide_posenum>
43

> <r_i_glide_eff_state_penalty>
0

> <s_user_duplicate_titles>
CHEMBL206_lig89

> <i_f3d_flags>
0

> <s_m_subgroup_title>
dock_pv

> <s_m_subgroupid>
dock_pv

> <b_m_subgroup_collapsed>
1

$$$$
CHEMBL206_lig16
                    3D
 Schrodinger Suite 2021-1.
 44 47  0  0  1  0            999 V2000
   33.4974    0.7668   28.2341 C   0  0  0  0  0  0
   32.4101   -0.1890   28.8224 C   0  0  2  0  0  0
   32.9324   -1.6381   28.9138 C   0  0  0  0  0  0
   33.2100   -2.2374   27.5149 C   0  0  0  0  0  0
   32.0454   -2.1076   26.5092 C   0  0  1  0  0  0
   31.3526   -0.7095   26.5552 C   0  0  1  0  0  0
   30.0887   -0.8023   25.6993 C   0  0  0  0  0  0
   30.5074   -1.0028   24.2416 C   0  0  0  0  0  0
   31.5520   -2.0734   24.0022 C   0  0  0  0  0  0
   31.7300   -2.5676   22.7028 C   0  0  0  0  0  0
   32.7679   -3.4256   22.3967 C   0  0  0  0  0  0
   32.9234   -3.9348   21.1346 O   0  0  0  0  0  0
   33.6601   -3.7653   23.3917 C   0  0  0  0  0  0
   33.4570   -3.3420   24.7061 C   0  0  0  0  0  0
   32.3782   -2.5171   25.0524 C   0  0  0  0  0  0
   31.0918   -0.2680   28.0159 C   0  0  2  0  0  0
   30.3685    1.0541   28.2979 C   0  0  0  0  0  0
   30.8149    1.4273   29.7252 C   0  0  0  0  0  0
   31.8788    0.3974   30.1491 C   0  0  2  0  0  0
   32.8233    0.8699   31.0891 O   0  0  0  0  0  0
   33.8238    0.4926   27.2342 H   0  0  0  0  0  0
   33.1455    1.7966   28.1721 H   0  0  0  0  0  0
   34.3911    0.7748   28.8589 H   0  0  0  0  0  0
   33.8321   -1.6828   29.5294 H   0  0  0  0  0  0
   32.1956   -2.2546   29.4233 H   0  0  0  0  0  0
   33.4561   -3.2901   27.6622 H   0  0  0  0  0  0
   34.0598   -1.7419   27.0642 H   0  0  0  0  0  0
   31.3131   -2.8494   26.8367 H   0  0  0  0  0  0
   32.0143    0.0260   26.0955 H   0  0  0  0  0  0
   29.4128   -1.5774   26.0647 H   0  0  0  0  0  0
   29.5151    0.1222   25.7756 H   0  0  0  0  0  0
   31.0257   -0.1420   23.8765 H   0  0  0  0  0  0
   29.6603   -1.1439   23.5880 H   0  0  0  0  0  0
   31.0682   -2.2817   21.9070 H   0  0  0  0  0  0
   32.1321   -4.3473   20.7647 H   0  0  0  0  0  0
   34.4600   -4.4244   23.1149 H   0  0  0  0  0  0
   34.1232   -3.7083   25.4640 H   0  0  0  0  0  0
   30.4568   -1.0458   28.4513 H   0  0  0  0  0  0
   29.2852    0.9399   28.2391 H   0  0  0  0  0  0
   30.6569    1.8208   27.5772 H   0  0  0  0  0  0
   29.9858    1.4579   30.4332 H   0  0  0  0  0  0
   31.2612    2.4206   29.7040 H   0  0  0  0  0  0
   31.3440   -0.4016   30.6686 H   0  0  0  0  0  0
   33.3705    0.1294   31.3647 H   0  0  0  0  0  0
  1  2  1  0  0  0
  1 21  1  0  0  0
  1 22  1  0  0  0
  1 23  1  0  0  0
  2  3  1  0  0  0
  2 16  1  0  0  0
  2 19  1  0  0  0
  3  4  1  0  0  0
  3 24  1  0  0  0
  3 25  1  0  0  0
  4  5  1  0  0  0
  4 26  1  0  0  0
  4 27  1  0  0  0
  5  6  1  0  0  0
  5 15  1  0  0  0
  5 28  1  0  0  0
  6  7  1  0  0  0
  6 16  1  0  0  0
  6 29  1  0  0  0
  7  8  1  0  0  0
  7 30  1  0  0  0
  7 31  1  0  0  0
  8  9  1  0  0  0
  8 32  1  0  0  0
  8 33  1  0  0  0
  9 10  2  0  0  0
  9 15  1  0  0  0
 10 11  1  0  0  0
 10 34  1  0  0  0
 11 12  1  0  0  0
 11 13  2  0  0  0
 12 35  1  0  0  0
 13 14  1  0  0  0
 13 36  1  0  0  0
 14 15  2  0  0  0
 14 37  1  0  0  0
 16 17  1  0  0  0
 16 38  1  0  0  0
 17 18  1  0  0  0
 17 39  1  0  0  0
 17 40  1  0  0  0
 18 19  1  0  0  0
 18 41  1  0  0  0
 18 42  1  0  0  0
 19 20  1  0  0  0
 19 43  1  0  0  0
 20 44  1  0  0  0
M  END
> <s_m_entry_id>
16854

> <s_m_entry_name>
dock_pv.20

> <s_m_Source_Path>
/home/csk/Desktop/cluster/DUD-E-result/esr1

> <s_m_Source_File>
dock_pv.maegz

> <i_m_Source_File_Index>
20

> <chembl_id>
CHEMBL135

> <chembl_pref_name>
ESTRADIOL

> <i_lp_mmshare_version>
53161

> <r_lp_tautomer_probability>
0.999999999997365

> <s_lp_Force_Field>
OPLS_2005

> <r_lp_Energy>
46.690621

> <b_lp_Chiralities_Consistent>
1

> <s_lp_Variant>
CHEMBL206_lig16-1

> <s_i_glide_gridfile>
glide-grid_1sj0

> <i_i_glide_lignum>
23

> <i_i_glide_rotatable_bonds>
2

> <r_i_docking_score>
-8.40396769922427

> <r_i_glide_ligand_efficiency>
-0.420198384961214

> <r_i_glide_ligand_efficiency_sa>
-1.14059389746448

> <r_i_glide_ligand_efficiency_ln>
-2.10323593371019

> <r_i_glide_gscore>
-8.40396769922427

> <r_i_glide_lipo>
-4.57386749162698

> <r_i_glide_hbond>
-0.0659340627626545

> <r_i_glide_metal>
0

> <r_i_glide_rewards>
-2.26861145924199

> <r_i_glide_evdw>
-25.5267505645752

> <r_i_glide_ecoul>
-1.46144771575928

> <r_i_glide_erotb>
0

> <r_i_glide_esite>
0

> <r_i_glide_emodel>
-33.6752480106922

> <r_i_glide_energy>
-26.9881982803345

> <r_i_glide_einternal>
2.96495914459229

> <i_i_glide_confnum>
1

> <i_i_glide_posenum>
178

> <r_i_glide_eff_state_penalty>
0

> <s_user_duplicate_titles>
CHEMBL206_lig16,27626

> <i_f3d_flags>
0

> <s_m_subgroup_title>
dock_pv

> <s_m_subgroupid>
dock_pv

> <b_m_subgroup_collapsed>
1

$$$$
CHEMBL206_lig185
                    3D
 Schrodinger Suite 2021-1.
 32 34  0  0  1  0            999 V2000
   29.5453    0.9965   28.2676 S   0  0  0  0  0  0
   30.0469   -0.4213   25.3266 O   0  0  0  0  0  0
   32.0479   -2.5415   27.0733 O   0  0  0  0  0  0
   29.9219   -2.1474   27.6996 N   0  0  0  0  0  0
   31.0343    0.7840   27.2464 C   0  0  2  0  0  0
   31.0699   -0.4556   26.3153 C   0  0  1  0  0  0
   28.3580   -0.2079   27.7473 C   0  0  0  0  0  0
   28.6316   -1.5986   27.7182 C   0  0  0  0  0  0
   31.0605   -1.8094   27.0604 C   0  0  0  0  0  0
   32.3263    0.9215   28.0488 C   0  0  0  0  0  0
   27.0566    0.2500   27.5369 C   0  0  0  0  0  0
   27.5532   -2.4788   27.6009 C   0  0  0  0  0  0
   33.4574    1.4576   27.4221 C   0  0  0  0  0  0
   32.4114    0.4563   29.3652 C   0  0  0  0  0  0
   26.0027   -0.6452   27.4192 C   0  0  0  0  0  0
   26.2488   -2.0097   27.5000 C   0  0  0  0  0  0
   34.6663    1.5208   28.1049 C   0  0  0  0  0  0
   33.6123    0.5357   30.0511 C   0  0  0  0  0  0
   34.7336    1.0582   29.4151 C   0  0  0  0  0  0
   29.2023   -0.5853   25.7571 H   0  0  0  0  0  0
   29.9947   -3.0746   28.0894 H   0  0  0  0  0  0
   30.9973    1.6942   26.6638 H   0  0  0  0  0  0
   32.0010   -0.4204   25.7466 H   0  0  0  0  0  0
   26.8436    1.3100   27.5467 H   0  0  0  0  0  0
   27.7223   -3.5465   27.5853 H   0  0  0  0  0  0
   33.4089    1.8048   26.3997 H   0  0  0  0  0  0
   31.5584    0.0161   29.8600 H   0  0  0  0  0  0
   24.9942   -0.2777   27.2985 H   0  0  0  0  0  0
   25.4307   -2.7126   27.4639 H   0  0  0  0  0  0
   35.5484    1.9206   27.6243 H   0  0  0  0  0  0
   33.6603    0.1770   31.0674 H   0  0  0  0  0  0
   35.6703    1.1139   29.9405 H   0  0  0  0  0  0
  1  5  1  0  0  0
  1  7  1  0  0  0
  2  6  1  0  0  0
  2 20  1  0  0  0
  3  9  2  0  0  0
  4  8  1  0  0  0
  4  9  1  0  0  0
  4 21  1  0  0  0
  5  6  1  0  0  0
  5 10  1  0  0  0
  5 22  1  0  0  0
  6  9  1  0  0  0
  6 23  1  0  0  0
  7  8  1  0  0  0
  7 11  2  0  0  0
  8 12  2  0  0  0
 10 13  2  0  0  0
 10 14  1  0  0  0
 11 15  1  0  0  0
 11 24  1  0  0  0
 12 16  1  0  0  0
 12 25  1  0  0  0
 13 17  1  0  0  0
 13 26  1  0  0  0
 14 18  2  0  0  0
 14 27  1  0  0  0
 15 16  2  0  0  0
 15 28  1  0  0  0
 16 29  1  0  0  0
 17 19  2  0  0  0
 17 30  1  0  0  0
 18 19  1  0  0  0
 18 31  1  0  0  0
 19 32  1  0  0  0
M  END
> <s_m_entry_id>
16855

> <s_m_entry_name>
dock_pv.21

> <s_m_Source_Path>
/home/csk/Desktop/cluster/DUD-E-result/esr1

> <s_m_Source_File>
dock_pv.maegz

> <i_m_Source_File_Index>
21

> <chembl_id>
CHEMBL1506716

> <chembl_pref_name>
None

> <i_lp_mmshare_version>
53161

> <r_lp_tautomer_probability>
1

> <s_lp_Force_Field>
OPLS_2005

> <r_lp_Energy>
31.315957

> <b_lp_Chiralities_Consistent>
1

> <s_lp_Variant>
CHEMBL206_lig185-3

> <s_i_glide_gridfile>
glide-grid_1sj0

> <i_i_glide_lignum>
246

> <i_i_glide_rotatable_bonds>
2

> <r_i_docking_score>
-8.38762710135364

> <r_i_glide_ligand_efficiency>
-0.441454057965981

> <r_i_glide_ligand_efficiency_sa>
-1.17797673495526

> <r_i_glide_ligand_efficiency_ln>
-2.12644361990514

> <r_i_glide_gscore>
-8.38762710135364

> <r_i_glide_lipo>
-3.64983134382535

> <r_i_glide_hbond>
0

> <r_i_glide_metal>
0

> <r_i_glide_rewards>
-2.70990409898863

> <r_i_glide_evdw>
-38.4480476379395

> <r_i_glide_ecoul>
-2.32433462142944

> <r_i_glide_erotb>
0.243160916571722

> <r_i_glide_esite>
0

> <r_i_glide_emodel>
-57.3629860631098

> <r_i_glide_energy>
-40.7723822593689

> <r_i_glide_einternal>
1.1008837223053

> <i_i_glide_confnum>
4

> <i_i_glide_posenum>
41

> <r_i_glide_eff_state_penalty>
0

> <s_user_duplicate_titles>
CHEMBL206_lig185

> <i_f3d_flags>
0

> <s_m_subgroup_title>
dock_pv

> <s_m_subgroupid>
dock_pv

> <b_m_subgroup_collapsed>
1

$$$$
CHEMBL206_lig322
                    3D
 Schrodinger Suite 2021-1.
 38 41  0  0  1  0            999 V2000
   34.4599   -3.3420   21.4528 S   0  0  0  0  0  0
   33.9790   -3.3415   24.4680 O   0  0  0  0  0  0
   30.7752   -1.1646   26.5471 N   0  0  0  0  0  0
   30.9620   -1.7424   25.3586 N   0  0  0  0  0  0
   32.8598   -1.7716   26.4987 N   0  0  0  0  0  0
   32.3352   -2.5509   23.0727 N   0  0  0  0  0  0
   31.9951   -2.9569   20.7918 N   0  0  0  0  0  0
   31.9768   -1.1249   27.2120 C   0  0  0  0  0  0
   32.2383   -2.0824   25.3697 C   0  0  0  0  0  0
   29.5173   -0.6393   26.8728 C   0  0  0  0  0  0
   32.2926   -0.4311   28.4980 C   0  0  0  0  0  0
   32.9262   -2.7305   24.2747 C   0  0  0  0  0  0
   29.3885    0.7203   27.1640 C   0  0  0  0  0  0
   28.4038   -1.4867   26.8843 C   0  0  0  0  0  0
   33.5264    0.2142   28.6437 C   0  0  0  0  0  0
   31.3715   -0.3986   29.5462 C   0  0  0  0  0  0
   32.7988   -2.9425   21.8250 C   0  0  0  0  0  0
   28.1326    1.2315   27.4633 C   0  0  0  0  0  0
   27.1489   -0.9667   27.1765 C   0  0  0  0  0  0
   33.8183    0.9153   29.8096 C   0  0  0  0  0  0
   31.6596    0.3086   30.7092 C   0  0  0  0  0  0
   27.0261    0.3892   27.4632 C   0  0  0  0  0  0
   32.8775    0.9686   30.8352 C   0  0  0  0  0  0
   33.9796   -3.5897   19.8039 C   0  0  0  0  0  0
   32.6181   -3.3277   19.6891 C   0  0  0  0  0  0
   31.4138   -2.1430   23.0899 H   0  0  0  0  0  0
   30.2485    1.3756   27.1511 H   0  0  0  0  0  0
   28.5059   -2.5400   26.6639 H   0  0  0  0  0  0
   34.2574    0.1916   27.8484 H   0  0  0  0  0  0
   30.4290   -0.9144   29.4577 H   0  0  0  0  0  0
   28.0109    2.2759   27.6913 H   0  0  0  0  0  0
   26.2795   -1.6100   27.1677 H   0  0  0  0  0  0
   34.7675    1.4212   29.9110 H   0  0  0  0  0  0
   30.9345    0.3478   31.5069 H   0  0  0  0  0  0
   26.0600    0.8083   27.6722 H   0  0  0  0  0  0
   33.1022    1.5171   31.7377 H   0  0  0  0  0  0
   34.6812   -3.9158   19.0503 H   0  0  0  0  0  0
   32.0436   -3.4239   18.7796 H   0  0  0  0  0  0
  1 17  1  0  0  0
  1 24  1  0  0  0
  2 12  2  0  0  0
  3  4  1  0  0  0
  3  8  1  0  0  0
  3 10  1  0  0  0
  4  9  2  0  0  0
  5  8  2  0  0  0
  5  9  1  0  0  0
  6 12  1  0  0  0
  6 17  1  0  0  0
  6 26  1  0  0  0
  7 17  2  0  0  0
  7 25  1  0  0  0
  8 11  1  0  0  0
  9 12  1  0  0  0
 10 13  2  0  0  0
 10 14  1  0  0  0
 11 15  2  0  0  0
 11 16  1  0  0  0
 13 18  1  0  0  0
 13 27  1  0  0  0
 14 19  2  0  0  0
 14 28  1  0  0  0
 15 20  1  0  0  0
 15 29  1  0  0  0
 16 21  2  0  0  0
 16 30  1  0  0  0
 18 22  2  0  0  0
 18 31  1  0  0  0
 19 22  1  0  0  0
 19 32  1  0  0  0
 20 23  2  0  0  0
 20 33  1  0  0  0
 21 23  1  0  0  0
 21 34  1  0  0  0
 22 35  1  0  0  0
 23 36  1  0  0  0
 24 25  2  0  0  0
 24 37  1  0  0  0
 25 38  1  0  0  0
M  END
> <s_m_entry_id>
16856

> <s_m_entry_name>
dock_pv.22

> <s_m_Source_Path>
/home/csk/Desktop/cluster/DUD-E-result/esr1

> <s_m_Source_File>
dock_pv.maegz

> <i_m_Source_File_Index>
22

> <chembl_id>
CHEMBL1353908

> <chembl_pref_name>
None

> <i_lp_mmshare_version>
53161

> <r_lp_tautomer_probability>
0.999000488399163

> <s_lp_Force_Field>
OPLS_2005

> <r_lp_Energy>
29.29546

> <b_lp_Chiralities_Consistent>
1

> <s_lp_Variant>
CHEMBL206_lig322-1

> <s_i_glide_gridfile>
glide-grid_1sj0

> <i_i_glide_lignum>
414

> <i_i_glide_rotatable_bonds>
5

> <r_i_docking_score>
-8.34067712603331

> <r_i_glide_ligand_efficiency>
-0.333627085041332

> <r_i_glide_ligand_efficiency_sa>
-0.975531513562403

> <r_i_glide_ligand_efficiency_ln>
-1.97699042879364

> <r_i_glide_gscore>
-8.34067712603331

> <r_i_glide_lipo>
-3.29940802090027

> <r_i_glide_hbond>
0

> <r_i_glide_metal>
0

> <r_i_glide_rewards>
-3.43345768107526

> <r_i_glide_evdw>
-48.4495162963867

> <r_i_glide_ecoul>
0.176603615283966

> <r_i_glide_erotb>
0.788173848468961

> <r_i_glide_esite>
0

> <r_i_glide_emodel>
-68.0874010309625

> <r_i_glide_energy>
-48.2729126811028

> <r_i_glide_einternal>
4.34349679946899

> <i_i_glide_confnum>
34

> <i_i_glide_posenum>
268

> <r_i_glide_eff_state_penalty>
0

> <s_user_duplicate_titles>
CHEMBL206_lig322

> <i_f3d_flags>
0

> <s_m_subgroup_title>
dock_pv

> <s_m_subgroupid>
dock_pv

> <b_m_subgroup_collapsed>
1

$$$$
CHEMBL206_lig297
                    3D
 Schrodinger Suite 2021-1.
 45 48  0  0  1  0            999 V2000
   31.3046   -1.4154   24.1884 S   0  0  0  0  0  0
   33.6599   -4.4013   23.4534 O   0  0  0  0  0  0
   35.5072   -2.5431   21.6159 O   0  0  0  0  0  0
   33.2097   -2.5597   17.6707 O   0  0  0  0  0  0
   30.7123   -0.6987   26.9891 N   0  0  0  0  0  0
   31.3904   -0.8158   28.1556 N   0  0  0  0  0  0
   34.2748   -2.3761   19.6894 N   0  0  0  0  0  0
   32.0172   -2.9434   19.6037 N   0  0  0  0  0  0
   30.9073   -3.7297   21.4636 N   0  0  0  0  0  0
   31.4071   -1.2209   25.9324 C   0  0  0  0  0  0
   32.5279   -1.8081   26.4956 C   0  0  0  0  0  0
   32.7203   -2.4791   24.2573 C   0  0  0  0  0  0
   33.1702   -2.9397   21.7290 C   0  0  0  0  0  0
   33.1864   -3.3205   23.1524 C   0  0  0  0  0  0
   32.4938   -1.4647   27.8811 C   0  0  0  0  0  0
   33.2561   -2.5415   25.5327 C   0  0  0  0  0  0
   34.4134   -2.5878   21.0414 C   0  0  0  0  0  0
   32.0678   -3.1762   20.9720 C   0  0  0  0  0  0
   29.3534   -0.3825   27.0068 C   0  0  0  0  0  0
   33.1569   -2.5941   18.9072 C   0  0  0  0  0  0
   33.4863   -1.8013   28.9678 C   0  0  0  0  0  0
   28.9438    0.9155   27.3072 C   0  0  0  0  0  0
   28.4265   -1.4189   26.8557 C   0  0  0  0  0  0
   35.4791   -1.8760   18.9858 C   0  0  0  0  0  0
   30.7906   -3.0696   18.7852 C   0  0  0  0  0  0
   27.5878    1.1711   27.4642 C   0  0  0  0  0  0
   27.0724   -1.1580   27.0190 C   0  0  0  0  0  0
   26.6647    0.1330   27.3382 C   0  0  0  0  0  0
   30.8558   -4.0133   22.4295 H   0  0  0  0  0  0
   30.3536   -4.2851   20.8189 H   0  0  0  0  0  0
   34.1082   -3.1444   25.7779 H   0  0  0  0  0  0
   34.4457   -1.3147   28.7966 H   0  0  0  0  0  0
   33.1555   -1.4885   29.9576 H   0  0  0  0  0  0
   33.6652   -2.8760   29.0072 H   0  0  0  0  0  0
   29.6644    1.7100   27.4436 H   0  0  0  0  0  0
   28.7518   -2.4317   26.6640 H   0  0  0  0  0  0
   35.2287   -1.2663   18.1160 H   0  0  0  0  0  0
   36.0921   -1.2348   19.6220 H   0  0  0  0  0  0
   36.0943   -2.7117   18.6510 H   0  0  0  0  0  0
   30.5542   -4.1228   18.6303 H   0  0  0  0  0  0
   29.9490   -2.6072   19.3011 H   0  0  0  0  0  0
   30.8591   -2.5913   17.8075 H   0  0  0  0  0  0
   27.2584    2.1675   27.7084 H   0  0  0  0  0  0
   26.3466   -1.9519   26.9081 H   0  0  0  0  0  0
   25.6128    0.3330   27.4634 H   0  0  0  0  0  0
  1 10  1  0  0  0
  1 12  1  0  0  0
  2 14  2  0  0  0
  3 17  2  0  0  0
  4 20  2  0  0  0
  5  6  1  0  0  0
  5 10  1  0  0  0
  5 19  1  0  0  0
  6 15  2  0  0  0
  7 17  1  0  0  0
  7 20  1  0  0  0
  7 24  1  0  0  0
  8 18  1  0  0  0
  8 20  1  0  0  0
  8 25  1  0  0  0
  9 18  1  0  0  0
  9 29  1  0  0  0
  9 30  1  0  0  0
 10 11  2  0  0  0
 11 15  1  0  0  0
 11 16  1  0  0  0
 12 14  1  0  0  0
 12 16  2  0  0  0
 13 14  1  0  0  0
 13 17  1  0  0  0
 13 18  2  0  0  0
 15 21  1  0  0  0
 16 31  1  0  0  0
 19 22  2  0  0  0
 19 23  1  0  0  0
 21 32  1  0  0  0
 21 33  1  0  0  0
 21 34  1  0  0  0
 22 26  1  0  0  0
 22 35  1  0  0  0
 23 27  2  0  0  0
 23 36  1  0  0  0
 24 37  1  0  0  0
 24 38  1  0  0  0
 24 39  1  0  0  0
 25 40  1  0  0  0
 25 41  1  0  0  0
 25 42  1  0  0  0
 26 28  2  0  0  0
 26 43  1  0  0  0
 27 28  1  0  0  0
 27 44  1  0  0  0
 28 45  1  0  0  0
M  END
> <s_m_entry_id>
16857

> <s_m_entry_name>
dock_pv.23

> <s_m_Source_Path>
/home/csk/Desktop/cluster/DUD-E-result/esr1

> <s_m_Source_File>
dock_pv.maegz

> <i_m_Source_File_Index>
23

> <chembl_id>
CHEMBL1581991

> <chembl_pref_name>
None

> <i_lp_mmshare_version>
53161

> <r_lp_tautomer_probability>
1

> <s_lp_Force_Field>
OPLS_2005

> <r_lp_Energy>
73.250003

> <b_lp_Chiralities_Consistent>
1

> <s_lp_Variant>
CHEMBL206_lig297-1

> <s_i_glide_gridfile>
glide-grid_1sj0

> <i_i_glide_lignum>
380

> <i_i_glide_rotatable_bonds>
3

> <r_i_docking_score>
-8.33744434323274

> <r_i_glide_ligand_efficiency>
-0.297765869401169

> <r_i_glide_ligand_efficiency_sa>
-0.904192554220241

> <r_i_glide_ligand_efficiency_ln>
-1.92452695242117

> <r_i_glide_gscore>
-8.33744434323274

> <r_i_glide_lipo>
-3.83651467005857

> <r_i_glide_hbond>
-0.0540735764756307

> <r_i_glide_metal>
0

> <r_i_glide_rewards>
-2.23075981105789

> <r_i_glide_evdw>
-40.8099784851074

> <r_i_glide_ecoul>
-2.65525126457214

> <r_i_glide_erotb>
0.375166121494111

> <r_i_glide_esite>
-0.152475793193565

> <r_i_glide_emodel>
-75.1199837595825

> <r_i_glide_energy>
-43.4652297496796

> <r_i_glide_einternal>
11.7068433761597

> <i_i_glide_confnum>
18

> <i_i_glide_posenum>
235

> <r_i_glide_eff_state_penalty>
0

> <s_user_duplicate_titles>
CHEMBL206_lig297

> <i_f3d_flags>
0

> <s_m_subgroup_title>
dock_pv

> <s_m_subgroupid>
dock_pv

> <b_m_subgroup_collapsed>
1

$$$$
CHEMBL206_lig296
                    3D
 Schrodinger Suite 2021-1.
 44 47  0  0  1  0            999 V2000
   35.1858   -2.9420   21.0503 S   0  0  0  0  0  0
   32.7256   -1.2457   25.2017 O   0  0  0  0  0  0
   34.0599   -3.3438   23.9291 O   0  0  0  0  0  0
   30.5825   -1.2477   24.7561 N   0  0  0  0  0  0
   31.9714   -2.5423   23.3543 N   0  0  0  0  0  0
   34.0499   -2.6134   18.4847 N   0  0  0  0  0  0
   35.4539   -1.0510   19.1168 N   0  0  0  0  0  0
   34.0597   -1.7468   17.4655 N   0  0  0  0  0  0
   34.9463   -0.7626   17.8530 N   0  0  0  0  0  0
   32.0597   -0.5160   26.1097 C   0  0  0  0  0  0
   30.7441   -0.5410   25.9077 C   0  0  0  0  0  0
   31.7881   -1.7503   24.3313 C   0  0  0  0  0  0
   32.8590    0.0504   27.2043 C   0  0  0  0  0  0
   29.6284    0.0845   26.6350 C   0  0  0  0  0  0
   33.6546    1.1759   26.9767 C   0  0  0  0  0  0
   32.8515   -0.5573   28.4617 C   0  0  0  0  0  0
   29.8412    1.1812   27.4776 C   0  0  0  0  0  0
   28.3336   -0.4196   26.4713 C   0  0  0  0  0  0
   33.2285   -3.0308   23.0751 C   0  0  0  0  0  0
   34.8717   -2.1621   19.4987 C   0  0  0  0  0  0
   33.4661   -3.2410   21.5765 C   0  0  0  0  0  0
   34.4639    1.6747   27.9904 C   0  0  0  0  0  0
   33.6503   -0.0511   29.4820 C   0  0  0  0  0  0
   28.7666    1.8095   28.0867 C   0  0  0  0  0  0
   27.2566    0.2145   27.0739 C   0  0  0  0  0  0
   34.4586    1.0579   29.2385 C   0  0  0  0  0  0
   27.4771    1.3512   27.8400 C   0  0  0  0  0  0
   33.2190   -3.8059   18.4104 C   0  0  0  0  0  0
   29.6620   -1.3876   24.3757 H   0  0  0  0  0  0
   33.6735    1.6383   25.9992 H   0  0  0  0  0  0
   32.2425   -1.4304   28.6428 H   0  0  0  0  0  0
   30.8290    1.5847   27.6394 H   0  0  0  0  0  0
   28.1469   -1.2929   25.8631 H   0  0  0  0  0  0
   32.8200   -2.5469   21.0392 H   0  0  0  0  0  0
   33.1524   -4.2473   21.2981 H   0  0  0  0  0  0
   35.1045    2.5253   27.8070 H   0  0  0  0  0  0
   33.6568   -0.5249   30.4527 H   0  0  0  0  0  0
   28.9278    2.6577   28.7317 H   0  0  0  0  0  0
   26.2518   -0.1521   26.9230 H   0  0  0  0  0  0
   35.0942    1.4430   30.0207 H   0  0  0  0  0  0
   26.6262    1.8578   28.2641 H   0  0  0  0  0  0
   33.7355   -4.6447   18.8844 H   0  0  0  0  0  0
   33.0113   -4.0642   17.3701 H   0  0  0  0  0  0
   32.2734   -3.6257   18.9257 H   0  0  0  0  0  0
  1 20  1  0  0  0
  1 21  1  0  0  0
  2 10  1  0  0  0
  2 12  1  0  0  0
  3 19  2  0  0  0
  4 29  1  0  0  0
  4 11  1  0  0  0
  4 12  1  0  0  0
  5 12  2  0  0  0
  5 19  1  0  0  0
  6  8  1  0  0  0
  6 20  1  0  0  0
  6 28  1  0  0  0
  7  9  1  0  0  0
  7 20  2  0  0  0
  8  9  2  0  0  0
 10 11  2  0  0  0
 10 13  1  0  0  0
 11 14  1  0  0  0
 13 15  2  0  0  0
 13 16  1  0  0  0
 14 17  2  0  0  0
 14 18  1  0  0  0
 15 22  1  0  0  0
 15 30  1  0  0  0
 16 23  2  0  0  0
 16 31  1  0  0  0
 17 24  1  0  0  0
 17 32  1  0  0  0
 18 25  2  0  0  0
 18 33  1  0  0  0
 19 21  1  0  0  0
 21 34  1  0  0  0
 21 35  1  0  0  0
 22 26  2  0  0  0
 22 36  1  0  0  0
 23 26  1  0  0  0
 23 37  1  0  0  0
 24 27  2  0  0  0
 24 38  1  0  0  0
 25 27  1  0  0  0
 25 39  1  0  0  0
 26 40  1  0  0  0
 27 41  1  0  0  0
 28 42  1  0  0  0
 28 43  1  0  0  0
 28 44  1  0  0  0
M  END
> <s_m_entry_id>
16858

> <s_m_entry_name>
dock_pv.24

> <s_m_Source_Path>
/home/csk/Desktop/cluster/DUD-E-result/esr1

> <s_m_Source_File>
dock_pv.maegz

> <i_m_Source_File_Index>
24

> <chembl_id>
CHEMBL1346307

> <chembl_pref_name>
None

> <i_lp_mmshare_version>
53161

> <r_lp_tautomer_probability>
0.107061388611451

> <s_lp_Force_Field>
OPLS_2005

> <r_lp_Energy>
36.50489

> <b_lp_Chiralities_Consistent>
1

> <s_lp_Variant>
CHEMBL206_lig296-2

> <s_i_glide_gridfile>
glide-grid_1sj0

> <i_i_glide_lignum>
378

> <i_i_glide_rotatable_bonds>
6

> <r_i_docking_score>
-8.32850012104494

> <r_i_glide_ligand_efficiency>
-0.297446432894462

> <r_i_glide_ligand_efficiency_sa>
-0.903222556847837

> <r_i_glide_ligand_efficiency_ln>
-1.92246236332645

> <r_i_glide_gscore>
-8.32850012104494

> <r_i_glide_lipo>
-4.14877776843613

> <r_i_glide_hbond>
0

> <r_i_glide_metal>
0

> <r_i_glide_rewards>
-2.24483235111029

> <r_i_glide_evdw>
-47.7274131774902

> <r_i_glide_ecoul>
-2.06130576133728

> <r_i_glide_erotb>
0.760676521576586

> <r_i_glide_esite>
0

> <r_i_glide_emodel>
-68.9662366146253

> <r_i_glide_energy>
-49.7887189388275

> <r_i_glide_einternal>
9.13862419128418

> <i_i_glide_confnum>
7

> <i_i_glide_posenum>
198

> <r_i_glide_eff_state_penalty>
0

> <s_user_duplicate_titles>
CHEMBL206_lig296

> <i_f3d_flags>
0

> <s_m_subgroup_title>
dock_pv

> <s_m_subgroupid>
dock_pv

> <b_m_subgroup_collapsed>
1

$$$$
CHEMBL206_lig266
                    3D
 Schrodinger Suite 2021-1.
 42 45  0  0  1  0            999 V2000
   33.6598   -3.9376   23.3960 O   0  0  0  0  0  0
   33.2572   -3.3449   26.0584 O   0  0  0  0  0  0
   31.1871   -0.0298   27.1290 N   0  0  0  0  0  0
   33.2598   -0.7846   27.5810 N   0  0  0  0  0  0
   32.3186   -1.3485   25.4449 N   0  0  0  0  0  0
   31.4723    0.3797   28.4209 C   0  0  0  0  0  0
   32.2932   -0.7413   26.6929 C   0  0  0  0  0  0
   32.7904   -0.0823   28.6517 C   0  0  0  0  0  0
   29.9018    0.1291   26.4461 C   0  0  0  0  0  0
   30.7524    1.0787   29.3970 C   0  0  0  0  0  0
   33.4279    0.1906   29.8652 C   0  0  0  0  0  0
   32.8259   -2.5767   25.2005 C   0  0  0  0  0  0
   28.8269   -0.8246   26.9582 C   0  0  0  0  0  0
   32.8407   -2.9323   23.8074 C   0  0  0  0  0  0
   31.4050    1.3093   30.6123 C   0  0  0  0  0  0
   32.7154    0.8883   30.8405 C   0  0  0  0  0  0
   29.1526   -2.1416   27.2991 C   0  0  0  0  0  0
   27.5048   -0.3840   27.0636 C   0  0  0  0  0  0
   32.0428   -2.5424   22.7404 C   0  0  0  0  0  0
   28.1667   -3.0095   27.7503 C   0  0  0  0  0  0
   26.5151   -1.2560   27.5104 C   0  0  0  0  0  0
   33.4272   -4.1414   22.0722 C   0  0  0  0  0  0
   32.4176   -3.3061   21.6348 C   0  0  0  0  0  0
   26.8513   -2.5645   27.8640 C   0  0  0  0  0  0
   25.7953   -3.5068   28.4040 C   0  0  0  0  0  0
   31.8589   -0.8683   24.6910 H   0  0  0  0  0  0
   29.5877    1.1671   26.5787 H   0  0  0  0  0  0
   30.0299   -0.0233   25.3741 H   0  0  0  0  0  0
   29.7412    1.4218   29.2286 H   0  0  0  0  0  0
   34.4356   -0.1488   30.0475 H   0  0  0  0  0  0
   30.8841    1.8342   31.3998 H   0  0  0  0  0  0
   33.1841    1.1006   31.7891 H   0  0  0  0  0  0
   30.1640   -2.5090   27.2094 H   0  0  0  0  0  0
   27.2402    0.6279   26.7949 H   0  0  0  0  0  0
   31.2600   -1.8039   22.7642 H   0  0  0  0  0  0
   28.4309   -4.0231   28.0134 H   0  0  0  0  0  0
   25.4957   -0.9101   27.5849 H   0  0  0  0  0  0
   34.0122   -4.9103   21.5854 H   0  0  0  0  0  0
   31.9972   -3.2684   20.6395 H   0  0  0  0  0  0
   24.8578   -3.3905   27.8643 H   0  0  0  0  0  0
   26.1062   -4.5416   28.2787 H   0  0  0  0  0  0
   25.6099   -3.3203   29.4616 H   0  0  0  0  0  0
  1 14  1  0  0  0
  1 22  1  0  0  0
  2 12  2  0  0  0
  3  6  1  0  0  0
  3  7  1  0  0  0
  3  9  1  0  0  0
  4  7  2  0  0  0
  4  8  1  0  0  0
  5  7  1  0  0  0
  5 12  1  0  0  0
  5 26  1  0  0  0
  6  8  1  0  0  0
  6 10  2  0  0  0
  8 11  2  0  0  0
  9 13  1  0  0  0
  9 27  1  0  0  0
  9 28  1  0  0  0
 10 15  1  0  0  0
 10 29  1  0  0  0
 11 16  1  0  0  0
 11 30  1  0  0  0
 12 14  1  0  0  0
 13 17  2  0  0  0
 13 18  1  0  0  0
 14 19  2  0  0  0
 15 16  2  0  0  0
 15 31  1  0  0  0
 16 32  1  0  0  0
 17 20  1  0  0  0
 17 33  1  0  0  0
 18 21  2  0  0  0
 18 34  1  0  0  0
 19 23  1  0  0  0
 19 35  1  0  0  0
 20 24  2  0  0  0
 20 36  1  0  0  0
 21 24  1  0  0  0
 21 37  1  0  0  0
 22 23  2  0  0  0
 22 38  1  0  0  0
 23 39  1  0  0  0
 24 25  1  0  0  0
 25 40  1  0  0  0
 25 41  1  0  0  0
 25 42  1  0  0  0
M  END
> <s_m_entry_id>
16859

> <s_m_entry_name>
dock_pv.25

> <s_m_Source_Path>
/home/csk/Desktop/cluster/DUD-E-result/esr1

> <s_m_Source_File>
dock_pv.maegz

> <i_m_Source_File_Index>
25

> <chembl_id>
CHEMBL1370066

> <chembl_pref_name>
None

> <i_lp_mmshare_version>
53161

> <r_lp_tautomer_probability>
1

> <s_lp_Force_Field>
OPLS_2005

> <r_lp_Energy>
15.567282

> <b_lp_Chiralities_Consistent>
1

> <s_lp_Variant>
CHEMBL206_lig266-1

> <s_i_glide_gridfile>
glide-grid_1sj0

> <i_i_glide_lignum>
341

> <i_i_glide_rotatable_bonds>
5

> <r_i_docking_score>
-8.25972714765585

> <r_i_glide_ligand_efficiency>
-0.330389085906234

> <r_i_glide_ligand_efficiency_sa>
-0.966063546665216

> <r_i_glide_ligand_efficiency_ln>
-1.95780285804309

> <r_i_glide_gscore>
-8.25972714765585

> <r_i_glide_lipo>
-3.61402559534079

> <r_i_glide_hbond>
0

> <r_i_glide_metal>
0

> <r_i_glide_rewards>
-2.91060483311993

> <r_i_glide_evdw>
-47.2134017944336

> <r_i_glide_ecoul>
-1.54280543327332

> <r_i_glide_erotb>
0.856994185517548

> <r_i_glide_esite>
0

> <r_i_glide_emodel>
-67.3930704745228

> <r_i_glide_energy>
-48.7562072277069

> <r_i_glide_einternal>
6.93611001968384

> <i_i_glide_confnum>
17

> <i_i_glide_posenum>
362

> <r_i_glide_eff_state_penalty>
0

> <s_user_duplicate_titles>
CHEMBL206_lig266

> <i_f3d_flags>
0

> <s_m_subgroup_title>
dock_pv

> <s_m_subgroupid>
dock_pv

> <b_m_subgroup_collapsed>
1

$$$$
CHEMBL206_lig165
                    3D
 Schrodinger Suite 2021-1.
 34 36  0  0  1  0            999 V2000
   32.8092   -1.2357   27.7702 O   0  0  0  0  0  0
   31.6594    1.4550   31.0820 O   0  0  0  0  0  0
   32.5057   -0.4389   30.1751 O   0  0  0  0  0  0
   34.3083   -4.0639   22.0951 O   0  0  0  0  0  0
   31.3885   -1.1764   25.9212 N   0  0  0  0  0  0
   30.7497    0.0538   27.7673 C   0  0  0  0  0  0
   31.7934   -0.8587   27.1895 C   0  0  0  0  0  0
   29.7697    0.2319   26.8035 C   0  0  0  0  0  0
   30.6515    0.6917   29.0313 C   0  0  0  0  0  0
   30.1134   -0.5436   25.5919 C   0  0  0  0  0  0
   32.1037   -1.9496   24.9674 C   0  0  0  0  0  0
   28.6730    1.0513   27.0259 C   0  0  0  0  0  0
   29.5161    1.4865   29.2346 C   0  0  0  0  0  0
   31.6543    0.6207   30.1754 C   0  0  0  0  0  0
   28.5491    1.6820   28.2512 C   0  0  0  0  0  0
   33.2534   -2.6757   25.2964 C   0  0  0  0  0  0
   31.6602   -1.9837   23.6368 C   0  0  0  0  0  0
   33.5341   -3.3670   22.9990 C   0  0  0  0  0  0
   33.9658   -3.3421   24.3229 C   0  0  0  0  0  0
   32.3557   -2.6927   22.6642 C   0  0  0  0  0  0
   33.7693   -4.3566   20.8105 C   0  0  0  0  0  0
   32.5507   -0.8625   29.3045 H   0  0  0  0  0  0
   29.3615   -1.2996   25.3628 H   0  0  0  0  0  0
   30.2066    0.1103   24.7248 H   0  0  0  0  0  0
   27.9176    1.2011   26.2670 H   0  0  0  0  0  0
   29.3477    1.9495   30.1929 H   0  0  0  0  0  0
   27.6875    2.3040   28.4438 H   0  0  0  0  0  0
   33.6572   -2.7381   26.2903 H   0  0  0  0  0  0
   30.7681   -1.4624   23.3318 H   0  0  0  0  0  0
   34.8600   -3.8301   24.6641 H   0  0  0  0  0  0
   31.9769   -2.6880   21.6534 H   0  0  0  0  0  0
   34.4666   -4.9606   20.2360 H   0  0  0  0  0  0
   32.8581   -4.9423   20.9061 H   0  0  0  0  0  0
   33.5668   -3.4542   20.2363 H   0  0  0  0  0  0
  1  7  2  0  0  0
  2 14  2  0  0  0
  3 14  1  0  0  0
  3 22  1  0  0  0
  4 18  1  0  0  0
  4 21  1  0  0  0
  5  7  1  0  0  0
  5 10  1  0  0  0
  5 11  1  0  0  0
  6  7  1  0  0  0
  6  8  1  0  0  0
  6  9  2  0  0  0
  8 10  1  0  0  0
  8 12  2  0  0  0
  9 13  1  0  0  0
  9 14  1  0  0  0
 10 23  1  0  0  0
 10 24  1  0  0  0
 11 16  2  0  0  0
 11 17  1  0  0  0
 12 15  1  0  0  0
 12 25  1  0  0  0
 13 15  2  0  0  0
 13 26  1  0  0  0
 15 27  1  0  0  0
 16 19  1  0  0  0
 16 28  1  0  0  0
 17 20  2  0  0  0
 17 29  1  0  0  0
 18 19  2  0  0  0
 18 20  1  0  0  0
 19 30  1  0  0  0
 20 31  1  0  0  0
 21 32  1  0  0  0
 21 33  1  0  0  0
 21 34  1  0  0  0
M  END
> <s_m_entry_id>
16861

> <s_m_entry_name>
dock_pv.27

> <s_m_Source_Path>
/home/csk/Desktop/cluster/DUD-E-result/esr1

> <s_m_Source_File>
dock_pv.maegz

> <i_m_Source_File_Index>
27

> <chembl_id>
CHEMBL1426947

> <chembl_pref_name>
None

> <i_lp_mmshare_version>
53161

> <r_lp_tautomer_probability>
1

> <s_lp_Force_Field>
OPLS_2005

> <r_lp_Energy>
51.294309

> <b_lp_Chiralities_Consistent>
1

> <s_lp_Variant>
CHEMBL206_lig165-1

> <s_i_glide_gridfile>
glide-grid_1sj0

> <i_i_glide_lignum>
219

> <i_i_glide_rotatable_bonds>
4

> <r_i_docking_score>
-8.15819811484672

> <r_i_glide_ligand_efficiency>
-0.388485624516511

> <r_i_glide_ligand_efficiency_sa>
-1.07180238056741

> <r_i_glide_ligand_efficiency_ln>
-2.01709799870434

> <r_i_glide_gscore>
-8.15819811484672

> <r_i_glide_lipo>
-3.69860832925584

> <r_i_glide_hbond>
0

> <r_i_glide_metal>
0

> <r_i_glide_rewards>
-3.12809566148543

> <r_i_glide_evdw>
-33.428295135498

> <r_i_glide_ecoul>
-0.742543578147888

> <r_i_glide_erotb>
0.451302169391627

> <r_i_glide_esite>
0

> <r_i_glide_emodel>
-48.4021443415016

> <r_i_glide_energy>
-34.1708387136459

> <r_i_glide_einternal>
3.85629749298096

> <i_i_glide_confnum>
9

> <i_i_glide_posenum>
50

> <r_i_glide_eff_state_penalty>
0

> <s_user_duplicate_titles>
CHEMBL206_lig165

> <i_f3d_flags>
0

> <s_m_subgroup_title>
dock_pv

> <s_m_subgroupid>
dock_pv

> <b_m_subgroup_collapsed>
1

$$$$
CHEMBL206_lig179
                    3D
 Schrodinger Suite 2021-1.
 46 49  0  0  1  0            999 V2000
   31.9535   -2.9479   22.1109 S   0  0  0  0  0  0
   33.8578   -3.3894   19.6933 S   0  0  0  0  0  0
   28.7049   -2.9576   27.9473 O   0  0  0  0  0  0
   28.5673    0.1872   26.3355 O   0  0  0  0  0  0
   33.2592   -3.3352   26.4191 O   0  0  0  0  0  0
   30.4889   -0.9797   26.7138 N   0  0  0  0  0  0
   31.9322   -2.5412   24.7568 N   0  0  0  0  0  0
   33.9996   -3.1267   23.6267 N   0  0  0  0  0  0
   34.4600   -3.3409   22.3321 N   0  0  0  0  0  0
   31.2832   -2.1723   27.1287 C   0  0  1  0  0  0
   29.1210   -0.8442   26.7291 C   0  0  0  0  0  0
   32.5013    0.4472   27.2585 C   0  0  0  0  0  0
   32.8512   -0.4884   28.2539 C   0  0  0  0  0  0
   32.2580   -2.7243   26.0528 C   0  0  0  0  0  0
   31.2971    0.2130   26.3411 C   0  0  0  0  0  0
   31.9946   -1.7375   28.4445 C   0  0  0  0  0  0
   28.2471   -1.8939   27.2353 C   0  0  0  0  0  0
   32.7104   -2.8845   23.6623 C   0  0  0  0  0  0
   33.3082    1.5770   27.0785 C   0  0  0  0  0  0
   33.9891   -0.2650   29.0373 C   0  0  0  0  0  0
   33.5247   -3.2542   21.4220 C   0  0  0  0  0  0
   26.8567   -1.9690   27.2024 C   0  0  0  0  0  0
   34.4413    1.7868   27.8616 C   0  0  0  0  0  0
   34.7795    0.8647   28.8460 C   0  0  0  0  0  0
   27.6466   -3.7434   28.2640 C   0  0  0  0  0  0
   26.4734   -3.1379   27.8636 C   0  0  0  0  0  0
   32.2249   -3.0455   18.9712 C   0  0  0  0  0  0
   32.2603   -2.8495   17.4600 C   0  0  0  0  0  0
   31.0346   -2.1253   24.5612 H   0  0  0  0  0  0
   30.7074   -3.0694   27.3017 H   0  0  0  0  0  0
   30.7009    1.1244   26.3335 H   0  0  0  0  0  0
   31.6673    0.0876   25.3231 H   0  0  0  0  0  0
   32.6118   -2.5422   28.8437 H   0  0  0  0  0  0
   31.2431   -1.5331   29.2088 H   0  0  0  0  0  0
   33.0651    2.2930   26.3077 H   0  0  0  0  0  0
   34.2690   -0.9782   29.7992 H   0  0  0  0  0  0
   26.1907   -1.2591   26.7317 H   0  0  0  0  0  0
   35.0617    2.6563   27.7024 H   0  0  0  0  0  0
   35.6585    1.0193   29.4539 H   0  0  0  0  0  0
   27.8724   -4.6569   28.7911 H   0  0  0  0  0  0
   25.4674   -3.5134   27.9860 H   0  0  0  0  0  0
   31.5496   -3.8632   19.2198 H   0  0  0  0  0  0
   31.8107   -2.1432   19.4188 H   0  0  0  0  0  0
   31.2616   -2.6569   17.0693 H   0  0  0  0  0  0
   32.8919   -2.0009   17.1914 H   0  0  0  0  0  0
   32.6500   -3.7336   16.9529 H   0  0  0  0  0  0
  1 18  1  0  0  0
  1 21  1  0  0  0
  2 21  1  0  0  0
  2 27  1  0  0  0
  3 17  1  0  0  0
  3 25  1  0  0  0
  4 11  2  0  0  0
  5 14  2  0  0  0
  6 10  1  0  0  0
  6 11  1  0  0  0
  6 15  1  0  0  0
  7 14  1  0  0  0
  7 18  1  0  0  0
  7 29  1  0  0  0
  8  9  1  0  0  0
  8 18  2  0  0  0
  9 21  2  0  0  0
 10 14  1  0  0  0
 10 16  1  0  0  0
 10 30  1  0  0  0
 11 17  1  0  0  0
 12 13  1  0  0  0
 12 15  1  0  0  0
 12 19  2  0  0  0
 13 16  1  0  0  0
 13 20  2  0  0  0
 15 31  1  0  0  0
 15 32  1  0  0  0
 16 33  1  0  0  0
 16 34  1  0  0  0
 17 22  2  0  0  0
 19 23  1  0  0  0
 19 35  1  0  0  0
 20 24  1  0  0  0
 20 36  1  0  0  0
 22 26  1  0  0  0
 22 37  1  0  0  0
 23 24  2  0  0  0
 23 38  1  0  0  0
 24 39  1  0  0  0
 25 26  2  0  0  0
 25 40  1  0  0  0
 26 41  1  0  0  0
 27 28  1  0  0  0
 27 42  1  0  0  0
 27 43  1  0  0  0
 28 44  1  0  0  0
 28 45  1  0  0  0
 28 46  1  0  0  0
M  END
> <s_m_entry_id>
16862

> <s_m_entry_name>
dock_pv.28

> <s_m_Source_Path>
/home/csk/Desktop/cluster/DUD-E-result/esr1

> <s_m_Source_File>
dock_pv.maegz

> <i_m_Source_File_Index>
28

> <chembl_id>
CHEMBL1388271

> <chembl_pref_name>
None

> <i_lp_mmshare_version>
53161

> <r_lp_tautomer_probability>
1

> <s_lp_Force_Field>
OPLS_2005

> <r_lp_Energy>
29.760333

> <b_lp_Chiralities_Consistent>
1

> <s_lp_Variant>
CHEMBL206_lig179-2

> <s_i_glide_gridfile>
glide-grid_1sj0

> <i_i_glide_lignum>
236

> <i_i_glide_rotatable_bonds>
7

> <r_i_docking_score>
-8.08438532623487

> <r_i_glide_ligand_efficiency>
-0.288728047365531

> <r_i_glide_ligand_efficiency_sa>
-0.87674840352753

> <r_i_glide_ligand_efficiency_ln>
-1.86611350116246

> <r_i_glide_gscore>
-8.08438532623487

> <r_i_glide_lipo>
-3.19578865318934

> <r_i_glide_hbond>
0

> <r_i_glide_metal>
0

> <r_i_glide_rewards>
-2.52956216674585

> <r_i_glide_evdw>
-54.7010231018066

> <r_i_glide_ecoul>
-2.08848214149475

> <r_i_glide_erotb>
0.689288970014871

> <r_i_glide_esite>
0

> <r_i_glide_emodel>
-80.8254220235634

> <r_i_glide_energy>
-56.7895052433014

> <r_i_glide_einternal>
4.5880389213562

> <i_i_glide_confnum>
5

> <i_i_glide_posenum>
3

> <r_i_glide_eff_state_penalty>
0

> <s_user_duplicate_titles>
CHEMBL206_lig179

> <i_f3d_flags>
0

> <s_m_subgroup_title>
dock_pv

> <s_m_subgroupid>
dock_pv

> <b_m_subgroup_collapsed>
1

$$$$
CHEMBL206_lig253
                    3D
 Schrodinger Suite 2021-1.
 44 45  0  0  1  0            999 V2000
   31.8489   -2.7793   22.6901 C   0  0  0  0  0  0
   32.0600   -3.2212   21.3876 C   0  0  0  0  0  0
   33.3551   -3.5541   20.9781 C   0  0  0  0  0  0
   34.4127   -3.3937   21.8700 C   0  0  0  0  0  0
   32.8756   -2.6913   23.6245 C   0  0  0  0  0  0
   30.9774   -3.3420   20.5531 O   0  0  0  0  0  0
   33.6041   -4.0639   19.7292 O   0  0  0  0  0  0
   32.5780   -2.4090   25.1096 C   0  0  0  0  0  0
   32.0472   -0.9894   25.4787 C   0  0  1  0  0  0
   30.6871   -0.6642   24.8215 C   0  0  0  0  0  0
   32.0835   -0.6838   27.0137 C   0  0  2  0  0  0
   31.1212   -1.4996   27.9320 C   0  0  0  0  0  0
   32.0863    0.8333   27.3146 C   0  0  0  0  0  0
   34.1666   -2.9780   23.1817 C   0  0  0  0  0  0
   29.6094   -1.4186   27.6914 C   0  0  0  0  0  0
   28.9130   -0.2039   27.7190 C   0  0  0  0  0  0
   27.5401   -0.1685   27.4640 C   0  0  0  0  0  0
   26.8395   -1.3490   27.2135 C   0  0  0  0  0  0
   27.5148   -2.5748   27.2427 C   0  0  0  0  0  0
   28.8890   -2.5983   27.4765 C   0  0  0  0  0  0
   26.8600   -3.7684   27.0640 O   0  0  0  0  0  0
   25.4947   -1.2845   26.9532 O   0  0  0  0  0  0
   30.8600   -2.5420   22.9947 H   0  0  0  0  0  0
   35.4161   -3.6483   21.5613 H   0  0  0  0  0  0
   30.8681   -4.2594   20.2536 H   0  0  0  0  0  0
   32.8986   -4.6509   19.4371 H   0  0  0  0  0  0
   33.4887   -2.6085   25.6767 H   0  0  0  0  0  0
   31.8658   -3.1618   25.4523 H   0  0  0  0  0  0
   32.7696   -0.2935   25.0640 H   0  0  0  0  0  0
   29.9577   -1.4542   24.9911 H   0  0  0  0  0  0
   30.2511    0.2580   25.1969 H   0  0  0  0  0  0
   30.7866   -0.5418   23.7460 H   0  0  0  0  0  0
   33.0775   -0.9982   27.3396 H   0  0  0  0  0  0
   31.2992   -1.2307   28.9743 H   0  0  0  0  0  0
   31.4280   -2.5420   27.8640 H   0  0  0  0  0  0
   31.2133    1.3470   26.9189 H   0  0  0  0  0  0
   32.1293    1.0273   28.3869 H   0  0  0  0  0  0
   32.9585    1.3149   26.8702 H   0  0  0  0  0  0
   34.9936   -2.9420   23.8640 H   0  0  0  0  0  0
   29.4227    0.7208   27.9339 H   0  0  0  0  0  0
   27.0156    0.7763   27.4643 H   0  0  0  0  0  0
   29.3941   -3.5515   27.4860 H   0  0  0  0  0  0
   26.0831   -3.7418   26.4835 H   0  0  0  0  0  0
   25.1765   -2.0176   26.4056 H   0  0  0  0  0  0
  1  5  1  0  0  0
  1  2  2  0  0  0
  1 23  1  0  0  0
  2  3  1  0  0  0
  2  6  1  0  0  0
  3  7  1  0  0  0
  3  4  2  0  0  0
  4 14  1  0  0  0
  4 24  1  0  0  0
  5 14  2  0  0  0
  5  8  1  0  0  0
  6 25  1  0  0  0
  7 26  1  0  0  0
  8  9  1  0  0  0
  8 27  1  0  0  0
  8 28  1  0  0  0
  9 11  1  0  0  0
  9 10  1  0  0  0
  9 29  1  0  0  0
 10 30  1  0  0  0
 10 31  1  0  0  0
 10 32  1  0  0  0
 11 12  1  0  0  0
 11 13  1  0  0  0
 11 33  1  0  0  0
 12 15  1  0  0  0
 12 34  1  0  0  0
 12 35  1  0  0  0
 13 36  1  0  0  0
 13 37  1  0  0  0
 13 38  1  0  0  0
 14 39  1  0  0  0
 15 16  2  0  0  0
 15 20  1  0  0  0
 16 17  1  0  0  0
 16 40  1  0  0  0
 17 18  2  0  0  0
 17 41  1  0  0  0
 18 19  1  0  0  0
 18 22  1  0  0  0
 19 20  2  0  0  0
 19 21  1  0  0  0
 20 42  1  0  0  0
 21 43  1  0  0  0
 22 44  1  0  0  0
M  END
> <s_m_entry_id>
16863

> <s_m_entry_name>
dock_pv.29

> <s_m_Source_Path>
/home/csk/Desktop/cluster/DUD-E-result/esr1

> <s_m_Source_File>
dock_pv.maegz

> <i_m_Source_File_Index>
29

> <chembl_id>
CHEMBL52

> <chembl_pref_name>
NORDIHYDROGUAIARETIC ACID

> <i_lp_mmshare_version>
53161

> <r_lp_tautomer_probability>
0.999999999999552

> <s_lp_Force_Field>
OPLS_2005

> <r_lp_Energy>
14.925776

> <b_lp_Chiralities_Consistent>
1

> <s_lp_Variant>
CHEMBL206_lig253-2

> <s_i_glide_gridfile>
glide-grid_1sj0

> <i_i_glide_lignum>
327

> <i_i_glide_rotatable_bonds>
9

> <r_i_docking_score>
-8.06978205028362

> <r_i_glide_ligand_efficiency>
-0.366808275012892

> <r_i_glide_ligand_efficiency_sa>
-1.02781121233698

> <r_i_glide_ligand_efficiency_ln>
-1.97254908554155

> <r_i_glide_gscore>
-8.06978205028362

> <r_i_glide_lipo>
-3.61210912641437

> <r_i_glide_hbond>
0

> <r_i_glide_metal>
0

> <r_i_glide_rewards>
-1.84980257283463

> <r_i_glide_evdw>
-32.4669342041016

> <r_i_glide_ecoul>
-11.26233959198

> <r_i_glide_erotb>
0.70482729796745

> <r_i_glide_esite>
0

> <r_i_glide_emodel>
-59.8828561642523

> <r_i_glide_energy>
-43.7292737960815

> <r_i_glide_einternal>
11.6029653549194

> <i_i_glide_confnum>
57

> <i_i_glide_posenum>
165

> <r_i_glide_eff_state_penalty>
0

> <s_user_duplicate_titles>
CHEMBL206_lig253

> <i_f3d_flags>
0

> <s_m_subgroup_title>
dock_pv

> <s_m_subgroupid>
dock_pv

> <b_m_subgroup_collapsed>
1

$$$$
CHEMBL206_lig185
                    3D
 Schrodinger Suite 2021-1.
 32 34  0  0  1  0            999 V2000
   32.4602    0.5815   26.2640 S   0  0  0  0  0  0
   30.8026   -2.0766   27.6800 O   0  0  0  0  0  0
   28.2903    0.2249   27.1632 O   0  0  0  0  0  0
   30.1071    0.6469   28.4155 N   0  0  0  0  0  0
   31.2542   -0.6610   25.6955 C   0  0  2  0  0  0
   30.2320   -1.1748   26.7399 C   0  0  2  0  0  0
   32.5530    0.5224   28.0121 C   0  0  0  0  0  0
   31.4335    0.6275   28.8737 C   0  0  0  0  0  0
   29.4538   -0.0416   27.4575 C   0  0  0  0  0  0
   31.9711   -1.7460   24.8818 C   0  0  0  0  0  0
   33.8454    0.5010   28.5257 C   0  0  0  0  0  0
   31.6734    0.6814   30.2510 C   0  0  0  0  0  0
   32.9731   -2.5408   25.4475 C   0  0  0  0  0  0
   31.6582   -1.9079   23.5303 C   0  0  0  0  0  0
   34.0540    0.5710   29.8885 C   0  0  0  0  0  0
   32.9698    0.6587   30.7578 C   0  0  0  0  0  0
   33.6600   -3.4554   24.6539 C   0  0  0  0  0  0
   32.3236   -2.8413   22.7437 C   0  0  0  0  0  0
   33.3308   -3.6090   23.3109 C   0  0  0  0  0  0
   31.1620   -2.8240   27.1943 H   0  0  0  0  0  0
   29.5102    1.3259   28.8607 H   0  0  0  0  0  0
   30.6563   -0.0946   24.9799 H   0  0  0  0  0  0
   29.4801   -1.7535   26.2017 H   0  0  0  0  0  0
   34.6995    0.4501   27.8644 H   0  0  0  0  0  0
   30.8460    0.7469   30.9423 H   0  0  0  0  0  0
   33.2527   -2.4165   26.4838 H   0  0  0  0  0  0
   30.8734   -1.3208   23.0903 H   0  0  0  0  0  0
   35.0632    0.5512   30.2640 H   0  0  0  0  0  0
   33.1367    0.7076   31.8238 H   0  0  0  0  0  0
   34.4539   -4.0580   25.0641 H   0  0  0  0  0  0
   32.0618   -2.9693   21.7028 H   0  0  0  0  0  0
   33.8589   -4.3306   22.7045 H   0  0  0  0  0  0
  1  5  1  0  0  0
  1  7  1  0  0  0
  2  6  1  0  0  0
  2 20  1  0  0  0
  3  9  2  0  0  0
  4  8  1  0  0  0
  4  9  1  0  0  0
  4 21  1  0  0  0
  5  6  1  0  0  0
  5 10  1  0  0  0
  5 22  1  0  0  0
  6  9  1  0  0  0
  6 23  1  0  0  0
  7  8  1  0  0  0
  7 11  2  0  0  0
  8 12  2  0  0  0
 10 13  2  0  0  0
 10 14  1  0  0  0
 11 15  1  0  0  0
 11 24  1  0  0  0
 12 16  1  0  0  0
 12 25  1  0  0  0
 13 17  1  0  0  0
 13 26  1  0  0  0
 14 18  2  0  0  0
 14 27  1  0  0  0
 15 16  2  0  0  0
 15 28  1  0  0  0
 16 29  1  0  0  0
 17 19  2  0  0  0
 17 30  1  0  0  0
 18 19  1  0  0  0
 18 31  1  0  0  0
 19 32  1  0  0  0
M  END
> <s_m_entry_id>
16864

> <s_m_entry_name>
dock_pv.30

> <s_m_Source_Path>
/home/csk/Desktop/cluster/DUD-E-result/esr1

> <s_m_Source_File>
dock_pv.maegz

> <i_m_Source_File_Index>
30

> <chembl_id>
CHEMBL1506716

> <chembl_pref_name>
None

> <i_lp_mmshare_version>
53161

> <r_lp_tautomer_probability>
1

> <s_lp_Force_Field>
OPLS_2005

> <r_lp_Energy>
30.726482

> <b_lp_Chiralities_Consistent>
1

> <s_lp_Variant>
CHEMBL206_lig185-1

> <s_i_glide_gridfile>
glide-grid_1sj0

> <i_i_glide_lignum>
244

> <i_i_glide_rotatable_bonds>
2

> <r_i_docking_score>
-8.04963167038756

> <r_i_glide_ligand_efficiency>
-0.42366482475724

> <r_i_glide_ligand_efficiency_sa>
-1.13050791577814

> <r_i_glide_ligand_efficiency_ln>
-2.04075451867902

> <r_i_glide_gscore>
-8.04963167038756

> <r_i_glide_lipo>
-4.08863214357857

> <r_i_glide_hbond>
0

> <r_i_glide_metal>
0

> <r_i_glide_rewards>
-2.56321020188206

> <r_i_glide_evdw>
-32.9155235290527

> <r_i_glide_ecoul>
0.0321728996932507

> <r_i_glide_erotb>
0.243160916571722

> <r_i_glide_esite>
0

> <r_i_glide_emodel>
-47.1145280344708

> <r_i_glide_energy>
-32.8833506293595

> <r_i_glide_einternal>
0.21578086912632

> <i_i_glide_confnum>
1

> <i_i_glide_posenum>
28

> <r_i_glide_eff_state_penalty>
0

> <s_user_duplicate_titles>
CHEMBL206_lig185

> <i_f3d_flags>
0

> <s_m_subgroup_title>
dock_pv

> <s_m_subgroupid>
dock_pv

> <b_m_subgroup_collapsed>
1

$$$$
CHEMBL206_lig115
                    3D
 Schrodinger Suite 2021-1.
 28 30  0  0  1  0            999 V2000
   33.1690   -3.2588   21.2394 Br  0  0  0  0  0  0
   31.3890    0.3824   27.9834 S   0  0  0  0  0  0
   27.4065    1.4580   27.4640 S   0  0  0  0  0  0
   33.0391   -2.5420   28.1259 O   0  0  0  0  0  0
   29.0280    1.8011   27.8467 N   0  0  0  0  0  0
   29.3232   -2.9324   27.4640 N   0  0  0  0  0  0
   28.9430   -0.5296   27.6203 C   0  0  0  0  0  0
   31.1344   -1.3078   27.6293 C   0  0  0  0  0  0
   29.6709    0.6623   27.8145 C   0  0  0  0  0  0
   29.8008   -1.6590   27.6028 C   0  0  0  0  0  0
   27.5456   -0.2697   27.4651 C   0  0  0  0  0  0
   32.2904   -2.0916   27.2590 C   0  0  0  0  0  0
   32.4672   -2.3576   25.7950 C   0  0  0  0  0  0
   26.3580   -1.1807   27.2595 C   0  0  0  0  0  0
   33.2600   -3.4304   25.3921 C   0  0  0  0  0  0
   31.8832   -1.5393   24.8136 C   0  0  0  0  0  0
   33.4720   -3.6914   24.0423 C   0  0  0  0  0  0
   32.0955   -1.8034   23.4640 C   0  0  0  0  0  0
   32.8871   -2.8801   23.0816 C   0  0  0  0  0  0
   28.3329   -3.1188   27.4097 H   0  0  0  0  0  0
   29.9285   -3.7183   27.2575 H   0  0  0  0  0  0
   26.6243   -2.2363   27.2868 H   0  0  0  0  0  0
   25.6023   -1.0254   28.0288 H   0  0  0  0  0  0
   25.8766   -1.0071   26.2962 H   0  0  0  0  0  0
   33.6600   -4.1109   26.1263 H   0  0  0  0  0  0
   31.2717   -0.6880   25.0767 H   0  0  0  0  0  0
   34.0600   -4.5420   23.7400 H   0  0  0  0  0  0
   31.6600   -1.1711   22.7111 H   0  0  0  0  0  0
  1 19  1  0  0  0
  2  8  1  0  0  0
  2  9  1  0  0  0
  3  5  1  0  0  0
  3 11  1  0  0  0
  4 12  2  0  0  0
  5  9  2  0  0  0
  6 10  1  0  0  0
  6 20  1  0  0  0
  6 21  1  0  0  0
  7  9  1  0  0  0
  7 10  1  0  0  0
  7 11  2  0  0  0
  8 10  2  0  0  0
  8 12  1  0  0  0
 11 14  1  0  0  0
 12 13  1  0  0  0
 13 15  2  0  0  0
 13 16  1  0  0  0
 14 22  1  0  0  0
 14 23  1  0  0  0
 14 24  1  0  0  0
 15 17  1  0  0  0
 15 25  1  0  0  0
 16 18  2  0  0  0
 16 26  1  0  0  0
 17 19  2  0  0  0
 17 27  1  0  0  0
 18 19  1  0  0  0
 18 28  1  0  0  0
M  END
> <s_m_entry_id>
16865

> <s_m_entry_name>
dock_pv.31

> <s_m_Source_Path>
/home/csk/Desktop/cluster/DUD-E-result/esr1

> <s_m_Source_File>
dock_pv.maegz

> <i_m_Source_File_Index>
31

> <chembl_id>
CHEMBL1597933

> <chembl_pref_name>
None

> <i_lp_mmshare_version>
53161

> <r_lp_tautomer_probability>
1

> <s_lp_Force_Field>
OPLS_2005

> <r_lp_Energy>
32.406296

> <b_lp_Chiralities_Consistent>
1

> <s_lp_Variant>
CHEMBL206_lig115-1

> <s_i_glide_gridfile>
glide-grid_1sj0

> <i_i_glide_lignum>
138

> <i_i_glide_rotatable_bonds>
2

> <r_i_docking_score>
-8.0069562846356

> <r_i_glide_ligand_efficiency>
-0.421418751822926

> <r_i_glide_ligand_efficiency_sa>
-1.12451449106295

> <r_i_glide_ligand_efficiency_ln>
-2.02993539180765

> <r_i_glide_gscore>
-8.0069562846356

> <r_i_glide_lipo>
-3.75841898673141

> <r_i_glide_hbond>
-0.30139018249012

> <r_i_glide_metal>
0

> <r_i_glide_rewards>
-2.13023550910601

> <r_i_glide_evdw>
-36.1385726928711

> <r_i_glide_ecoul>
-2.10671377182007

> <r_i_glide_erotb>
0.306024094108512

> <r_i_glide_esite>
0

> <r_i_glide_emodel>
-48.9743437393427

> <r_i_glide_energy>
-38.2452864646912

> <r_i_glide_einternal>
6.55846691131592

> <i_i_glide_confnum>
7

> <i_i_glide_posenum>
199

> <r_i_glide_eff_state_penalty>
0

> <s_user_duplicate_titles>
CHEMBL206_lig115

> <i_f3d_flags>
0

> <s_m_subgroup_title>
dock_pv

> <s_m_subgroupid>
dock_pv

> <b_m_subgroup_collapsed>
1

$$$$
CHEMBL206_lig299
                    3D
 Schrodinger Suite 2021-1.
 43 46  0  0  1  0            999 V2000
   31.3464   -0.5938   27.0847 C   0  0  1  0  0  0
   32.4521    0.1098   29.2432 C   0  0  2  0  0  0
   31.1064   -0.0631   28.4899 C   0  0  1  0  0  0
   32.3154   -2.5051   25.7482 C   0  0  0  0  0  0
   32.0214   -1.9953   27.1552 C   0  0  1  0  0  0
   31.6600   -1.9689   24.6373 C   0  0  0  0  0  0
   30.5513   -1.0306   24.8325 C   0  0  0  0  0  0
   30.0817   -0.7133   26.2420 C   0  0  0  0  0  0
   32.9966   -1.3051   29.4101 C   0  0  0  0  0  0
   33.2600   -1.9788   28.0714 C   0  0  0  0  0  0
   30.3431    1.2311   28.6689 C   0  0  0  0  0  0
   33.2600   -3.4811   25.5114 C   0  0  0  0  0  0
   31.9249    0.7291   30.5391 C   0  0  2  0  0  0
   32.0755   -2.2831   23.3298 C   0  0  0  0  0  0
   30.0600   -0.5420   23.8640 O   0  0  0  0  0  0
   30.8600    1.6947   30.0266 C   0  0  0  0  0  0
   33.0946   -3.1863   23.1186 C   0  0  0  0  0  0
   33.6632   -3.7839   24.2227 C   0  0  0  0  0  0
   33.5033    1.0580   28.5766 C   0  0  0  0  0  0
   32.8514    1.2658   31.4622 O   0  0  0  0  0  0
   33.4987   -3.5034   21.8503 O   0  0  0  0  0  0
   31.3024   -2.6987   27.5731 H   0  0  0  0  0  0
   32.0288    0.1042   26.5924 H   0  0  0  0  0  0
   30.4954   -0.8208   28.9920 H   0  0  0  0  0  0
   29.4819   -1.5408   26.6218 H   0  0  0  0  0  0
   29.5344    0.2292   26.2457 H   0  0  0  0  0  0
   33.8754   -1.3296   30.0529 H   0  0  0  0  0  0
   32.2137   -1.8786   29.8640 H   0  0  0  0  0  0
   33.6015   -2.9917   28.2878 H   0  0  0  0  0  0
   34.0600   -1.4319   27.5776 H   0  0  0  0  0  0
   29.2637    1.0704   28.6818 H   0  0  0  0  0  0
   30.5685    1.9462   27.8760 H   0  0  0  0  0  0
   33.6600   -4.0282   26.3441 H   0  0  0  0  0  0
   31.3991   -0.0453   31.1035 H   0  0  0  0  0  0
   31.6190   -1.8407   22.4594 H   0  0  0  0  0  0
   30.0600    1.8243   30.7520 H   0  0  0  0  0  0
   31.3328    2.6580   29.8640 H   0  0  0  0  0  0
   34.4032   -4.5420   24.1125 H   0  0  0  0  0  0
   34.3805    1.1806   29.2133 H   0  0  0  0  0  0
   33.8731    0.7051   27.6165 H   0  0  0  0  0  0
   33.0965    2.0511   28.3892 H   0  0  0  0  0  0
   33.2597    2.0379   31.0640 H   0  0  0  0  0  0
   34.0756   -4.2697   21.8051 H   0  0  0  0  0  0
  1  3  1  0  0  0
  1  5  1  0  0  0
  1  8  1  0  0  0
  1 23  1  0  0  0
  2  3  1  0  0  0
  2 13  1  0  0  0
  2 19  1  0  0  0
  2  9  1  0  0  0
  3 11  1  0  0  0
  3 24  1  0  0  0
  4  5  1  0  0  0
  4 12  2  0  0  0
  4  6  1  0  0  0
  5 10  1  0  0  0
  5 22  1  0  0  0
  6  7  1  0  0  0
  6 14  2  0  0  0
  7  8  1  0  0  0
  7 15  2  0  0  0
  8 25  1  0  0  0
  8 26  1  0  0  0
  9 10  1  0  0  0
  9 27  1  0  0  0
  9 28  1  0  0  0
 10 29  1  0  0  0
 10 30  1  0  0  0
 11 16  1  0  0  0
 11 31  1  0  0  0
 11 32  1  0  0  0
 12 18  1  0  0  0
 12 33  1  0  0  0
 13 20  1  0  0  0
 13 16  1  0  0  0
 13 34  1  0  0  0
 14 17  1  0  0  0
 14 35  1  0  0  0
 16 36  1  0  0  0
 16 37  1  0  0  0
 17 21  1  0  0  0
 17 18  2  0  0  0
 18 38  1  0  0  0
 19 39  1  0  0  0
 19 40  1  0  0  0
 19 41  1  0  0  0
 20 42  1  0  0  0
 21 43  1  0  0  0
M  END
> <s_m_entry_id>
16866

> <s_m_entry_name>
dock_pv.32

> <s_m_Source_Path>
/home/csk/Desktop/cluster/DUD-E-result/esr1

> <s_m_Source_File>
dock_pv.maegz

> <i_m_Source_File_Index>
32

> <chembl_id>
CHEMBL389704

> <chembl_pref_name>
None

> <i_lp_mmshare_version>
53161

> <r_lp_tautomer_probability>
0.99995

> <s_lp_Force_Field>
OPLS_2005

> <r_lp_Energy>
49.148451

> <b_lp_Chiralities_Consistent>
1

> <s_lp_Variant>
CHEMBL206_lig299-1

> <s_i_glide_gridfile>
glide-grid_1sj0

> <i_i_glide_lignum>
382

> <i_i_glide_rotatable_bonds>
2

> <r_i_docking_score>
-8.00365165320098

> <r_i_glide_ligand_efficiency>
-0.381126269200047

> <r_i_glide_ligand_efficiency_sa>
-1.05149847728284

> <r_i_glide_ligand_efficiency_ln>
-1.97888669835296

> <r_i_glide_gscore>
-8.00365165320098

> <r_i_glide_lipo>
-4.56033388735897

> <r_i_glide_hbond>
0

> <r_i_glide_metal>
0

> <r_i_glide_rewards>
-2.47858563746029

> <r_i_glide_evdw>
-17.5570793151855

> <r_i_glide_ecoul>
-0.579187750816345

> <r_i_glide_erotb>
0

> <r_i_glide_esite>
0

> <r_i_glide_emodel>
-26.136756506762

> <r_i_glide_energy>
-18.1362670660019

> <r_i_glide_einternal>
1.13557255268097

> <i_i_glide_confnum>
1

> <i_i_glide_posenum>
158

> <r_i_glide_eff_state_penalty>
0

> <s_user_duplicate_titles>
CHEMBL206_lig299

> <i_f3d_flags>
0

> <s_m_subgroup_title>
dock_pv

> <s_m_subgroupid>
dock_pv

> <b_m_subgroup_collapsed>
1

$$$$
CHEMBL206_lig225
                    3D
 Schrodinger Suite 2021-1.
 38 41  0  0  1  0            999 V2000
   33.1010   -3.1964   21.1459 O   0  0  0  0  0  0
   30.8563   -2.9439   21.3240 O   0  0  0  0  0  0
   32.4856   -2.4635   27.4924 N   0  0  0  0  0  0
   33.9146   -0.0099   28.9782 N   0  0  0  0  0  0
   30.1479   -1.2478   26.2797 C   0  0  1  0  0  0
   31.2886   -1.8553   25.4415 C   0  0  0  0  0  0
   30.4918   -1.0345   27.7703 C   0  0  1  0  0  0
   31.9889   -1.2592   28.1567 C   0  0  2  0  0  0
   32.3234   -2.5429   26.1009 C   0  0  0  0  0  0
   32.9484   -0.0689   28.0212 C   0  0  0  0  0  0
   31.2719   -1.9070   24.0322 C   0  0  0  0  0  0
   29.5752    0.0820   25.8513 C   0  0  0  0  0  0
   29.8670    0.3081   28.1937 C   0  0  0  0  0  0
   32.2059   -2.6847   23.3125 C   0  0  0  0  0  0
   33.2796   -3.2465   25.3815 C   0  0  0  0  0  0
   29.3959    0.9146   26.8902 C   0  0  0  0  0  0
   33.2354   -3.3113   24.0048 C   0  0  0  0  0  0
   32.8918    0.8500   26.9645 C   0  0  0  0  0  0
   32.1134   -2.9421   21.8313 C   0  0  0  0  0  0
   34.8500    0.9662   28.8881 C   0  0  0  0  0  0
   33.8572    1.8567   26.8942 C   0  0  0  0  0  0
   34.8598    1.9110   27.8637 C   0  0  0  0  0  0
   29.9488   -1.8141   28.3092 H   0  0  0  0  0  0
   29.3422   -1.9803   26.2285 H   0  0  0  0  0  0
   30.8906   -3.2540   20.4159 H   0  0  0  0  0  0
   33.3198   -2.8446   27.9137 H   0  0  0  0  0  0
   31.9893   -1.4887   29.2249 H   0  0  0  0  0  0
   30.4634   -1.4219   23.5044 H   0  0  0  0  0  0
   29.2875    0.2730   24.8283 H   0  0  0  0  0  0
   29.0150    0.1680   28.8589 H   0  0  0  0  0  0
   30.5743    0.9688   28.6955 H   0  0  0  0  0  0
   34.0591   -3.7971   25.8639 H   0  0  0  0  0  0
   28.9656    1.9035   26.8424 H   0  0  0  0  0  0
   33.9759   -3.9105   23.4914 H   0  0  0  0  0  0
   32.1413    0.7718   26.1969 H   0  0  0  0  0  0
   35.6194    0.9706   29.6467 H   0  0  0  0  0  0
   33.8472    2.5660   26.0797 H   0  0  0  0  0  0
   35.6389    2.6572   27.8208 H   0  0  0  0  0  0
  1 19  2  0  0  0
  2 19  1  0  0  0
  2 25  1  0  0  0
  3  8  1  0  0  0
  3  9  1  0  0  0
  3 26  1  0  0  0
  4 10  1  0  0  0
  4 20  2  0  0  0
  5  6  1  0  0  0
  5  7  1  0  0  0
  5 12  1  0  0  0
  5 24  1  0  0  0
  6  9  1  0  0  0
  6 11  2  0  0  0
  7  8  1  0  0  0
  7 13  1  0  0  0
  7 23  1  0  0  0
  8 10  1  0  0  0
  8 27  1  0  0  0
  9 15  2  0  0  0
 10 18  2  0  0  0
 11 14  1  0  0  0
 11 28  1  0  0  0
 12 16  2  0  0  0
 12 29  1  0  0  0
 13 16  1  0  0  0
 13 30  1  0  0  0
 13 31  1  0  0  0
 14 17  2  0  0  0
 14 19  1  0  0  0
 15 17  1  0  0  0
 15 32  1  0  0  0
 16 33  1  0  0  0
 17 34  1  0  0  0
 18 21  1  0  0  0
 18 35  1  0  0  0
 20 22  1  0  0  0
 20 36  1  0  0  0
 21 22  2  0  0  0
 21 37  1  0  0  0
 22 38  1  0  0  0
M  END
> <s_m_entry_id>
16867

> <s_m_entry_name>
dock_pv.33

> <s_m_Source_Path>
/home/csk/Desktop/cluster/DUD-E-result/esr1

> <s_m_Source_File>
dock_pv.maegz

> <i_m_Source_File_Index>
33

> <chembl_id>
CHEMBL1391547

> <chembl_pref_name>
None

> <i_lp_mmshare_version>
53161

> <r_lp_tautomer_probability>
1

> <s_lp_Force_Field>
OPLS_2005

> <r_lp_Energy>
28.315703

> <b_lp_Chiralities_Consistent>
1

> <s_lp_Variant>
CHEMBL206_lig225-1

> <s_i_glide_gridfile>
glide-grid_1sj0

> <i_i_glide_lignum>
295

> <i_i_glide_rotatable_bonds>
3

> <r_i_docking_score>
-7.95597247123039

> <r_i_glide_ligand_efficiency>
-0.361635112328654

> <r_i_glide_ligand_efficiency_sa>
-1.0133158070468

> <r_i_glide_ligand_efficiency_ln>
-1.94472987311568

> <r_i_glide_gscore>
-7.95597247123039

> <r_i_glide_lipo>
-4.34304026740715

> <r_i_glide_hbond>
0

> <r_i_glide_metal>
0

> <r_i_glide_rewards>
-2.06246924677094

> <r_i_glide_evdw>
-37.3130912780762

> <r_i_glide_ecoul>
-0.647517085075378

> <r_i_glide_erotb>
0.427234587838477

> <r_i_glide_esite>
-0.0149154182256554

> <r_i_glide_emodel>
-46.8344252097018

> <r_i_glide_energy>
-37.9606083631516

> <r_i_glide_einternal>
6.96527194976807

> <i_i_glide_confnum>
8

> <i_i_glide_posenum>
353

> <r_i_glide_eff_state_penalty>
0

> <s_user_duplicate_titles>
CHEMBL206_lig225

> <i_f3d_flags>
0

> <s_m_subgroup_title>
dock_pv

> <s_m_subgroupid>
dock_pv

> <b_m_subgroup_collapsed>
1

$$$$
CHEMBL206_lig51
                    3D
 Schrodinger Suite 2021-1.
 27 29  0  0  1  0            999 V2000
   30.0217    0.0620   27.2160 C   0  0  0  0  0  0
   32.6215   -1.0493   27.0679 N   0  0  0  0  0  0
   31.7286   -1.2150   26.0640 C   0  0  0  0  0  0
   30.4426   -0.6823   26.1052 C   0  0  0  0  0  0
   32.2123   -2.0230   24.9064 C   0  0  0  0  0  0
   30.9620    0.2723   28.2889 C   0  0  0  0  0  0
   28.6195    0.6268   27.2228 C   0  0  0  0  0  0
   32.2635   -0.3138   28.1535 C   0  0  0  0  0  0
   31.5216   -1.9180   23.7379 O   0  0  0  0  0  0
   33.2709   -2.9055   24.7200 C   0  0  0  0  0  0
   28.3359    1.7285   27.6855 O   0  0  0  0  0  0
   32.1188   -2.7307   22.8287 C   0  0  0  0  0  0
   33.2141   -3.3528   23.3986 C   0  0  0  0  0  0
   27.6833   -0.1976   26.6783 O   0  0  0  0  0  0
   30.6920    1.0012   29.4879 C   0  0  0  0  0  0
   33.2310   -0.1393   29.1741 C   0  0  0  0  0  0
   31.6567    1.1336   30.4848 C   0  0  0  0  0  0
   32.9178    0.5783   30.3223 C   0  0  0  0  0  0
   29.7739   -0.8520   25.2719 H   0  0  0  0  0  0
   34.0040   -3.1912   25.4600 H   0  0  0  0  0  0
   31.6657   -2.7706   21.8468 H   0  0  0  0  0  0
   33.8795   -4.0557   22.9162 H   0  0  0  0  0  0
   26.8154    0.2098   26.7142 H   0  0  0  0  0  0
   29.7219    1.4425   29.6524 H   0  0  0  0  0  0
   34.2143   -0.5754   29.0621 H   0  0  0  0  0  0
   31.4275    1.6750   31.3926 H   0  0  0  0  0  0
   33.6585    0.7001   31.0980 H   0  0  0  0  0  0
  1  4  2  0  0  0
  1  6  1  0  0  0
  1  7  1  0  0  0
  2  8  1  0  0  0
  2  3  2  0  0  0
  3  4  1  0  0  0
  3  5  1  0  0  0
  4 19  1  0  0  0
  5  9  1  0  0  0
  5 10  2  0  0  0
  6  8  1  0  0  0
  6 15  2  0  0  0
  7 11  2  0  0  0
  7 14  1  0  0  0
  8 16  2  0  0  0
  9 12  1  0  0  0
 10 13  1  0  0  0
 10 20  1  0  0  0
 12 13  2  0  0  0
 12 21  1  0  0  0
 13 22  1  0  0  0
 14 23  1  0  0  0
 15 17  1  0  0  0
 15 24  1  0  0  0
 16 18  1  0  0  0
 16 25  1  0  0  0
 17 18  2  0  0  0
 17 26  1  0  0  0
 18 27  1  0  0  0
M  END
> <s_m_entry_id>
16868

> <s_m_entry_name>
dock_pv.34

> <s_m_Source_Path>
/home/csk/Desktop/cluster/DUD-E-result/esr1

> <s_m_Source_File>
dock_pv.maegz

> <i_m_Source_File_Index>
34

> <chembl_id>
CHEMBL150924

> <chembl_pref_name>
None

> <i_lp_mmshare_version>
53161

> <r_lp_tautomer_probability>
1

> <s_lp_Force_Field>
OPLS_2005

> <r_lp_Energy>
15.022318

> <b_lp_Chiralities_Consistent>
1

> <s_lp_Variant>
CHEMBL206_lig51-1

> <s_i_glide_gridfile>
glide-grid_1sj0

> <i_i_glide_lignum>
62

> <i_i_glide_rotatable_bonds>
3

> <r_i_docking_score>
-7.87284553729584

> <r_i_glide_ligand_efficiency>
-0.437380307627547

> <r_i_glide_ligand_efficiency_sa>
-1.14626067610696

> <r_i_glide_ligand_efficiency_ln>
-2.02367434971133

> <r_i_glide_gscore>
-7.87284553729584

> <r_i_glide_lipo>
-3.50711347451036

> <r_i_glide_hbond>
0

> <r_i_glide_metal>
0

> <r_i_glide_rewards>
-3.09145201266404

> <r_i_glide_evdw>
-35.10205078125

> <r_i_glide_ecoul>
-0.819896101951599

> <r_i_glide_erotb>
0.603806904233804

> <r_i_glide_esite>
0

> <r_i_glide_emodel>
-52.6956148826831

> <r_i_glide_energy>
-35.9219468832016

> <r_i_glide_einternal>
1.07423985004425

> <i_i_glide_confnum>
1

> <i_i_glide_posenum>
2

> <r_i_glide_eff_state_penalty>
0

> <s_user_duplicate_titles>
CHEMBL206_lig51

> <i_f3d_flags>
0

> <s_m_subgroup_title>
dock_pv

> <s_m_subgroupid>
dock_pv

> <b_m_subgroup_collapsed>
1

$$$$
CHEMBL206_lig159
                    3D
 Schrodinger Suite 2021-1.
 39 40  0  0  1  0            999 V2000
   31.1799    0.0714   28.6295 S   0  0  0  0  0  0
   31.5342    1.3009   27.9101 O   0  0  0  0  0  0
   31.2600    0.0369   30.0945 O   0  0  0  0  0  0
   28.0599   -4.4203   28.6639 O   0  0  0  0  0  0
   26.8600   -4.1419   26.7654 O   0  0  0  0  0  0
   32.2590   -1.2224   28.0033 N   0  0  0  0  0  0
   29.4978   -0.4163   28.1850 C   0  0  0  0  0  0
   28.4940    0.5116   27.8641 C   0  0  0  0  0  0
   32.2590   -1.6398   26.6432 C   0  0  0  0  0  0
   29.1913   -1.7790   28.1609 C   0  0  0  0  0  0
   27.9262   -2.2245   27.7590 C   0  0  0  0  0  0
   27.2320    0.0652   27.4639 C   0  0  0  0  0  0
   33.3710   -1.5881   28.8900 C   0  0  0  0  0  0
   26.9497   -1.2943   27.3933 C   0  0  0  0  0  0
   27.6197   -3.6873   27.7894 C   0  0  0  0  0  0
   31.6339   -0.8687   25.6488 C   0  0  0  0  0  0
   32.8601   -2.8475   26.2522 C   0  0  0  0  0  0
   28.7130    1.9996   27.9883 C   0  0  0  0  0  0
   31.6583   -1.2592   24.3125 C   0  0  0  0  0  0
   32.9096   -3.2269   24.9140 C   0  0  0  0  0  0
   34.4961   -0.5409   28.8767 C   0  0  0  0  0  0
   32.3094   -2.4308   23.9467 C   0  0  0  0  0  0
   26.2940   -3.5207   26.2884 H   0  0  0  0  0  0
   29.9485   -2.4982   28.4448 H   0  0  0  0  0  0
   26.4573    0.7750   27.2110 H   0  0  0  0  0  0
   33.0016   -1.6689   29.9099 H   0  0  0  0  0  0
   33.7979   -2.5607   28.6641 H   0  0  0  0  0  0
   25.9598   -1.6068   27.0882 H   0  0  0  0  0  0
   31.1316    0.0560   25.8801 H   0  0  0  0  0  0
   33.2997   -3.5205   26.9687 H   0  0  0  0  0  0
   27.7630    2.5321   28.0451 H   0  0  0  0  0  0
   29.2585    2.2405   28.9014 H   0  0  0  0  0  0
   29.2894    2.3494   27.1334 H   0  0  0  0  0  0
   31.1830   -0.6469   23.5610 H   0  0  0  0  0  0
   33.4058   -4.1420   24.6270 H   0  0  0  0  0  0
   35.3500   -0.8779   29.4645 H   0  0  0  0  0  0
   34.8511   -0.3404   27.8662 H   0  0  0  0  0  0
   34.1612    0.4061   29.3015 H   0  0  0  0  0  0
   32.3382   -2.7311   22.9091 H   0  0  0  0  0  0
  1  2  2  0  0  0
  1  3  2  0  0  0
  1  6  1  0  0  0
  1  7  1  0  0  0
  4 15  2  0  0  0
  5 15  1  0  0  0
  5 23  1  0  0  0
  6  9  1  0  0  0
  6 13  1  0  0  0
  7  8  1  0  0  0
  7 10  2  0  0  0
  8 12  2  0  0  0
  8 18  1  0  0  0
  9 16  2  0  0  0
  9 17  1  0  0  0
 10 11  1  0  0  0
 10 24  1  0  0  0
 11 14  2  0  0  0
 11 15  1  0  0  0
 12 14  1  0  0  0
 12 25  1  0  0  0
 13 21  1  0  0  0
 13 26  1  0  0  0
 13 27  1  0  0  0
 14 28  1  0  0  0
 16 19  1  0  0  0
 16 29  1  0  0  0
 17 20  2  0  0  0
 17 30  1  0  0  0
 18 31  1  0  0  0
 18 32  1  0  0  0
 18 33  1  0  0  0
 19 22  2  0  0  0
 19 34  1  0  0  0
 20 22  1  0  0  0
 20 35  1  0  0  0
 21 36  1  0  0  0
 21 37  1  0  0  0
 21 38  1  0  0  0
 22 39  1  0  0  0
M  END
> <s_m_entry_id>
16869

> <s_m_entry_name>
dock_pv.35

> <s_m_Source_Path>
/home/csk/Desktop/cluster/DUD-E-result/esr1

> <s_m_Source_File>
dock_pv.maegz

> <i_m_Source_File_Index>
35

> <chembl_id>
CHEMBL1307301

> <chembl_pref_name>
None

> <i_lp_mmshare_version>
53161

> <r_lp_tautomer_probability>
1

> <s_lp_Force_Field>
OPLS_2005

> <r_lp_Energy>
16.523595

> <b_lp_Chiralities_Consistent>
1

> <s_lp_Variant>
CHEMBL206_lig159-1

> <s_i_glide_gridfile>
glide-grid_1sj0

> <i_i_glide_lignum>
213

> <i_i_glide_rotatable_bonds>
6

> <r_i_docking_score>
-7.8161690160355

> <r_i_glide_ligand_efficiency>
-0.355280409819795

> <r_i_glide_ligand_efficiency_sa>
-0.99550968070071

> <r_i_glide_ligand_efficiency_ln>
-1.91055680921112

> <r_i_glide_gscore>
-7.8161690160355

> <r_i_glide_lipo>
-4.00986831790377

> <r_i_glide_hbond>
0

> <r_i_glide_metal>
0

> <r_i_glide_rewards>
-1.65464229452961

> <r_i_glide_evdw>
-39.565258026123

> <r_i_glide_ecoul>
-6.03381299972534

> <r_i_glide_erotb>
0.731676447662834

> <r_i_glide_esite>
0

> <r_i_glide_emodel>
-58.9905018745872

> <r_i_glide_energy>
-45.5990710258484

> <r_i_glide_einternal>
8.20611190795898

> <i_i_glide_confnum>
11

> <i_i_glide_posenum>
194

> <r_i_glide_eff_state_penalty>
0

> <s_user_duplicate_titles>
CHEMBL206_lig159

> <i_f3d_flags>
0

> <s_m_subgroup_title>
dock_pv

> <s_m_subgroupid>
dock_pv

> <b_m_subgroup_collapsed>
1

$$$$
CHEMBL206_lig185
                    3D
 Schrodinger Suite 2021-1.
 32 34  0  0  1  0            999 V2000
   29.9410    1.2881   27.7366 S   0  0  0  0  0  0
   30.1058   -1.9656   28.7032 O   0  0  0  0  0  0
   32.1783   -1.8246   25.9123 O   0  0  0  0  0  0
   29.9762   -1.3420   25.9429 N   0  0  0  0  0  0
   31.2246    0.1972   28.4834 C   0  0  1  0  0  0
   31.1920   -1.2975   28.0726 C   0  0  2  0  0  0
   28.5888    0.2664   27.2208 C   0  0  0  0  0  0
   28.7384   -0.9048   26.4368 C   0  0  0  0  0  0
   31.1681   -1.5214   26.5423 C   0  0  0  0  0  0
   32.6198    0.7925   28.2808 C   0  0  0  0  0  0
   27.3086    0.6961   27.5686 C   0  0  0  0  0  0
   27.5954   -1.6588   26.1587 C   0  0  0  0  0  0
   33.5840    0.6723   29.2874 C   0  0  0  0  0  0
   32.9575    1.4086   27.0710 C   0  0  0  0  0  0
   26.1935   -0.0710   27.2581 C   0  0  0  0  0  0
   26.3370   -1.2455   26.5637 C   0  0  0  0  0  0
   34.8594    1.1954   29.0908 C   0  0  0  0  0  0
   34.2170    1.9533   26.8859 C   0  0  0  0  0  0
   35.1637    1.8459   27.8965 C   0  0  0  0  0  0
   29.2957   -1.7277   28.2423 H   0  0  0  0  0  0
   30.0248   -1.4818   24.9453 H   0  0  0  0  0  0
   31.0281    0.2465   29.5563 H   0  0  0  0  0  0
   32.0871   -1.7885   28.4590 H   0  0  0  0  0  0
   27.1738    1.6268   28.1010 H   0  0  0  0  0  0
   27.6599   -2.5421   25.5519 H   0  0  0  0  0  0
   33.3516    0.1724   30.2165 H   0  0  0  0  0  0
   32.2463    1.4592   26.2641 H   0  0  0  0  0  0
   25.1908    0.2581   27.4639 H   0  0  0  0  0  0
   25.4358   -1.7420   26.2645 H   0  0  0  0  0  0
   35.6116    1.1059   29.8613 H   0  0  0  0  0  0
   34.4606    2.4376   25.9524 H   0  0  0  0  0  0
   36.1490    2.2579   27.7451 H   0  0  0  0  0  0
  1  5  1  0  0  0
  1  7  1  0  0  0
  2  6  1  0  0  0
  2 20  1  0  0  0
  3  9  2  0  0  0
  4  8  1  0  0  0
  4  9  1  0  0  0
  4 21  1  0  0  0
  5  6  1  0  0  0
  5 10  1  0  0  0
  5 22  1  0  0  0
  6  9  1  0  0  0
  6 23  1  0  0  0
  7  8  1  0  0  0
  7 11  2  0  0  0
  8 12  2  0  0  0
 10 13  2  0  0  0
 10 14  1  0  0  0
 11 15  1  0  0  0
 11 24  1  0  0  0
 12 16  1  0  0  0
 12 25  1  0  0  0
 13 17  1  0  0  0
 13 26  1  0  0  0
 14 18  2  0  0  0
 14 27  1  0  0  0
 15 16  2  0  0  0
 15 28  1  0  0  0
 16 29  1  0  0  0
 17 19  2  0  0  0
 17 30  1  0  0  0
 18 19  1  0  0  0
 18 31  1  0  0  0
 19 32  1  0  0  0
M  END
> <s_m_entry_id>
16870

> <s_m_entry_name>
dock_pv.36

> <s_m_Source_Path>
/home/csk/Desktop/cluster/DUD-E-result/esr1

> <s_m_Source_File>
dock_pv.maegz

> <i_m_Source_File_Index>
36

> <chembl_id>
CHEMBL1506716

> <chembl_pref_name>
None

> <i_lp_mmshare_version>
53161

> <r_lp_tautomer_probability>
1

> <s_lp_Force_Field>
OPLS_2005

> <r_lp_Energy>
31.315957

> <b_lp_Chiralities_Consistent>
1

> <s_lp_Variant>
CHEMBL206_lig185-2

> <s_i_glide_gridfile>
glide-grid_1sj0

> <i_i_glide_lignum>
245

> <i_i_glide_rotatable_bonds>
2

> <r_i_docking_score>
-7.81072451700783

> <r_i_glide_ligand_efficiency>
-0.411090764053044

> <r_i_glide_ligand_efficiency_sa>
-1.09695527149687

> <r_i_glide_ligand_efficiency_ln>
-1.98018642404209

> <r_i_glide_gscore>
-7.81072451700783

> <r_i_glide_lipo>
-3.32534415302414

> <r_i_glide_hbond>
0

> <r_i_glide_metal>
0

> <r_i_glide_rewards>
-2.76172607116668

> <r_i_glide_evdw>
-32.0969734191895

> <r_i_glide_ecoul>
-2.41311025619507

> <r_i_glide_erotb>
0.243160916571722

> <r_i_glide_esite>
0

> <r_i_glide_emodel>
-48.8159035495554

> <r_i_glide_energy>
-34.5100836753845

> <r_i_glide_einternal>
1.00741815567017

> <i_i_glide_confnum>
2

> <i_i_glide_posenum>
354

> <r_i_glide_eff_state_penalty>
0

> <s_user_duplicate_titles>
CHEMBL206_lig185

> <i_f3d_flags>
0

> <s_m_subgroup_title>
dock_pv

> <s_m_subgroupid>
dock_pv

> <b_m_subgroup_collapsed>
1

$$$$
CHEMBL206_lig21
                    3D
 Schrodinger Suite 2021-1.
 29 31  0  0  1  0            999 V2000
   31.6343    1.4576   31.1067 O   0  0  0  0  0  0
   31.6554    0.8350   29.8890 C   0  0  0  0  0  0
   30.5094    0.7956   29.1004 C   0  0  0  0  0  0
   30.5324    0.1257   27.8790 C   0  0  0  0  0  0
   31.7011   -0.5044   27.4210 C   0  0  0  0  0  0
   32.8546   -0.4115   28.2206 C   0  0  0  0  0  0
   32.8312    0.2408   29.4491 C   0  0  0  0  0  0
   31.7302   -1.1989   26.0905 C   0  0  0  0  0  0
   30.9134   -0.8174   25.0806 C   0  0  0  0  0  0
   30.8618   -1.3505   23.8355 O   0  0  0  0  0  0
   31.7880   -2.3181   23.4997 C   0  0  0  0  0  0
   31.7792   -2.8195   22.1918 C   0  0  0  0  0  0
   32.7687   -3.7019   21.7811 C   0  0  0  0  0  0
   32.8592   -4.1419   20.4895 O   0  0  0  0  0  0
   33.7055   -4.1418   22.6925 C   0  0  0  0  0  0
   33.6577   -3.7352   24.0233 C   0  0  0  0  0  0
   32.6979   -2.8088   24.4427 C   0  0  0  0  0  0
   32.6079   -2.3714   25.8679 C   0  0  0  0  0  0
   33.2560   -2.9496   26.7394 O   0  0  0  0  0  0
   30.7829    1.8492   31.3102 H   0  0  0  0  0  0
   29.5962    1.2642   29.4358 H   0  0  0  0  0  0
   29.6213    0.0864   27.3020 H   0  0  0  0  0  0
   33.7919   -0.8418   27.9002 H   0  0  0  0  0  0
   33.7230    0.2853   30.0575 H   0  0  0  0  0  0
   30.2133    0.0018   25.1506 H   0  0  0  0  0  0
   31.0263   -2.5353   21.4790 H   0  0  0  0  0  0
   32.1720   -4.7934   20.2639 H   0  0  0  0  0  0
   34.4652   -4.8257   22.3485 H   0  0  0  0  0  0
   34.3773   -4.1415   24.7209 H   0  0  0  0  0  0
  1  2  1  0  0  0
  1 20  1  0  0  0
  2  3  2  0  0  0
  2  7  1  0  0  0
  3  4  1  0  0  0
  3 21  1  0  0  0
  4  5  2  0  0  0
  4 22  1  0  0  0
  5  6  1  0  0  0
  5  8  1  0  0  0
  6  7  2  0  0  0
  6 23  1  0  0  0
  7 24  1  0  0  0
  8  9  2  0  0  0
  8 18  1  0  0  0
  9 10  1  0  0  0
  9 25  1  0  0  0
 10 11  1  0  0  0
 11 12  2  0  0  0
 11 17  1  0  0  0
 12 13  1  0  0  0
 12 26  1  0  0  0
 13 14  1  0  0  0
 13 15  2  0  0  0
 14 27  1  0  0  0
 15 16  1  0  0  0
 15 28  1  0  0  0
 16 17  2  0  0  0
 16 29  1  0  0  0
 17 18  1  0  0  0
 18 19  2  0  0  0
M  END
> <s_m_entry_id>
16871

> <s_m_entry_name>
dock_pv.37

> <s_m_Source_Path>
/home/csk/Desktop/cluster/DUD-E-result/esr1

> <s_m_Source_File>
dock_pv.maegz

> <i_m_Source_File_Index>
37

> <chembl_id>
CHEMBL8145

> <chembl_pref_name>
DAIDZEIN

> <i_lp_mmshare_version>
53161

> <r_lp_tautomer_probability>
0.999999999997365

> <s_lp_Force_Field>
OPLS_2005

> <r_lp_Energy>
15.203271

> <b_lp_Chiralities_Consistent>
1

> <s_lp_Variant>
CHEMBL206_lig21-1

> <s_i_glide_gridfile>
glide-grid_1sj0

> <i_i_glide_lignum>
28

> <i_i_glide_rotatable_bonds>
3

> <r_i_docking_score>
-7.80480685971651

> <r_i_glide_ligand_efficiency>
-0.410779308406132

> <r_i_glide_ligand_efficiency_sa>
-1.09612418273596

> <r_i_glide_ligand_efficiency_ln>
-1.97868617081912

> <r_i_glide_gscore>
-7.80480685971651

> <r_i_glide_lipo>
-3.32839062349098

> <r_i_glide_hbond>
-0.16

> <r_i_glide_metal>
0

> <r_i_glide_rewards>
-2.30973059582562

> <r_i_glide_evdw>
-27.9849834442139

> <r_i_glide_ecoul>
-5.86317300796509

> <r_i_glide_erotb>
0.272039483005549

> <r_i_glide_esite>
0

> <r_i_glide_emodel>
-45.6880817780992

> <r_i_glide_energy>
-33.848156452179

> <r_i_glide_einternal>
5.70864486694336

> <i_i_glide_confnum>
1

> <i_i_glide_posenum>
164

> <r_i_glide_eff_state_penalty>
0

> <s_user_duplicate_titles>
CHEMBL206_lig21,3281

> <i_f3d_flags>
0

> <s_m_subgroup_title>
dock_pv

> <s_m_subgroupid>
dock_pv

> <b_m_subgroup_collapsed>
1

$$$$
CHEMBL206_lig250
                    3D
 Schrodinger Suite 2021-1.
 41 44  0  0  1  0            999 V2000
   34.2031    1.0580   29.1490 C   0  0  0  0  0  0
   34.6435    1.3869   27.8717 C   0  0  0  0  0  0
   33.7238    1.5045   26.8390 C   0  0  0  0  0  0
   32.3755    1.2831   27.0890 C   0  0  0  0  0  0
   31.8971    0.9719   28.3690 C   0  0  0  0  0  0
   32.8379    0.8604   29.4167 C   0  0  0  0  0  0
   32.4388    0.6398   30.8436 C   0  0  0  0  0  0
   31.6468   -0.4448   31.0601 O   0  0  0  0  0  0
   32.8588    1.3677   31.7366 O   0  0  0  0  0  0
   30.5034    0.7923   28.5522 N   0  0  0  0  0  0
   29.7747   -0.7678   28.0972 S   0  0  0  0  0  0
   29.6855    1.9409   28.1879 C   0  0  0  0  0  0
   30.4489   -1.1382   26.4783 C   0  0  0  0  0  0
   30.2758   -1.7434   29.0642 O   0  0  0  0  0  0
   28.3292   -0.5663   27.9392 O   0  0  0  0  0  0
   29.8929   -0.4981   25.3655 C   0  0  0  0  0  0
   30.4182   -0.7105   24.0863 C   0  0  0  0  0  0
   31.5610   -2.0046   26.2679 C   0  0  0  0  0  0
   33.6453   -3.7420   25.4633 C   0  0  0  0  0  0
   33.2597   -3.6350   26.8110 C   0  0  0  0  0  0
   32.3292   -2.6902   27.2245 C   0  0  0  0  0  0
   31.9561   -2.2202   24.9345 C   0  0  0  0  0  0
   31.4200   -1.6277   23.8540 C   0  0  0  0  0  0
   32.0599   -2.1261   22.7138 N   0  0  0  0  0  0
   33.0621   -2.9633   23.0326 C   0  0  0  0  0  0
   32.9607   -3.0330   24.5154 C   0  0  0  0  0  0
   33.8452   -3.5234   22.2710 O   0  0  0  0  0  0
   34.9416    0.9885   29.9354 H   0  0  0  0  0  0
   35.6964    1.5479   27.6849 H   0  0  0  0  0  0
   34.0584    1.7498   25.8421 H   0  0  0  0  0  0
   31.6923    1.3402   26.2650 H   0  0  0  0  0  0
   31.3667   -0.8767   30.2450 H   0  0  0  0  0  0
   30.0599    2.8428   28.6646 H   0  0  0  0  0  0
   29.6641    2.1010   27.1099 H   0  0  0  0  0  0
   28.6584    1.8139   28.5310 H   0  0  0  0  0  0
   29.0800    0.2030   25.4915 H   0  0  0  0  0  0
   30.0601   -0.1421   23.2651 H   0  0  0  0  0  0
   34.4551   -4.3592   25.1326 H   0  0  0  0  0  0
   33.7095   -4.2439   27.5772 H   0  0  0  0  0  0
   32.1914   -2.5420   28.2776 H   0  0  0  0  0  0
   31.8246   -1.8970   21.7606 H   0  0  0  0  0  0
  1  2  2  0  0  0
  1  6  1  0  0  0
  1 28  1  0  0  0
  2  3  1  0  0  0
  2 29  1  0  0  0
  3  4  2  0  0  0
  3 30  1  0  0  0
  4  5  1  0  0  0
  4 31  1  0  0  0
  5 10  1  0  0  0
  5  6  2  0  0  0
  6  7  1  0  0  0
  7  8  1  0  0  0
  7  9  2  0  0  0
  8 32  1  0  0  0
 10 11  1  0  0  0
 10 12  1  0  0  0
 11 14  2  0  0  0
 11 15  2  0  0  0
 11 13  1  0  0  0
 12 33  1  0  0  0
 12 34  1  0  0  0
 12 35  1  0  0  0
 13 16  2  0  0  0
 13 18  1  0  0  0
 16 17  1  0  0  0
 16 36  1  0  0  0
 17 23  2  0  0  0
 17 37  1  0  0  0
 18 22  1  0  0  0
 18 21  2  0  0  0
 19 26  1  0  0  0
 19 20  2  0  0  0
 19 38  1  0  0  0
 20 21  1  0  0  0
 20 39  1  0  0  0
 21 40  1  0  0  0
 22 23  1  0  0  0
 22 26  2  0  0  0
 23 24  1  0  0  0
 24 25  1  0  0  0
 24 41  1  0  0  0
 25 26  1  0  0  0
 25 27  2  0  0  0
M  END
> <s_m_entry_id>
16872

> <s_m_entry_name>
dock_pv.38

> <s_m_Source_Path>
/home/csk/Desktop/cluster/DUD-E-result/esr1

> <s_m_Source_File>
dock_pv.maegz

> <i_m_Source_File_Index>
38

> <chembl_id>
CHEMBL522990

> <chembl_pref_name>
None

> <i_lp_mmshare_version>
53161

> <r_lp_tautomer_probability>
1

> <s_lp_Force_Field>
OPLS_2005

> <r_lp_Energy>
62.555877

> <b_lp_Chiralities_Consistent>
1

> <s_lp_Variant>
CHEMBL206_lig250-1

> <s_i_glide_gridfile>
glide-grid_1sj0

> <i_i_glide_lignum>
323

> <i_i_glide_rotatable_bonds>
5

> <r_i_docking_score>
-7.78436218706699

> <r_i_glide_ligand_efficiency>
-0.288309710632111

> <r_i_glide_ligand_efficiency_sa>
-0.86492913094611

> <r_i_glide_ligand_efficiency_ln>
-1.8120711819086

> <r_i_glide_gscore>
-7.78436218706699

> <r_i_glide_lipo>
-4.46698270415955

> <r_i_glide_hbond>
0

> <r_i_glide_metal>
0

> <r_i_glide_rewards>
-2.4887541338908

> <r_i_glide_evdw>
-25.7450180053711

> <r_i_glide_ecoul>
-0.484330654144287

> <r_i_glide_erotb>
0.531275149373561

> <r_i_glide_esite>
0

> <r_i_glide_emodel>
-25.8191153725925

> <r_i_glide_energy>
-26.2293486595154

> <r_i_glide_einternal>
7.48250961303711

> <i_i_glide_confnum>
16

> <i_i_glide_posenum>
346

> <r_i_glide_eff_state_penalty>
0

> <s_user_duplicate_titles>
CHEMBL206_lig250

> <i_f3d_flags>
0

> <s_m_subgroup_title>
dock_pv

> <s_m_subgroupid>
dock_pv

> <b_m_subgroup_collapsed>
1

$$$$
CHEMBL206_lig120
                    3D
 Schrodinger Suite 2021-1.
 41 44  0  0  1  0            999 V2000
   33.6600   -3.3419   23.9781 S   0  0  0  0  0  0
   31.8255   -1.2965   27.7456 O   0  0  0  0  0  0
   31.2656    0.2253   29.8773 O   0  0  0  0  0  0
   33.1117   -2.8989   26.9772 O   0  0  0  0  0  0
   34.2951   -2.5900   18.7664 O   0  0  0  0  0  0
   31.6495   -2.2221   22.9352 N   0  0  0  0  0  0
   32.2620   -2.8933   21.8965 N   0  0  0  0  0  0
   34.2317   -4.1439   21.4548 N   0  0  0  0  0  0
   31.6558   -1.7914   25.3459 C   0  0  0  0  0  0
   30.7918   -0.3774   27.6329 C   0  0  0  0  0  0
   30.0947   -0.2095   26.4354 C   0  0  0  0  0  0
   32.2044   -2.3867   24.1088 C   0  0  0  0  0  0
   32.2647   -2.0611   26.6796 C   0  0  0  0  0  0
   30.6005   -0.9415   25.2800 C   0  0  0  0  0  0
   30.4846    0.3998   28.7517 C   0  0  0  0  0  0
   33.3638   -3.4731   22.2731 C   0  0  0  0  0  0
   29.0177    0.6741   26.3665 C   0  0  0  0  0  0
   29.4179    1.3113   28.6645 C   0  0  0  0  0  0
   28.6770    1.4312   27.4867 C   0  0  0  0  0  0
   33.9597   -4.6153   20.0982 C   0  0  0  0  0  0
   33.4271   -3.5605   19.1565 C   0  0  0  0  0  0
   31.3881    1.2886   30.8090 C   0  0  0  0  0  0
   32.1810   -3.3240   18.5957 C   0  0  0  0  0  0
   33.6068   -1.7418   17.9624 C   0  0  0  0  0  0
   32.2857   -2.1429   17.8637 C   0  0  0  0  0  0
   32.7983    1.2224   31.3971 C   0  0  0  0  0  0
   34.9908   -4.6699   21.8645 H   0  0  0  0  0  0
   30.1477   -0.7268   24.3224 H   0  0  0  0  0  0
   28.4626    0.7979   25.4480 H   0  0  0  0  0  0
   29.1430    1.9159   29.5146 H   0  0  0  0  0  0
   27.8477    2.1218   27.4372 H   0  0  0  0  0  0
   34.8726   -5.0387   19.6867 H   0  0  0  0  0  0
   33.2604   -5.4485   20.1698 H   0  0  0  0  0  0
   30.6292    1.1949   31.5861 H   0  0  0  0  0  0
   31.2665    2.2583   30.3303 H   0  0  0  0  0  0
   31.2955   -3.9276   18.7400 H   0  0  0  0  0  0
   34.1619   -0.9030   17.5685 H   0  0  0  0  0  0
   31.4968   -1.6467   17.3167 H   0  0  0  0  0  0
   32.9438    2.0019   32.1418 H   0  0  0  0  0  0
   33.5505    1.3641   30.6204 H   0  0  0  0  0  0
   32.9901    0.2567   31.8626 H   0  0  0  0  0  0
  1 12  1  0  0  0
  1 16  1  0  0  0
  2 10  1  0  0  0
  2 13  1  0  0  0
  3 15  1  0  0  0
  3 22  1  0  0  0
  4 13  2  0  0  0
  5 21  1  0  0  0
  5 24  1  0  0  0
  6  7  1  0  0  0
  6 12  2  0  0  0
  7 16  2  0  0  0
  8 16  1  0  0  0
  8 20  1  0  0  0
  8 27  1  0  0  0
  9 12  1  0  0  0
  9 13  1  0  0  0
  9 14  2  0  0  0
 10 11  2  0  0  0
 10 15  1  0  0  0
 11 14  1  0  0  0
 11 17  1  0  0  0
 14 28  1  0  0  0
 15 18  2  0  0  0
 17 19  2  0  0  0
 17 29  1  0  0  0
 18 19  1  0  0  0
 18 30  1  0  0  0
 19 31  1  0  0  0
 20 21  1  0  0  0
 20 32  1  0  0  0
 20 33  1  0  0  0
 21 23  2  0  0  0
 22 26  1  0  0  0
 22 34  1  0  0  0
 22 35  1  0  0  0
 23 25  1  0  0  0
 23 36  1  0  0  0
 24 25  2  0  0  0
 24 37  1  0  0  0
 25 38  1  0  0  0
 26 39  1  0  0  0
 26 40  1  0  0  0
 26 41  1  0  0  0
M  END
> <s_m_entry_id>
16873

> <s_m_entry_name>
dock_pv.39

> <s_m_Source_Path>
/home/csk/Desktop/cluster/DUD-E-result/esr1

> <s_m_Source_File>
dock_pv.maegz

> <i_m_Source_File_Index>
39

> <chembl_id>
CHEMBL1580543

> <chembl_pref_name>
None

> <i_lp_mmshare_version>
53161

> <r_lp_tautomer_probability>
1

> <s_lp_Force_Field>
OPLS_2005

> <r_lp_Energy>
11.855322

> <b_lp_Chiralities_Consistent>
1

> <s_lp_Variant>
CHEMBL206_lig120-1

> <s_i_glide_gridfile>
glide-grid_1sj0

> <i_i_glide_lignum>
143

> <i_i_glide_rotatable_bonds>
6

> <r_i_docking_score>
-7.74750553982355

> <r_i_glide_ligand_efficiency>
-0.297980982300906

> <r_i_glide_ligand_efficiency_sa>
-0.882767487567886

> <r_i_glide_ligand_efficiency_ln>
-1.8194762543884

> <r_i_glide_gscore>
-7.74750553982355

> <r_i_glide_lipo>
-4.3036623715485

> <r_i_glide_hbond>
-0.177753849476432

> <r_i_glide_metal>
0

> <r_i_glide_rewards>
-1.46747733524982

> <r_i_glide_evdw>
-45.0981483459473

> <r_i_glide_ecoul>
-1.50299286842346

> <r_i_glide_erotb>
0.706489605439603

> <r_i_glide_esite>
-0.0247452414275171

> <r_i_glide_emodel>
-64.0830112514905

> <r_i_glide_energy>
-46.6011412143707

> <r_i_glide_einternal>
4.52955007553101

> <i_i_glide_confnum>
1

> <i_i_glide_posenum>
8

> <r_i_glide_eff_state_penalty>
0

> <s_user_duplicate_titles>
CHEMBL206_lig120

> <i_f3d_flags>
0

> <s_m_subgroup_title>
dock_pv

> <s_m_subgroupid>
dock_pv

> <b_m_subgroup_collapsed>
1

$$$$
CHEMBL206_lig25
                    3D
 Schrodinger Suite 2021-1.
 45 47  0  0  1  0            999 V2000
   32.0617   -2.1454   22.8567 C   0  0  0  0  0  0
   32.9861   -3.1773   22.8964 C   0  0  0  0  0  0
   33.3389   -3.7420   24.1120 C   0  0  0  0  0  0
   32.7396   -3.2949   25.2859 C   0  0  0  0  0  0
   31.8473   -2.2147   25.2621 C   0  0  0  0  0  0
   31.5024   -1.6507   24.0309 C   0  0  0  0  0  0
   33.5376   -3.6363   21.7313 O   0  0  0  0  0  0
   31.3278   -1.6245   26.5220 C   0  0  0  0  0  0
   32.1375   -1.1834   27.5255 C   0  0  0  0  0  0
   31.6567   -0.5069   28.7336 C   0  0  0  0  0  0
   33.6601   -1.2836   27.5488 C   0  0  0  0  0  0
   34.4304    0.0304   27.8640 C   0  0  0  0  0  0
   29.8571   -1.5758   26.6957 C   0  0  0  0  0  0
   29.2359   -2.5632   27.4656 C   0  0  0  0  0  0
   27.8960   -2.4472   27.8183 C   0  0  0  0  0  0
   27.1879   -1.3115   27.4424 C   0  0  0  0  0  0
   27.7945   -0.3324   26.6639 C   0  0  0  0  0  0
   29.1094   -0.4893   26.2376 C   0  0  0  0  0  0
   30.8051    0.6019   28.7048 C   0  0  0  0  0  0
   30.5053    1.2632   29.8850 C   0  0  0  0  0  0
   31.1529    0.8768   31.0578 C   0  0  0  0  0  0
   32.0610   -0.1620   31.0549 C   0  0  0  0  0  0
   32.2263   -0.9137   29.9304 C   0  0  0  0  0  0
   30.8602    1.4580   32.2466 O   0  0  0  0  0  0
   25.8958   -1.1400   27.8550 O   0  0  0  0  0  0
   31.7780   -1.7428   21.9022 H   0  0  0  0  0  0
   34.0589   -4.5421   24.1506 H   0  0  0  0  0  0
   33.0068   -3.7634   26.2220 H   0  0  0  0  0  0
   30.8078   -0.8259   23.9743 H   0  0  0  0  0  0
   33.9896   -4.4787   21.8175 H   0  0  0  0  0  0
   33.9495   -2.0215   28.2931 H   0  0  0  0  0  0
   34.0273   -1.7545   26.6638 H   0  0  0  0  0  0
   35.5083   -0.1354   27.8643 H   0  0  0  0  0  0
   34.2142    0.7978   27.1184 H   0  0  0  0  0  0
   34.1933    0.4506   28.8400 H   0  0  0  0  0  0
   29.8002   -3.4053   27.8326 H   0  0  0  0  0  0
   27.4237   -3.2139   28.4136 H   0  0  0  0  0  0
   27.2622    0.5635   26.3991 H   0  0  0  0  0  0
   29.5757    0.2901   25.6536 H   0  0  0  0  0  0
   30.3991    0.9805   27.7825 H   0  0  0  0  0  0
   29.7889    2.0671   29.8692 H   0  0  0  0  0  0
   32.6892   -0.4400   31.8640 H   0  0  0  0  0  0
   32.9132   -1.7409   29.9929 H   0  0  0  0  0  0
   31.3206    1.0597   32.9880 H   0  0  0  0  0  0
   25.4939   -0.3698   27.4481 H   0  0  0  0  0  0
  1  6  1  0  0  0
  1  2  2  0  0  0
  1 26  1  0  0  0
  2  7  1  0  0  0
  2  3  1  0  0  0
  3  4  2  0  0  0
  3 27  1  0  0  0
  4  5  1  0  0  0
  4 28  1  0  0  0
  5  8  1  0  0  0
  5  6  2  0  0  0
  6 29  1  0  0  0
  7 30  1  0  0  0
  8 13  1  0  0  0
  8  9  2  0  0  0
  9 10  1  0  0  0
  9 11  1  0  0  0
 10 19  2  0  0  0
 10 23  1  0  0  0
 11 12  1  0  0  0
 11 31  1  0  0  0
 11 32  1  0  0  0
 12 33  1  0  0  0
 12 34  1  0  0  0
 12 35  1  0  0  0
 13 14  2  0  0  0
 13 18  1  0  0  0
 14 15  1  0  0  0
 14 36  1  0  0  0
 15 16  2  0  0  0
 15 37  1  0  0  0
 16 17  1  0  0  0
 16 25  1  0  0  0
 17 18  2  0  0  0
 17 38  1  0  0  0
 18 39  1  0  0  0
 19 20  1  0  0  0
 19 40  1  0  0  0
 20 21  2  0  0  0
 20 41  1  0  0  0
 21 22  1  0  0  0
 21 24  1  0  0  0
 22 23  2  0  0  0
 22 42  1  0  0  0
 23 43  1  0  0  0
 24 44  1  0  0  0
 25 45  1  0  0  0
M  END
> <s_m_entry_id>
16874

> <s_m_entry_name>
dock_pv.40

> <s_m_Source_Path>
/home/csk/Desktop/cluster/DUD-E-result/esr1

> <s_m_Source_File>
dock_pv.maegz

> <i_m_Source_File_Index>
40

> <chembl_id>
CHEMBL37775

> <chembl_pref_name>
None

> <i_lp_mmshare_version>
53161

> <r_lp_tautomer_probability>
1

> <s_lp_Force_Field>
OPLS_2005

> <r_lp_Energy>
26.8336

> <b_lp_Chiralities_Consistent>
1

> <s_lp_Variant>
CHEMBL206_lig25-1

> <s_i_glide_gridfile>
glide-grid_1sj0

> <i_i_glide_lignum>
33

> <i_i_glide_rotatable_bonds>
7

> <r_i_docking_score>
-7.71386442795467

> <r_i_glide_ligand_efficiency>
-0.308554577118187

> <r_i_glide_ligand_efficiency_sa>
-0.902219055732304

> <r_i_glide_ligand_efficiency_ln>
-1.82841703528822

> <r_i_glide_gscore>
-7.71386442795467

> <r_i_glide_lipo>
-5.22922602012881

> <r_i_glide_hbond>
0

> <r_i_glide_metal>
0

> <r_i_glide_rewards>
-2.01856520758862

> <r_i_glide_evdw>
-22.1438808441162

> <r_i_glide_ecoul>
-0.2716124355793

> <r_i_glide_erotb>
0.681862707305463

> <r_i_glide_esite>
0

> <r_i_glide_emodel>
-16.3476579263406

> <r_i_glide_energy>
-22.4154932796955

> <r_i_glide_einternal>
12.985182762146

> <i_i_glide_confnum>
28

> <i_i_glide_posenum>
389

> <r_i_glide_eff_state_penalty>
0

> <s_user_duplicate_titles>
CHEMBL206_lig25,52386

> <i_f3d_flags>
0

> <s_m_subgroup_title>
dock_pv

> <s_m_subgroupid>
dock_pv

> <b_m_subgroup_collapsed>
1

$$$$
CHEMBL206_lig200
                    3D
 Schrodinger Suite 2021-1.
 38 40  0  0  1  0            999 V2000
   32.9157   -2.9415   27.5409 O   0  0  0  0  0  0
   30.4595   -1.6521   28.3390 O   0  0  0  0  0  0
   28.6753   -3.6515   28.2640 O   0  0  0  0  0  0
   32.9294   -3.5107   26.2624 N   0  0  0  0  0  0
   26.8640   -3.3319   27.0683 N   0  0  0  0  0  0
   32.6101   -2.6626   25.3802 C   0  0  0  0  0  0
   32.7105   -1.5507   27.4346 C   0  0  1  0  0  0
   29.4228   -0.8007   28.0028 C   0  0  0  0  0  0
   28.1510   -1.3582   27.7206 C   0  0  0  0  0  0
   32.6420   -2.9391   23.9407 C   0  0  0  0  0  0
   32.2288   -1.3466   25.9933 C   0  0  0  0  0  0
   31.7790   -1.1755   28.5948 C   0  0  0  0  0  0
   27.9299   -2.8605   27.7046 C   0  0  0  0  0  0
   29.5894    0.5943   27.9314 C   0  0  0  0  0  0
   27.0758   -0.4894   27.4639 C   0  0  0  0  0  0
   33.6602   -3.7486   23.4463 C   0  0  0  0  0  0
   31.6600   -2.4836   23.0649 C   0  0  0  0  0  0
   28.5191    1.4266   27.6613 C   0  0  0  0  0  0
   27.2629    0.8882   27.4507 C   0  0  0  0  0  0
   33.6866   -4.1417   22.1106 C   0  0  0  0  0  0
   31.6393   -2.9413   21.7450 C   0  0  0  0  0  0
   32.6632   -3.7429   21.2651 C   0  0  0  0  0  0
   26.2424   -2.7623   26.5107 H   0  0  0  0  0  0
   26.7100   -4.3272   27.0641 H   0  0  0  0  0  0
   33.6787   -1.0715   27.5779 H   0  0  0  0  0  0
   31.1543   -1.1897   25.9056 H   0  0  0  0  0  0
   32.7543   -0.5166   25.5205 H   0  0  0  0  0  0
   31.8844   -0.1298   28.8667 H   0  0  0  0  0  0
   32.1226   -1.6964   29.4882 H   0  0  0  0  0  0
   30.5327    1.0888   28.0801 H   0  0  0  0  0  0
   26.0809   -0.8636   27.2668 H   0  0  0  0  0  0
   34.4227   -4.1052   24.1222 H   0  0  0  0  0  0
   30.8600   -1.8492   23.4201 H   0  0  0  0  0  0
   28.6716    2.4902   27.6220 H   0  0  0  0  0  0
   26.4498    1.5565   27.2453 H   0  0  0  0  0  0
   34.4665   -4.7889   21.7404 H   0  0  0  0  0  0
   30.8383   -2.6517   21.0809 H   0  0  0  0  0  0
   32.6450   -4.0855   20.2401 H   0  0  0  0  0  0
  1  4  1  0  0  0
  1  7  1  0  0  0
  2  8  1  0  0  0
  2 12  1  0  0  0
  3 13  2  0  0  0
  4  6  2  0  0  0
  5 13  1  0  0  0
  5 23  1  0  0  0
  5 24  1  0  0  0
  6 10  1  0  0  0
  6 11  1  0  0  0
  7 11  1  0  0  0
  7 12  1  0  0  0
  7 25  1  0  0  0
  8  9  1  0  0  0
  8 14  2  0  0  0
  9 13  1  0  0  0
  9 15  2  0  0  0
 10 16  2  0  0  0
 10 17  1  0  0  0
 11 26  1  0  0  0
 11 27  1  0  0  0
 12 28  1  0  0  0
 12 29  1  0  0  0
 14 18  1  0  0  0
 14 30  1  0  0  0
 15 19  1  0  0  0
 15 31  1  0  0  0
 16 20  1  0  0  0
 16 32  1  0  0  0
 17 21  2  0  0  0
 17 33  1  0  0  0
 18 19  2  0  0  0
 18 34  1  0  0  0
 19 35  1  0  0  0
 20 22  2  0  0  0
 20 36  1  0  0  0
 21 22  1  0  0  0
 21 37  1  0  0  0
 22 38  1  0  0  0
M  END
> <s_m_entry_id>
16875

> <s_m_entry_name>
dock_pv.41

> <s_m_Source_Path>
/home/csk/Desktop/cluster/DUD-E-result/esr1

> <s_m_Source_File>
dock_pv.maegz

> <i_m_Source_File_Index>
41

> <chembl_id>
CHEMBL1326483

> <chembl_pref_name>
None

> <i_lp_mmshare_version>
53161

> <r_lp_tautomer_probability>
1

> <s_lp_Force_Field>
OPLS_2005

> <r_lp_Energy>
28.025747

> <b_lp_Chiralities_Consistent>
1

> <s_lp_Variant>
CHEMBL206_lig200-2

> <s_i_glide_gridfile>
glide-grid_1sj0

> <i_i_glide_lignum>
266

> <i_i_glide_rotatable_bonds>
5

> <r_i_docking_score>
-7.69673021563104

> <r_i_glide_ligand_efficiency>
-0.349851373437774

> <r_i_glide_ligand_efficiency_sa>
-0.980297307246402

> <r_i_glide_ligand_efficiency_ln>
-1.88136160975617

> <r_i_glide_gscore>
-7.69673021563104

> <r_i_glide_lipo>
-3.32073595445812

> <r_i_glide_hbond>
-0.0564157995561372

> <r_i_glide_metal>
0

> <r_i_glide_rewards>
-2.69046990132453

> <r_i_glide_evdw>
-36.8170509338379

> <r_i_glide_ecoul>
-3.59260392189026

> <r_i_glide_erotb>
0.83448346992636

> <r_i_glide_esite>
-0.0838488952431677

> <r_i_glide_emodel>
-55.3248359376229

> <r_i_glide_energy>
-40.4096548557281

> <r_i_glide_einternal>
3.59233999252319

> <i_i_glide_confnum>
35

> <i_i_glide_posenum>
179

> <r_i_glide_eff_state_penalty>
0

> <s_user_duplicate_titles>
CHEMBL206_lig200

> <i_f3d_flags>
0

> <s_m_subgroup_title>
dock_pv

> <s_m_subgroupid>
dock_pv

> <b_m_subgroup_collapsed>
1

$$$$
CHEMBL206_lig308
                    3D
 Schrodinger Suite 2021-1.
 42 45  0  0  1  0            999 V2000
   31.6603   -1.9722   24.1743 S   0  0  0  0  0  0
   35.0000   -5.7715   13.9628 F   0  0  0  0  0  0
   36.6132   -2.4390   21.0639 O   0  0  0  0  0  0
   31.0909   -1.5733   26.9239 N   0  0  0  0  0  0
   31.6575   -1.7418   28.1235 N   0  0  0  0  0  0
   33.0056   -2.5402   26.4956 N   0  0  0  0  0  0
   32.7821   -3.5649   21.1234 N   0  0  0  0  0  0
   32.8601   -2.3523   27.8629 N   0  0  0  0  0  0
   34.7313   -3.2236   19.8679 N   0  0  0  0  0  0
   32.8598   -4.1599   18.8063 N   0  0  0  0  0  0
   31.9377   -2.0336   25.9283 C   0  0  0  0  0  0
   29.7863   -1.0657   26.8819 C   0  0  0  0  0  0
   33.4176   -3.2631   22.3137 C   0  0  0  0  0  0
   33.5033   -3.5985   19.9342 C   0  0  0  0  0  0
   32.6238   -3.4278   23.5997 C   0  0  0  0  0  0
   35.4560   -2.8391   21.0044 C   0  0  0  0  0  0
   34.7273   -2.9420   22.2643 C   0  0  0  0  0  0
   28.7130   -1.9434   27.0639 C   0  0  0  0  0  0
   29.5786    0.3114   26.7821 C   0  0  0  0  0  0
   33.3971   -4.5074   17.5592 C   0  0  0  0  0  0
   27.4186   -1.4389   27.1420 C   0  0  0  0  0  0
   28.2831    0.8120   26.8789 C   0  0  0  0  0  0
   34.2360   -3.6562   16.8288 C   0  0  0  0  0  0
   33.0954   -5.7756   17.0617 C   0  0  0  0  0  0
   27.2131   -0.0633   27.0643 C   0  0  0  0  0  0
   34.4799   -5.3540   15.1381 C   0  0  0  0  0  0
   34.7709   -4.0772   15.6125 C   0  0  0  0  0  0
   33.6531   -6.2074   15.8638 C   0  0  0  0  0  0
   31.8439   -3.9364   21.1248 H   0  0  0  0  0  0
   32.0721   -4.7473   19.0638 H   0  0  0  0  0  0
   33.3215   -3.7672   24.3623 H   0  0  0  0  0  0
   31.9395   -4.2582   23.4619 H   0  0  0  0  0  0
   35.2702   -2.7330   23.1670 H   0  0  0  0  0  0
   28.8797   -3.0085   27.1518 H   0  0  0  0  0  0
   30.4118    0.9895   26.6630 H   0  0  0  0  0  0
   26.5800   -2.1100   27.2670 H   0  0  0  0  0  0
   28.1046    1.8738   26.8121 H   0  0  0  0  0  0
   34.4765   -2.6733   17.2074 H   0  0  0  0  0  0
   32.4588   -6.4462   17.6235 H   0  0  0  0  0  0
   26.2084    0.3302   27.1302 H   0  0  0  0  0  0
   35.4152   -3.4236   15.0434 H   0  0  0  0  0  0
   33.4345   -7.1963   15.4890 H   0  0  0  0  0  0
  1 11  1  0  0  0
  1 15  1  0  0  0
  2 26  1  0  0  0
  3 16  2  0  0  0
  4  5  1  0  0  0
  4 11  1  0  0  0
  4 12  1  0  0  0
  5  8  2  0  0  0
  6  8  1  0  0  0
  6 11  2  0  0  0
  7 29  1  0  0  0
  7 14  1  0  0  0
  7 13  1  0  0  0
  9 14  2  0  0  0
  9 16  1  0  0  0
 10 14  1  0  0  0
 10 20  1  0  0  0
 10 30  1  0  0  0
 12 18  2  0  0  0
 12 19  1  0  0  0
 13 17  2  0  0  0
 13 15  1  0  0  0
 15 31  1  0  0  0
 15 32  1  0  0  0
 16 17  1  0  0  0
 17 33  1  0  0  0
 18 21  1  0  0  0
 18 34  1  0  0  0
 19 22  2  0  0  0
 19 35  1  0  0  0
 20 23  2  0  0  0
 20 24  1  0  0  0
 21 25  2  0  0  0
 21 36  1  0  0  0
 22 25  1  0  0  0
 22 37  1  0  0  0
 23 27  1  0  0  0
 23 38  1  0  0  0
 24 28  2  0  0  0
 24 39  1  0  0  0
 25 40  1  0  0  0
 26 27  2  0  0  0
 26 28  1  0  0  0
 27 41  1  0  0  0
 28 42  1  0  0  0
M  END
> <s_m_entry_id>
16876

> <s_m_entry_name>
dock_pv.42

> <s_m_Source_Path>
/home/csk/Desktop/cluster/DUD-E-result/esr1

> <s_m_Source_File>
dock_pv.maegz

> <i_m_Source_File_Index>
42

> <chembl_id>
CHEMBL1468795

> <chembl_pref_name>
None

> <i_lp_mmshare_version>
53161

> <r_lp_tautomer_probability>
0.108277240005817

> <s_lp_Force_Field>
OPLS_2005

> <r_lp_Energy>
28.961052

> <b_lp_Chiralities_Consistent>
1

> <s_lp_Variant>
CHEMBL206_lig308-2

> <s_i_glide_gridfile>
glide-grid_1sj0

> <i_i_glide_lignum>
394

> <i_i_glide_rotatable_bonds>
6

> <r_i_docking_score>
-7.66064007530322

> <r_i_glide_ligand_efficiency>
-0.273594288403687

> <r_i_glide_ligand_efficiency_sa>
-0.830793398012013

> <r_i_glide_ligand_efficiency_ln>
-1.76830065554625

> <r_i_glide_gscore>
-7.66064007530322

> <r_i_glide_lipo>
-2.71911406596905

> <r_i_glide_hbond>
-0.396211632215229

> <r_i_glide_metal>
0

> <r_i_glide_rewards>
-1.96985099543312

> <r_i_glide_evdw>
-43.5130729675293

> <r_i_glide_ecoul>
-6.41752338409424

> <r_i_glide_erotb>
0.750405663751968

> <r_i_glide_esite>
-0.187586889447189

> <r_i_glide_emodel>
-62.398494938493

> <r_i_glide_energy>
-49.9305963516235

> <r_i_glide_einternal>
10.4087381362915

> <i_i_glide_confnum>
87

> <i_i_glide_posenum>
77

> <r_i_glide_eff_state_penalty>
0

> <s_user_duplicate_titles>
CHEMBL206_lig308,CHEMBL206_lig308

> <i_f3d_flags>
0

> <s_m_subgroup_title>
dock_pv

> <s_m_subgroupid>
dock_pv

> <b_m_subgroup_collapsed>
1

$$$$
CHEMBL206_lig156
                    3D
 Schrodinger Suite 2021-1.
 30 31  0  0  1  0            999 V2000
   33.5581   -0.7173   28.5678 F   0  0  0  0  0  0
   32.9450    1.2563   28.0158 F   0  0  0  0  0  0
   31.5822    1.4684   30.4740 F   0  0  0  0  0  0
   32.1403   -0.5386   30.9384 F   0  0  0  0  0  0
   33.6518    0.9742   30.6643 F   0  0  0  0  0  0
   34.0178   -3.3422   24.6639 O   0  0  0  0  0  0
   32.4724   -3.0831   23.0023 O   0  0  0  0  0  0
   31.3650   -0.8564   26.7040 N   0  0  0  0  0  0
   32.3289   -1.7159   26.3158 N   0  0  0  0  0  0
   29.2951    0.0680   25.8641 N   0  0  0  0  0  0
   32.5701    0.1721   28.7021 C   0  0  0  0  0  0
   31.2365   -0.3895   28.1011 C   0  0  1  0  0  0
   32.4826    0.5248   30.2094 C   0  0  0  0  0  0
   30.4289   -0.6995   25.6973 C   0  0  0  0  0  0
   30.0593    0.6317   28.1352 C   0  0  0  0  0  0
   32.1144   -2.0010   25.0464 C   0  0  0  0  0  0
   30.9601   -1.3385   24.6021 C   0  0  0  0  0  0
   28.8600    0.2389   27.2486 C   0  0  1  0  0  0
   32.9625   -2.8617   24.2554 C   0  0  0  0  0  0
   27.7573    1.3079   27.2576 C   0  0  0  0  0  0
   33.0409   -3.6830   22.5142 H   0  0  0  0  0  0
   28.5022   -0.1342   25.2721 H   0  0  0  0  0  0
   30.9480   -1.2645   28.6870 H   0  0  0  0  0  0
   29.7096    0.7489   29.1604 H   0  0  0  0  0  0
   30.4081    1.6265   27.8493 H   0  0  0  0  0  0
   30.5417   -1.3421   23.6086 H   0  0  0  0  0  0
   28.4300   -0.6998   27.6037 H   0  0  0  0  0  0
   27.3933    1.5005   28.2639 H   0  0  0  0  0  0
   28.1083    2.2578   26.8549 H   0  0  0  0  0  0
   26.8964    0.9967   26.6658 H   0  0  0  0  0  0
  1 11  1  0  0  0
  2 11  1  0  0  0
  3 13  1  0  0  0
  4 13  1  0  0  0
  5 13  1  0  0  0
  6 19  2  0  0  0
  7 19  1  0  0  0
  7 21  1  0  0  0
  8  9  1  0  0  0
  8 12  1  0  0  0
  8 14  1  0  0  0
  9 16  2  0  0  0
 10 14  1  0  0  0
 10 18  1  0  0  0
 10 22  1  0  0  0
 11 12  1  0  0  0
 11 13  1  0  0  0
 12 15  1  0  0  0
 12 23  1  0  0  0
 14 17  2  0  0  0
 15 18  1  0  0  0
 15 24  1  0  0  0
 15 25  1  0  0  0
 16 17  1  0  0  0
 16 19  1  0  0  0
 17 26  1  0  0  0
 18 20  1  0  0  0
 18 27  1  0  0  0
 20 28  1  0  0  0
 20 29  1  0  0  0
 20 30  1  0  0  0
M  END
> <s_m_entry_id>
16877

> <s_m_entry_name>
dock_pv.43

> <s_m_Source_Path>
/home/csk/Desktop/cluster/DUD-E-result/esr1

> <s_m_Source_File>
dock_pv.maegz

> <i_m_Source_File_Index>
43

> <chembl_id>
CHEMBL1606765

> <chembl_pref_name>
None

> <i_lp_mmshare_version>
53161

> <r_lp_tautomer_probability>
1

> <s_lp_Force_Field>
OPLS_2005

> <r_lp_Energy>
13.161829

> <b_lp_Chiralities_Consistent>
1

> <s_lp_Variant>
CHEMBL206_lig156-4

> <s_i_glide_gridfile>
glide-grid_1sj0

> <i_i_glide_lignum>
209

> <i_i_glide_rotatable_bonds>
4

> <r_i_docking_score>
-7.60917126922313

> <r_i_glide_ligand_efficiency>
-0.380458563461157

> <r_i_glide_ligand_efficiency_sa>
-1.0327234260121

> <r_i_glide_ligand_efficiency_ln>
-1.9043246014216

> <r_i_glide_gscore>
-7.60917126922313

> <r_i_glide_lipo>
-2.47180617298693

> <r_i_glide_hbond>
0

> <r_i_glide_metal>
0

> <r_i_glide_rewards>
-3.80579991829058

> <r_i_glide_evdw>
-34.6733894348145

> <r_i_glide_ecoul>
-0.054318480193615

> <r_i_glide_erotb>
0.410252065824138

> <r_i_glide_esite>
0

> <r_i_glide_emodel>
-49.1193022786914

> <r_i_glide_energy>
-34.7277079150081

> <r_i_glide_einternal>
1.79991507530212

> <i_i_glide_confnum>
1

> <i_i_glide_posenum>
199

> <r_i_glide_eff_state_penalty>
0

> <s_user_duplicate_titles>
CHEMBL206_lig156

> <i_f3d_flags>
0

> <s_m_subgroup_title>
dock_pv

> <s_m_subgroupid>
dock_pv

> <b_m_subgroup_collapsed>
1

$$$$
CHEMBL206_lig232
                    3D
 Schrodinger Suite 2021-1.
 36 37  0  0  1  0            999 V2000
   33.7389   -2.9417   24.5467 S   0  0  0  0  0  0
   30.3193   -1.0769   26.7223 S   0  0  0  0  0  0
   31.2595   -1.7425   23.5959 S   0  0  0  0  0  0
   32.8602   -2.0329   27.7467 S   0  0  0  0  0  0
   34.4601   -4.1433   21.8639 S   0  0  0  0  0  0
   29.8840    0.8848   29.0654 S   0  0  0  0  0  0
   37.6368   -2.1453   20.6604 N   0  0  0  0  0  0
   26.4617   -0.9419   28.2627 N   0  0  0  0  0  0
   32.2375   -2.1258   25.0242 C   0  0  0  0  0  0
   31.8734   -1.8139   26.2843 C   0  0  0  0  0  0
   33.2828   -3.2506   22.8622 C   0  0  0  0  0  0
   30.8987   -0.3115   28.2046 C   0  0  0  0  0  0
   32.1069   -2.7650   22.4310 C   0  0  0  0  0  0
   32.0824   -0.7380   28.6873 C   0  0  0  0  0  0
   31.4116   -3.0493   21.1118 C   0  0  0  0  0  0
   32.8044   -0.2262   29.9248 C   0  0  0  0  0  0
   34.3758   -3.4173   20.1978 C   0  0  0  0  0  0
   28.8416    1.7246   27.8275 C   0  0  0  0  0  0
   35.7083   -3.4485   19.4372 C   0  0  0  0  0  0
   27.7865    0.9526   27.0113 C   0  0  0  0  0  0
   36.7888   -2.7196   20.1216 C   0  0  0  0  0  0
   27.0479   -0.1071   27.7166 C   0  0  0  0  0  0
   31.6999   -4.0238   20.7211 H   0  0  0  0  0  0
   30.3304   -3.0838   21.2469 H   0  0  0  0  0  0
   31.6418   -2.2892   20.3677 H   0  0  0  0  0  0
   32.3657    0.6911   30.3138 H   0  0  0  0  0  0
   32.7847   -0.9711   30.7173 H   0  0  0  0  0  0
   33.8478   -0.0098   29.6874 H   0  0  0  0  0  0
   34.0451   -2.3826   20.2801 H   0  0  0  0  0  0
   33.6280   -3.9542   19.6164 H   0  0  0  0  0  0
   28.3108    2.4899   28.3918 H   0  0  0  0  0  0
   29.5033    2.2556   27.1431 H   0  0  0  0  0  0
   35.5907   -3.0078   18.4470 H   0  0  0  0  0  0
   36.0404   -4.4760   19.2901 H   0  0  0  0  0  0
   27.0341    1.6589   26.6657 H   0  0  0  0  0  0
   28.2217    0.5211   26.1123 H   0  0  0  0  0  0
  1  9  1  0  0  0
  1 11  1  0  0  0
  2 10  1  0  0  0
  2 12  1  0  0  0
  3  9  1  0  0  0
  3 13  1  0  0  0
  4 10  1  0  0  0
  4 14  1  0  0  0
  5 11  1  0  0  0
  5 17  1  0  0  0
  6 12  1  0  0  0
  6 18  1  0  0  0
  7 21  3  0  0  0
  8 22  3  0  0  0
  9 10  2  0  0  0
 11 13  2  0  0  0
 12 14  2  0  0  0
 13 15  1  0  0  0
 14 16  1  0  0  0
 15 23  1  0  0  0
 15 24  1  0  0  0
 15 25  1  0  0  0
 16 26  1  0  0  0
 16 27  1  0  0  0
 16 28  1  0  0  0
 17 19  1  0  0  0
 17 29  1  0  0  0
 17 30  1  0  0  0
 18 20  1  0  0  0
 18 31  1  0  0  0
 18 32  1  0  0  0
 19 21  1  0  0  0
 19 33  1  0  0  0
 19 34  1  0  0  0
 20 22  1  0  0  0
 20 35  1  0  0  0
 20 36  1  0  0  0
M  END
> <s_m_entry_id>
16878

> <s_m_entry_name>
dock_pv.44

> <s_m_Source_Path>
/home/csk/Desktop/cluster/DUD-E-result/esr1

> <s_m_Source_File>
dock_pv.maegz

> <i_m_Source_File_Index>
44

> <chembl_id>
CHEMBL1407483

> <chembl_pref_name>
None

> <i_lp_mmshare_version>
53161

> <r_lp_tautomer_probability>
1

> <s_lp_Force_Field>
OPLS_2005

> <r_lp_Energy>
12.773419

> <b_lp_Chiralities_Consistent>
1

> <s_lp_Variant>
CHEMBL206_lig232-1

> <s_i_glide_gridfile>
glide-grid_1sj0

> <i_i_glide_lignum>
303

> <i_i_glide_rotatable_bonds>
6

> <r_i_docking_score>
-7.59351535275699

> <r_i_glide_ligand_efficiency>
-0.345159788761681

> <r_i_glide_ligand_efficiency_sa>
-0.967151302474434

> <r_i_glide_ligand_efficiency_ln>
-1.85613213241615

> <r_i_glide_gscore>
-7.59351535275699

> <r_i_glide_lipo>
-3.60503687993497

> <r_i_glide_hbond>
-0.266591001936819

> <r_i_glide_metal>
0

> <r_i_glide_rewards>
-2.04584297630772

> <r_i_glide_evdw>
-38.7567100524902

> <r_i_glide_ecoul>
-1.48249137401581

> <r_i_glide_erotb>
0.484164714149399

> <r_i_glide_esite>
0

> <r_i_glide_emodel>
-54.3509255511529

> <r_i_glide_energy>
-40.239201426506

> <r_i_glide_einternal>
5.77034330368042

> <i_i_glide_confnum>
40

> <i_i_glide_posenum>
348

> <r_i_glide_eff_state_penalty>
0

> <s_user_duplicate_titles>
CHEMBL206_lig232

> <i_f3d_flags>
0

> <s_m_subgroup_title>
dock_pv

> <s_m_subgroupid>
dock_pv

> <b_m_subgroup_collapsed>
1

$$$$
CHEMBL206_lig335
                    3D
 Schrodinger Suite 2021-1.
 34 34  0  0  1  0            999 V2000
   28.6233    0.3249   27.6601 C   0  0  0  0  0  0
   27.2608    0.1147   27.4633 C   0  0  0  0  0  0
   26.7957   -1.1549   27.1413 C   0  0  0  0  0  0
   27.6765   -2.2270   27.0664 C   0  0  0  0  0  0
   29.0374   -2.0173   27.2764 C   0  0  0  0  0  0
   29.5455   -0.7304   27.5323 C   0  0  0  0  0  0
   25.4648   -1.3419   26.8886 O   0  0  0  0  0  0
   31.0857   -0.5014   27.6826 C   0  0  0  0  0  0
   31.4523    1.0186   27.4599 C   0  0  0  0  0  0
   31.4472   -0.9567   29.1367 C   0  0  0  0  0  0
   31.8724   -1.3793   26.6428 C   0  0  0  0  0  0
   31.5030   -1.1723   25.1579 C   0  0  0  0  0  0
   32.9070    1.4157   27.1113 C   0  0  0  0  0  0
   32.9114   -0.8492   29.6026 C   0  0  0  0  0  0
   28.9411    1.3275   27.8993 H   0  0  0  0  0  0
   26.5678    0.9406   27.5344 H   0  0  0  0  0  0
   27.3143   -3.2178   26.8306 H   0  0  0  0  0  0
   29.6914   -2.8726   27.2056 H   0  0  0  0  0  0
   25.2602   -2.1973   26.4660 H   0  0  0  0  0  0
   31.1759    1.5790   28.3543 H   0  0  0  0  0  0
   30.8301    1.4274   26.6642 H   0  0  0  0  0  0
   30.8433   -0.3946   29.8501 H   0  0  0  0  0  0
   31.1392   -1.9956   29.2678 H   0  0  0  0  0  0
   32.9424   -1.2026   26.7400 H   0  0  0  0  0  0
   31.7750   -2.4377   26.8838 H   0  0  0  0  0  0
   32.1204   -1.8026   24.5172 H   0  0  0  0  0  0
   30.4632   -1.4289   24.9552 H   0  0  0  0  0  0
   31.6536   -0.1421   24.8390 H   0  0  0  0  0  0
   33.0078    2.5012   27.0881 H   0  0  0  0  0  0
   33.2023    1.0568   26.1257 H   0  0  0  0  0  0
   33.6421    1.0486   27.8218 H   0  0  0  0  0  0
   33.0401   -1.3412   30.5648 H   0  0  0  0  0  0
   33.6084   -1.3183   28.9095 H   0  0  0  0  0  0
   33.2105    0.1855   29.7570 H   0  0  0  0  0  0
  1  2  2  0  0  0
  1  6  1  0  0  0
  1 15  1  0  0  0
  2  3  1  0  0  0
  2 16  1  0  0  0
  3  4  2  0  0  0
  3  7  1  0  0  0
  4  5  1  0  0  0
  4 17  1  0  0  0
  5  6  2  0  0  0
  5 18  1  0  0  0
  6  8  1  0  0  0
  7 19  1  0  0  0
  8  9  1  0  0  0
  8 10  1  0  0  0
  8 11  1  0  0  0
  9 13  1  0  0  0
  9 20  1  0  0  0
  9 21  1  0  0  0
 10 14  1  0  0  0
 10 22  1  0  0  0
 10 23  1  0  0  0
 11 12  1  0  0  0
 11 24  1  0  0  0
 11 25  1  0  0  0
 12 26  1  0  0  0
 12 27  1  0  0  0
 12 28  1  0  0  0
 13 29  1  0  0  0
 13 30  1  0  0  0
 13 31  1  0  0  0
 14 32  1  0  0  0
 14 33  1  0  0  0
 14 34  1  0  0  0
M  END
> <s_m_entry_id>
16879

> <s_m_entry_name>
dock_pv.45

> <s_m_Source_Path>
/home/csk/Desktop/cluster/DUD-E-result/esr1

> <s_m_Source_File>
dock_pv.maegz

> <i_m_Source_File_Index>
45

> <chembl_id>
CHEMBL2313444

> <chembl_pref_name>
None

> <i_lp_mmshare_version>
53161

> <r_lp_tautomer_probability>
0.999999999997365

> <s_lp_Force_Field>
OPLS_2005

> <r_lp_Energy>
16.415946

> <b_lp_Chiralities_Consistent>
1

> <s_lp_Variant>
CHEMBL206_lig335-1

> <s_i_glide_gridfile>
glide-grid_1sj0

> <i_i_glide_lignum>
430

> <i_i_glide_rotatable_bonds>
5

> <r_i_docking_score>
-7.58809945848642

> <r_i_glide_ligand_efficiency>
-0.542007104177601

> <r_i_glide_ligand_efficiency_sa>
-1.30631422811252

> <r_i_glide_ligand_efficiency_ln>
-2.08518271936339

> <r_i_glide_gscore>
-7.58809945848642

> <r_i_glide_lipo>
-3.05503877465831

> <r_i_glide_hbond>
-0.168181766186088

> <r_i_glide_metal>
0

> <r_i_glide_rewards>
-2.86135140837728

> <r_i_glide_evdw>
-23.7404613494873

> <r_i_glide_ecoul>
-4.14414167404175

> <r_i_glide_erotb>
0.305116809315886

> <r_i_glide_esite>
0

> <r_i_glide_emodel>
-41.4216657889765

> <r_i_glide_energy>
-27.8846030235291

> <r_i_glide_einternal>
1.88487315177917

> <i_i_glide_confnum>
1

> <i_i_glide_posenum>
170

> <r_i_glide_eff_state_penalty>
0

> <s_user_duplicate_titles>
CHEMBL206_lig335

> <i_f3d_flags>
0

> <s_m_subgroup_title>
dock_pv

> <s_m_subgroupid>
dock_pv

> <b_m_subgroup_collapsed>
1

$$$$
CHEMBL206_lig98
                    3D
 Schrodinger Suite 2021-1.
 42 44  0  0  1  0            999 V2000
   33.6597    1.1215   30.6642 Cl  0  0  0  0  0  0
   29.7747   -1.7246   27.2789 O   0  0  0  0  0  0
   34.2226   -1.3132   29.0643 O   0  0  0  0  0  0
   27.6700   -2.0891   26.6453 O   0  0  0  0  0  0
   32.8581   -2.1904   25.7130 N   0  0  1  0  0  0
   30.7455   -0.9680   27.9336 C   0  0  0  0  0  0
   30.4235    0.2569   28.5234 C   0  0  0  0  0  0
   32.0632   -1.4473   27.9887 C   0  0  0  0  0  0
   32.9705   -0.8121   28.8558 C   0  0  0  0  0  0
   32.5985    0.3412   29.5514 C   0  0  0  0  0  0
   29.1055    0.8136   28.2105 C   0  0  0  0  0  0
   31.3500    0.9007   29.3459 C   0  0  0  0  0  0
   32.4966   -2.6071   27.0853 C   0  0  0  0  0  0
   28.4643   -1.2913   27.1339 C   0  0  0  0  0  0
   28.1740    0.0716   27.5812 C   0  0  0  0  0  0
   28.8600    2.2262   28.6647 C   0  0  0  0  0  0
   33.5064   -3.3220   25.0313 C   0  0  0  0  0  0
   31.6690   -1.7120   24.9835 C   0  0  0  0  0  0
   33.6672   -3.2255   23.5068 C   0  0  0  0  0  0
   31.8367   -1.6245   23.4639 C   0  0  0  0  0  0
   32.3281   -2.9424   22.8509 C   0  0  0  0  0  0
   32.3988   -2.9440   21.3164 C   0  0  0  0  0  0
   34.3778   -2.1687   28.6621 H   0  0  0  0  0  0
   31.1191    1.8288   29.8481 H   0  0  0  0  0  0
   31.6963   -3.3485   27.0564 H   0  0  0  0  0  0
   33.3324   -3.1290   27.5514 H   0  0  0  0  0  0
   27.2003    0.4945   27.3826 H   0  0  0  0  0  0
   27.8961    2.5971   28.3141 H   0  0  0  0  0  0
   28.8614    2.2599   29.7520 H   0  0  0  0  0  0
   29.6600    2.8685   28.2923 H   0  0  0  0  0  0
   32.8422   -4.1420   25.2293 H   0  0  0  0  0  0
   34.4598   -3.5697   25.4640 H   0  0  0  0  0  0
   30.8601   -2.4223   25.1549 H   0  0  0  0  0  0
   31.3395   -0.7538   25.3844 H   0  0  0  0  0  0
   34.0602   -4.1676   23.1249 H   0  0  0  0  0  0
   34.4319   -2.5022   23.2348 H   0  0  0  0  0  0
   32.4582   -0.7781   23.1790 H   0  0  0  0  0  0
   30.8601   -1.3810   23.0641 H   0  0  0  0  0  0
   31.6599   -3.7427   23.1542 H   0  0  0  0  0  0
   33.1204   -2.2163   20.9442 H   0  0  0  0  0  0
   31.4286   -2.7119   20.8762 H   0  0  0  0  0  0
   32.6955   -3.9244   20.9398 H   0  0  0  0  0  0
  1 10  1  0  0  0
  2  6  1  0  0  0
  2 14  1  0  0  0
  3  9  1  0  0  0
  3 23  1  0  0  0
  4 14  2  0  0  0
  5 13  1  0  0  0
  5 17  1  0  0  0
  5 18  1  0  0  0
  6  7  2  0  0  0
  6  8  1  0  0  0
  7 11  1  0  0  0
  7 12  1  0  0  0
  8  9  2  0  0  0
  8 13  1  0  0  0
  9 10  1  0  0  0
 10 12  2  0  0  0
 11 15  2  0  0  0
 11 16  1  0  0  0
 12 24  1  0  0  0
 13 25  1  0  0  0
 13 26  1  0  0  0
 14 15  1  0  0  0
 15 27  1  0  0  0
 16 28  1  0  0  0
 16 29  1  0  0  0
 16 30  1  0  0  0
 17 19  1  0  0  0
 17 31  1  0  0  0
 17 32  1  0  0  0
 18 20  1  0  0  0
 18 33  1  0  0  0
 18 34  1  0  0  0
 19 21  1  0  0  0
 19 35  1  0  0  0
 19 36  1  0  0  0
 20 21  1  0  0  0
 20 37  1  0  0  0
 20 38  1  0  0  0
 21 22  1  0  0  0
 21 39  1  0  0  0
 22 40  1  0  0  0
 22 41  1  0  0  0
 22 42  1  0  0  0
M  END
> <s_m_entry_id>
16880

> <s_m_entry_name>
dock_pv.46

> <s_m_Source_Path>
/home/csk/Desktop/cluster/DUD-E-result/esr1

> <s_m_Source_File>
dock_pv.maegz

> <i_m_Source_File_Index>
46

> <chembl_id>
CHEMBL1501269

> <chembl_pref_name>
None

> <i_lp_mmshare_version>
53161

> <r_lp_tautomer_probability>
1

> <s_lp_Force_Field>
OPLS_2005

> <r_lp_Energy>
24.874191

> <b_lp_Chiralities_Consistent>
1

> <s_lp_Variant>
CHEMBL206_lig98-1

> <s_i_glide_gridfile>
glide-grid_1sj0

> <i_i_glide_lignum>
117

> <i_i_glide_rotatable_bonds>
3

> <r_i_docking_score>
-7.55768465729477

> <r_i_glide_ligand_efficiency>
-0.343531120786126

> <r_i_glide_ligand_efficiency_sa>
-0.962587710755051

> <r_i_glide_ligand_efficiency_ln>
-1.84737380348881

> <r_i_glide_gscore>
-7.55768465729477

> <r_i_glide_lipo>
-4.44071882065755

> <r_i_glide_hbond>
0

> <r_i_glide_metal>
0

> <r_i_glide_rewards>
-2.05519865582621

> <r_i_glide_evdw>
-34.2547187805176

> <r_i_glide_ecoul>
1.93312335014343

> <r_i_glide_erotb>
0.361000255693362

> <r_i_glide_esite>
0

> <r_i_glide_emodel>
-40.2503734644861

> <r_i_glide_energy>
-32.3215954303741

> <r_i_glide_einternal>
2.58450627326965

> <i_i_glide_confnum>
2

> <i_i_glide_posenum>
213

> <r_i_glide_eff_state_penalty>
0

> <s_user_duplicate_titles>
CHEMBL206_lig98

> <i_f3d_flags>
0

> <s_m_subgroup_title>
dock_pv

> <s_m_subgroupid>
dock_pv

> <b_m_subgroup_collapsed>
1

$$$$
CHEMBL206_lig127
                    3D
 Schrodinger Suite 2021-1.
 47 50  0  0  1  0            999 V2000
   29.8147   -0.4623   25.5479 S   0  0  0  0  0  0
   29.3994    0.7856   28.2639 S   0  0  0  0  0  0
   33.8281   -3.9604   19.0981 S   0  0  0  0  0  0
   31.9938   -2.9423   21.3192 O   0  0  0  0  0  0
   32.2646    2.0731   28.2640 O   0  0  0  0  0  0
   31.1991   -1.1932   27.6146 N   0  0  0  0  0  0
   33.2580   -3.6838   23.0772 N   0  0  0  0  0  0
   34.8329   -1.5336   18.2150 N   0  0  0  0  0  0
   32.9775    0.7320   29.9442 N   0  0  0  0  0  0
   35.4987   -2.1079   20.2638 N   0  0  0  0  0  0
   31.1696   -1.5402   25.2993 C   0  0  0  0  0  0
   31.7449   -1.8509   26.5553 C   0  0  0  0  0  0
   30.2427   -0.3839   27.2375 C   0  0  0  0  0  0
   31.6601   -2.0874   24.1102 C   0  0  0  0  0  0
   32.7103   -3.0135   24.1884 C   0  0  0  0  0  0
   32.8072   -2.7639   26.6217 C   0  0  0  0  0  0
   33.2596   -3.3398   25.4298 C   0  0  0  0  0  0
   32.9107   -3.6249   21.7727 C   0  0  0  0  0  0
   34.7763   -2.4684   19.2237 C   0  0  0  0  0  0
   30.5785    1.0578   29.6370 C   0  0  0  0  0  0
   32.0249    1.3421   29.2227 C   0  0  0  0  0  0
   34.4050    0.7728   29.6565 C   0  0  0  0  0  0
   33.7538   -4.5050   20.8402 C   0  0  0  0  0  0
   35.6589   -0.5430   18.6754 C   0  0  0  0  0  0
   35.0692   -0.5423   29.3322 C   0  0  0  0  0  0
   34.8958    0.4888   28.2509 C   0  0  0  0  0  0
   36.0339   -0.9447   19.9451 C   0  0  0  0  0  0
   34.1819   -1.5875   16.9219 C   0  0  0  0  0  0
   34.0092   -4.3209   23.2958 H   0  0  0  0  0  0
   32.7102    0.2405   30.7835 H   0  0  0  0  0  0
   31.1980   -1.8109   23.1772 H   0  0  0  0  0  0
   33.2558   -3.0183   27.5682 H   0  0  0  0  0  0
   34.0600   -4.0657   25.4663 H   0  0  0  0  0  0
   30.5743    0.1411   30.2200 H   0  0  0  0  0  0
   30.2238    1.8571   30.2884 H   0  0  0  0  0  0
   34.9560    1.4938   30.2622 H   0  0  0  0  0  0
   34.7811   -4.5419   21.2014 H   0  0  0  0  0  0
   33.3590   -5.5206   20.8791 H   0  0  0  0  0  0
   35.8855    0.3266   18.0740 H   0  0  0  0  0  0
   34.4555   -1.4439   29.3123 H   0  0  0  0  0  0
   36.0600   -0.7389   29.7284 H   0  0  0  0  0  0
   35.7622    1.0387   27.8814 H   0  0  0  0  0  0
   34.1599    0.3127   27.4648 H   0  0  0  0  0  0
   36.6796   -0.4079   20.6276 H   0  0  0  0  0  0
   34.5879   -0.8156   16.2674 H   0  0  0  0  0  0
   34.3443   -2.5659   16.4673 H   0  0  0  0  0  0
   33.1139   -1.4133   17.0639 H   0  0  0  0  0  0
  1 11  1  0  0  0
  1 13  1  0  0  0
  2 13  1  0  0  0
  2 20  1  0  0  0
  3 19  1  0  0  0
  3 23  1  0  0  0
  4 18  2  0  0  0
  5 21  2  0  0  0
  6 12  1  0  0  0
  6 13  2  0  0  0
  7 15  1  0  0  0
  7 18  1  0  0  0
  7 29  1  0  0  0
  8 19  1  0  0  0
  8 24  1  0  0  0
  8 28  1  0  0  0
  9 21  1  0  0  0
  9 22  1  0  0  0
  9 30  1  0  0  0
 10 19  2  0  0  0
 10 27  1  0  0  0
 11 12  1  0  0  0
 11 14  2  0  0  0
 12 16  2  0  0  0
 14 15  1  0  0  0
 14 31  1  0  0  0
 15 17  2  0  0  0
 16 17  1  0  0  0
 16 32  1  0  0  0
 17 33  1  0  0  0
 18 23  1  0  0  0
 20 21  1  0  0  0
 20 34  1  0  0  0
 20 35  1  0  0  0
 22 25  1  0  0  0
 22 26  1  0  0  0
 22 36  1  0  0  0
 23 37  1  0  0  0
 23 38  1  0  0  0
 24 27  2  0  0  0
 24 39  1  0  0  0
 25 26  1  0  0  0
 25 40  1  0  0  0
 25 41  1  0  0  0
 26 42  1  0  0  0
 26 43  1  0  0  0
 27 44  1  0  0  0
 28 45  1  0  0  0
 28 46  1  0  0  0
 28 47  1  0  0  0
M  END
> <s_m_entry_id>
16881

> <s_m_entry_name>
dock_pv.47

> <s_m_Source_Path>
/home/csk/Desktop/cluster/DUD-E-result/esr1

> <s_m_Source_File>
dock_pv.maegz

> <i_m_Source_File_Index>
47

> <chembl_id>
CHEMBL1442450

> <chembl_pref_name>
None

> <i_lp_mmshare_version>
53161

> <r_lp_tautomer_probability>
1

> <s_lp_Force_Field>
OPLS_2005

> <r_lp_Energy>
23.090675

> <b_lp_Chiralities_Consistent>
1

> <s_lp_Variant>
CHEMBL206_lig127-1

> <s_i_glide_gridfile>
glide-grid_1sj0

> <i_i_glide_lignum>
150

> <i_i_glide_rotatable_bonds>
10

> <r_i_docking_score>
-7.5367092591219

> <r_i_glide_ligand_efficiency>
-0.269168187825782

> <r_i_glide_ligand_efficiency_sa>
-0.817353149823665

> <r_i_glide_ligand_efficiency_ln>
-1.73969378440472

> <r_i_glide_gscore>
-7.5367092591219

> <r_i_glide_lipo>
-4.19110217257406

> <r_i_glide_hbond>
0

> <r_i_glide_metal>
0

> <r_i_glide_rewards>
-1.53786828096085

> <r_i_glide_evdw>
-51.5601348876953

> <r_i_glide_ecoul>
-1.06551051139832

> <r_i_glide_erotb>
0.953127805419254

> <r_i_glide_esite>
-0.0230332899117321

> <r_i_glide_emodel>
-75.8210216805046

> <r_i_glide_energy>
-52.6256453990936

> <r_i_glide_einternal>
2.39609622955322

> <i_i_glide_confnum>
18

> <i_i_glide_posenum>
235

> <r_i_glide_eff_state_penalty>
0

> <s_user_duplicate_titles>
CHEMBL206_lig127

> <i_f3d_flags>
0

> <s_m_subgroup_title>
dock_pv

> <s_m_subgroupid>
dock_pv

> <b_m_subgroup_collapsed>
1

$$$$
CHEMBL206_lig156
                    3D
 Schrodinger Suite 2021-1.
 30 31  0  0  1  0            999 V2000
   33.3059   -0.7878   28.8263 F   0  0  0  0  0  0
   32.7682    1.1929   28.2130 F   0  0  0  0  0  0
   31.6595   -0.5435   31.0640 F   0  0  0  0  0  0
   33.2607    0.8833   30.9506 F   0  0  0  0  0  0
   31.2545    1.4808   30.5476 F   0  0  0  0  0  0
   32.7914   -3.0362   23.1800 O   0  0  0  0  0  0
   33.6564   -3.7375   25.1703 O   0  0  0  0  0  0
   31.2392   -0.8842   26.8043 N   0  0  0  0  0  0
   32.1950   -1.7750   26.4670 N   0  0  0  0  0  0
   29.2557    0.1160   25.8626 N   0  0  0  0  0  0
   32.3270    0.1215   28.8809 C   0  0  0  0  0  0
   31.0335   -0.4333   28.1980 C   0  0  1  0  0  0
   32.1267    0.4923   30.3733 C   0  0  0  0  0  0
   30.3765   -0.6829   25.7418 C   0  0  0  0  0  0
   29.8495    0.5842   28.1904 C   0  0  0  0  0  0
   32.0422   -2.0436   25.1816 C   0  0  0  0  0  0
   30.9483   -1.3333   24.6718 C   0  0  0  0  0  0
   28.7071    0.2439   27.2114 C   0  0  2  0  0  0
   32.8615   -2.9418   24.4037 C   0  0  0  0  0  0
   27.9186   -1.0293   27.5845 C   0  0  0  0  0  0
   34.0774   -4.4276   24.6490 H   0  0  0  0  0  0
   28.5311    0.0753   25.1575 H   0  0  0  0  0  0
   30.7180   -1.3156   28.7559 H   0  0  0  0  0  0
   29.4329    0.6883   29.1903 H   0  0  0  0  0  0
   30.2161    1.5852   27.9543 H   0  0  0  0  0  0
   30.5877   -1.3413   23.6541 H   0  0  0  0  0  0
   28.0050    1.0786   27.1966 H   0  0  0  0  0  0
   27.4727   -0.9359   28.5736 H   0  0  0  0  0  0
   27.1017   -1.2107   26.8844 H   0  0  0  0  0  0
   28.5473   -1.9206   27.5928 H   0  0  0  0  0  0
  1 11  1  0  0  0
  2 11  1  0  0  0
  3 13  1  0  0  0
  4 13  1  0  0  0
  5 13  1  0  0  0
  6 19  2  0  0  0
  7 19  1  0  0  0
  7 21  1  0  0  0
  8  9  1  0  0  0
  8 12  1  0  0  0
  8 14  1  0  0  0
  9 16  2  0  0  0
 10 14  1  0  0  0
 10 18  1  0  0  0
 10 22  1  0  0  0
 11 12  1  0  0  0
 11 13  1  0  0  0
 12 15  1  0  0  0
 12 23  1  0  0  0
 14 17  2  0  0  0
 15 18  1  0  0  0
 15 24  1  0  0  0
 15 25  1  0  0  0
 16 17  1  0  0  0
 16 19  1  0  0  0
 17 26  1  0  0  0
 18 20  1  0  0  0
 18 27  1  0  0  0
 20 28  1  0  0  0
 20 29  1  0  0  0
 20 30  1  0  0  0
M  END
> <s_m_entry_id>
16882

> <s_m_entry_name>
dock_pv.48

> <s_m_Source_Path>
/home/csk/Desktop/cluster/DUD-E-result/esr1

> <s_m_Source_File>
dock_pv.maegz

> <i_m_Source_File_Index>
48

> <chembl_id>
CHEMBL1606765

> <chembl_pref_name>
None

> <i_lp_mmshare_version>
53161

> <r_lp_tautomer_probability>
1

> <s_lp_Force_Field>
OPLS_2005

> <r_lp_Energy>
13.759396

> <b_lp_Chiralities_Consistent>
1

> <s_lp_Variant>
CHEMBL206_lig156-2

> <s_i_glide_gridfile>
glide-grid_1sj0

> <i_i_glide_lignum>
207

> <i_i_glide_rotatable_bonds>
4

> <r_i_docking_score>
-7.52656628235224

> <r_i_glide_ligand_efficiency>
-0.376328314117612

> <r_i_glide_ligand_efficiency_sa>
-1.02151220444425

> <r_i_glide_ligand_efficiency_ln>
-1.88365129770263

> <r_i_glide_gscore>
-7.52656628235224

> <r_i_glide_lipo>
-2.39598486116129

> <r_i_glide_hbond>
0

> <r_i_glide_metal>
0

> <r_i_glide_rewards>
-3.70312708507093

> <r_i_glide_evdw>
-34.1328125

> <r_i_glide_ecoul>
-0.873771846294403

> <r_i_glide_erotb>
0.410252065824138

> <r_i_glide_esite>
0

> <r_i_glide_emodel>
-49.1461416315534

> <r_i_glide_energy>
-35.0065843462944

> <r_i_glide_einternal>
2.35483479499817

> <i_i_glide_confnum>
16

> <i_i_glide_posenum>
360

> <r_i_glide_eff_state_penalty>
0

> <s_user_duplicate_titles>
CHEMBL206_lig156

> <i_f3d_flags>
0

> <s_m_subgroup_title>
dock_pv

> <s_m_subgroupid>
dock_pv

> <b_m_subgroup_collapsed>
1

$$$$
CHEMBL206_lig186
                    3D
 Schrodinger Suite 2021-1.
 51 54  0  0  1  0            999 V2000
   30.9632   -0.9422   24.3037 O   0  0  0  0  0  0
   32.5432   -2.5449   24.6077 N   0  0  0  0  0  0
   33.9732   -3.7017   19.2861 N   0  0  0  0  0  0
   31.3599   -1.6727   26.5931 C   0  0  0  0  0  0
   31.5973   -1.6881   25.0552 C   0  0  0  0  0  0
   29.8826   -1.4139   26.9609 C   0  0  0  0  0  0
   32.3589   -0.7712   27.3469 C   0  0  0  0  0  0
   32.8642   -2.8184   23.2645 C   0  0  0  0  0  0
   33.6038   -3.4377   20.6163 C   0  0  0  0  0  0
   31.8980   -2.9416   22.2642 C   0  0  0  0  0  0
   34.1971   -3.0233   22.9356 C   0  0  0  0  0  0
   29.1127   -2.4721   27.4631 C   0  0  0  0  0  0
   32.5179    0.5860   27.0365 C   0  0  0  0  0  0
   29.2796   -0.1633   26.7653 C   0  0  0  0  0  0
   33.1380   -1.3285   28.3719 C   0  0  0  0  0  0
   32.2608   -3.2590   20.9592 C   0  0  0  0  0  0
   34.5665   -3.3266   21.6267 C   0  0  0  0  0  0
   33.0633   -3.8368   18.1437 C   0  0  0  0  0  0
   35.3297   -3.9139   18.7780 C   0  0  0  0  0  0
   27.7605   -2.2920   27.7386 C   0  0  0  0  0  0
   33.4401    1.3697   27.7243 C   0  0  0  0  0  0
   27.9323    0.0252   27.0630 C   0  0  0  0  0  0
   34.0578   -0.5451   29.0638 C   0  0  0  0  0  0
   27.1743   -1.0440   27.5377 C   0  0  0  0  0  0
   34.2091    0.8001   28.7361 C   0  0  0  0  0  0
   33.8701   -4.3945   16.9732 C   0  0  0  0  0  0
   35.2595   -3.8672   17.2551 C   0  0  0  0  0  0
   33.1300   -2.9910   25.2975 H   0  0  0  0  0  0
   31.5749   -2.6956   26.9155 H   0  0  0  0  0  0
   30.8600   -2.7975   22.4921 H   0  0  0  0  0  0
   34.9547   -2.9422   23.6986 H   0  0  0  0  0  0
   29.5504   -3.4444   27.6169 H   0  0  0  0  0  0
   31.9356    1.0453   26.2591 H   0  0  0  0  0  0
   29.8366    0.6641   26.3557 H   0  0  0  0  0  0
   33.0412   -2.3730   28.6328 H   0  0  0  0  0  0
   31.4824   -3.3574   20.2162 H   0  0  0  0  0  0
   35.6126   -3.4747   21.4058 H   0  0  0  0  0  0
   32.2752   -4.5490   18.3945 H   0  0  0  0  0  0
   32.6003   -2.8814   17.8885 H   0  0  0  0  0  0
   35.9739   -3.1080   19.1282 H   0  0  0  0  0  0
   35.7305   -4.8668   19.1231 H   0  0  0  0  0  0
   27.1642   -3.1194   28.0942 H   0  0  0  0  0  0
   33.5618    2.4127   27.4743 H   0  0  0  0  0  0
   27.4697    0.9874   26.9028 H   0  0  0  0  0  0
   34.6621   -0.9807   29.8466 H   0  0  0  0  0  0
   26.1227   -0.9038   27.7463 H   0  0  0  0  0  0
   34.9341    1.4031   29.2654 H   0  0  0  0  0  0
   33.8412   -5.4859   16.9740 H   0  0  0  0  0  0
   33.4867   -4.0623   16.0080 H   0  0  0  0  0  0
   35.3883   -2.8454   16.8937 H   0  0  0  0  0  0
   36.0344   -4.4770   16.7884 H   0  0  0  0  0  0
  1  5  2  0  0  0
  2  5  1  0  0  0
  2  8  1  0  0  0
  2 28  1  0  0  0
  3  9  1  0  0  0
  3 18  1  0  0  0
  3 19  1  0  0  0
  4  5  1  0  0  0
  4  6  1  0  0  0
  4  7  1  0  0  0
  4 29  1  0  0  0
  6 12  2  0  0  0
  6 14  1  0  0  0
  7 13  2  0  0  0
  7 15  1  0  0  0
  8 10  2  0  0  0
  8 11  1  0  0  0
  9 16  2  0  0  0
  9 17  1  0  0  0
 10 16  1  0  0  0
 10 30  1  0  0  0
 11 17  2  0  0  0
 11 31  1  0  0  0
 12 20  1  0  0  0
 12 32  1  0  0  0
 13 21  1  0  0  0
 13 33  1  0  0  0
 14 22  2  0  0  0
 14 34  1  0  0  0
 15 23  2  0  0  0
 15 35  1  0  0  0
 16 36  1  0  0  0
 17 37  1  0  0  0
 18 26  1  0  0  0
 18 38  1  0  0  0
 18 39  1  0  0  0
 19 27  1  0  0  0
 19 40  1  0  0  0
 19 41  1  0  0  0
 20 24  2  0  0  0
 20 42  1  0  0  0
 21 25  2  0  0  0
 21 43  1  0  0  0
 22 24  1  0  0  0
 22 44  1  0  0  0
 23 25  1  0  0  0
 23 45  1  0  0  0
 24 46  1  0  0  0
 25 47  1  0  0  0
 26 27  1  0  0  0
 26 48  1  0  0  0
 26 49  1  0  0  0
 27 50  1  0  0  0
 27 51  1  0  0  0
M  END
> <s_m_entry_id>
16883

> <s_m_entry_name>
dock_pv.49

> <s_m_Source_Path>
/home/csk/Desktop/cluster/DUD-E-result/esr1

> <s_m_Source_File>
dock_pv.maegz

> <i_m_Source_File_Index>
49

> <chembl_id>
CHEMBL1417890

> <chembl_pref_name>
None

> <i_lp_mmshare_version>
53161

> <r_lp_tautomer_probability>
1

> <s_lp_Force_Field>
OPLS_2005

> <r_lp_Energy>
49.354392

> <b_lp_Chiralities_Consistent>
1

> <s_lp_Variant>
CHEMBL206_lig186-1

> <s_i_glide_gridfile>
glide-grid_1sj0

> <i_i_glide_lignum>
248

> <i_i_glide_rotatable_bonds>
6

> <r_i_docking_score>
-7.48719145815099

> <r_i_glide_ligand_efficiency>
-0.277303387338926

> <r_i_glide_ligand_efficiency_sa>
-0.83191016110283

> <r_i_glide_ligand_efficiency_ln>
-1.74289473545932

> <r_i_glide_gscore>
-7.48719145815099

> <r_i_glide_lipo>
-3.87223525520577

> <r_i_glide_hbond>
0

> <r_i_glide_metal>
0

> <r_i_glide_rewards>
-2.16020110836431

> <r_i_glide_evdw>
-44.5748062133789

> <r_i_glide_ecoul>
-0.660307288169861

> <r_i_glide_erotb>
0.90344862010051

> <r_i_glide_esite>
-0.0304173107869934

> <r_i_glide_emodel>
-63.580229355179

> <r_i_glide_energy>
-45.2351135015488

> <r_i_glide_einternal>
2.75438666343689

> <i_i_glide_confnum>
84

> <i_i_glide_posenum>
253

> <r_i_glide_eff_state_penalty>
0

> <s_user_duplicate_titles>
CHEMBL206_lig186

> <i_f3d_flags>
0

> <s_m_subgroup_title>
dock_pv

> <s_m_subgroupid>
dock_pv

> <b_m_subgroup_collapsed>
1

$$$$
CHEMBL206_lig156
                    3D
 Schrodinger Suite 2021-1.
 30 31  0  0  1  0            999 V2000
   30.8854    0.8486   29.1219 F   0  0  0  0  0  0
   31.2601   -1.0144   30.0901 F   0  0  0  0  0  0
   33.5739    1.1244   28.5619 F   0  0  0  0  0  0
   33.2597    0.6580   30.6276 F   0  0  0  0  0  0
   33.9649   -0.8589   29.2679 F   0  0  0  0  0  0
   27.6600   -4.3488   29.0639 O   0  0  0  0  0  0
   26.0489   -3.3054   27.8641 O   0  0  0  0  0  0
   30.0857   -1.4121   27.4624 N   0  0  0  0  0  0
   29.4369   -2.2691   28.2641 N   0  0  0  0  0  0
   29.9101   -0.5420   25.2312 N   0  0  0  0  0  0
   31.6654   -0.2362   29.0884 C   0  0  0  0  0  0
   31.4804   -0.9858   27.7272 C   0  0  2  0  0  0
   33.1322    0.1761   29.3894 C   0  0  0  0  0  0
   29.3583   -1.2121   26.3037 C   0  0  0  0  0  0
   31.9536   -0.1426   26.5081 C   0  0  0  0  0  0
   28.2645   -2.5219   27.7145 C   0  0  0  0  0  0
   28.1121   -1.7616   26.5408 C   0  0  0  0  0  0
   31.3754   -0.5933   25.1542 C   0  0  1  0  0  0
   27.3350   -3.4812   28.2639 C   0  0  0  0  0  0
   31.8533   -1.9892   24.7012 C   0  0  0  0  0  0
   25.9189   -2.9319   26.9855 H   0  0  0  0  0  0
   29.4828   -0.6128   24.3193 H   0  0  0  0  0  0
   32.0791   -1.8979   27.7586 H   0  0  0  0  0  0
   31.6937    0.9083   26.6532 H   0  0  0  0  0  0
   33.0419   -0.1382   26.4589 H   0  0  0  0  0  0
   27.2702   -1.7539   25.8643 H   0  0  0  0  0  0
   31.6997    0.1185   24.3968 H   0  0  0  0  0  0
   32.9405   -2.0224   24.6259 H   0  0  0  0  0  0
   31.5475   -2.7793   25.3884 H   0  0  0  0  0  0
   31.4546   -2.2404   23.7176 H   0  0  0  0  0  0
  1 11  1  0  0  0
  2 11  1  0  0  0
  3 13  1  0  0  0
  4 13  1  0  0  0
  5 13  1  0  0  0
  6 19  2  0  0  0
  7 19  1  0  0  0
  7 21  1  0  0  0
  8  9  1  0  0  0
  8 12  1  0  0  0
  8 14  1  0  0  0
  9 16  2  0  0  0
 10 14  1  0  0  0
 10 18  1  0  0  0
 10 22  1  0  0  0
 11 12  1  0  0  0
 11 13  1  0  0  0
 12 15  1  0  0  0
 12 23  1  0  0  0
 14 17  2  0  0  0
 15 18  1  0  0  0
 15 24  1  0  0  0
 15 25  1  0  0  0
 16 17  1  0  0  0
 16 19  1  0  0  0
 17 26  1  0  0  0
 18 20  1  0  0  0
 18 27  1  0  0  0
 20 28  1  0  0  0
 20 29  1  0  0  0
 20 30  1  0  0  0
M  END
> <s_m_entry_id>
16884

> <s_m_entry_name>
dock_pv.50

> <s_m_Source_Path>
/home/csk/Desktop/cluster/DUD-E-result/esr1

> <s_m_Source_File>
dock_pv.maegz

> <i_m_Source_File_Index>
50

> <chembl_id>
CHEMBL1606765

> <chembl_pref_name>
None

> <i_lp_mmshare_version>
53161

> <r_lp_tautomer_probability>
1

> <s_lp_Force_Field>
OPLS_2005

> <r_lp_Energy>
13.759395

> <b_lp_Chiralities_Consistent>
1

> <s_lp_Variant>
CHEMBL206_lig156-3

> <s_i_glide_gridfile>
glide-grid_1sj0

> <i_i_glide_lignum>
208

> <i_i_glide_rotatable_bonds>
4

> <r_i_docking_score>
-7.45344439965594

> <r_i_glide_ligand_efficiency>
-0.372672219982797

> <r_i_glide_ligand_efficiency_sa>
-1.01158803812669

> <r_i_glide_ligand_efficiency_ln>
-1.86535130218484

> <r_i_glide_gscore>
-7.45344439965594

> <r_i_glide_lipo>
-2.22132483361725

> <r_i_glide_hbond>
0

> <r_i_glide_metal>
0

> <r_i_glide_rewards>
-3.72607733130664

> <r_i_glide_evdw>
-27.9604721069336

> <r_i_glide_ecoul>
-3.45513796806335

> <r_i_glide_erotb>
0.410252065824138

> <r_i_glide_esite>
0

> <r_i_glide_emodel>
-42.117840111196

> <r_i_glide_energy>
-31.4156100749969

> <r_i_glide_einternal>
5.11487770080566

> <i_i_glide_confnum>
11

> <i_i_glide_posenum>
301

> <r_i_glide_eff_state_penalty>
0

> <s_user_duplicate_titles>
CHEMBL206_lig156

> <i_f3d_flags>
0

> <s_m_subgroup_title>
dock_pv

> <s_m_subgroupid>
dock_pv

> <b_m_subgroup_collapsed>
1

$$$$
CHEMBL206_lig171
                    3D
 Schrodinger Suite 2021-1.
 51 54  0  0  1  0            999 V2000
   33.1406   -2.4728   26.8623 O   0  0  0  0  0  0
   32.7163   -1.8470   28.9441 O   0  0  0  0  0  0
   34.4106   -3.7618   22.5218 O   0  0  0  0  0  0
   27.6254   -0.9243   28.6637 O   0  0  0  0  0  0
   36.3155   -2.5480   21.1325 O   0  0  0  0  0  0
   35.4812   -3.1502   19.1207 N   0  0  0  0  0  0
   30.7673   -1.1648   25.9465 C   0  0  0  0  0  0
   31.7774   -1.6768   24.9867 C   0  0  0  0  0  0
   30.9874   -1.3926   27.3143 C   0  0  0  0  0  0
   32.8455   -2.4190   25.5099 C   0  0  0  0  0  0
   32.3233   -1.8695   27.7782 C   0  0  0  0  0  0
   29.9260   -1.2449   28.2107 C   0  0  0  0  0  0
   31.6443   -1.5746   23.6039 C   0  0  0  0  0  0
   29.5501   -0.6268   25.5249 C   0  0  0  0  0  0
   33.6834   -3.1225   24.6540 C   0  0  0  0  0  0
   33.5165   -3.0482   23.2720 C   0  0  0  0  0  0
   28.6621   -0.8635   27.7623 C   0  0  0  0  0  0
   32.4962   -2.2547   22.7495 C   0  0  0  0  0  0
   28.5058   -0.4865   26.4241 C   0  0  0  0  0  0
   34.3108   -3.8929   21.1084 C   0  0  0  0  0  0
   35.4680   -3.1322   20.4577 C   0  0  0  0  0  0
   36.4250   -2.4710   18.2270 C   0  0  0  0  0  0
   26.3142   -0.5993   28.2166 C   0  0  0  0  0  0
   35.7952   -2.4114   16.8206 C   0  0  0  0  0  0
   36.7418   -0.9940   18.6026 C   0  0  0  0  0  0
   34.4824   -1.5944   16.8508 C   0  0  0  0  0  0
   35.4557   -0.1416   18.7059 C   0  0  0  0  0  0
   34.7114   -0.1601   17.3646 C   0  0  0  0  0  0
   34.8391   -3.7814   18.6647 H   0  0  0  0  0  0
   30.0620   -1.5042   29.2482 H   0  0  0  0  0  0
   30.8525   -1.0011   23.1688 H   0  0  0  0  0  0
   29.3493   -0.4070   24.4883 H   0  0  0  0  0  0
   34.4852   -3.7189   25.0607 H   0  0  0  0  0  0
   32.3363   -2.1428   21.6904 H   0  0  0  0  0  0
   27.5609   -0.1494   26.0452 H   0  0  0  0  0  0
   33.3551   -3.6118   20.6714 H   0  0  0  0  0  0
   34.4330   -4.9514   20.8852 H   0  0  0  0  0  0
   37.3433   -3.0617   18.2080 H   0  0  0  0  0  0
   25.6364   -0.6167   29.0637 H   0  0  0  0  0  0
   26.2683    0.4049   27.7929 H   0  0  0  0  0  0
   25.9521   -1.3176   27.4791 H   0  0  0  0  0  0
   35.5979   -3.4191   16.4521 H   0  0  0  0  0  0
   36.4951   -1.9725   16.1077 H   0  0  0  0  0  0
   37.4084   -0.5656   17.8516 H   0  0  0  0  0  0
   37.3077   -0.9428   19.5323 H   0  0  0  0  0  0
   33.7322   -2.0902   17.4690 H   0  0  0  0  0  0
   34.0590   -1.5612   15.8644 H   0  0  0  0  0  0
   34.8094   -0.5342   19.4909 H   0  0  0  0  0  0
   35.6595    0.8898   18.9909 H   0  0  0  0  0  0
   33.7621    0.3580   17.4643 H   0  0  0  0  0  0
   35.2859    0.4007   16.6260 H   0  0  0  0  0  0
  1 10  1  0  0  0
  1 11  1  0  0  0
  2 11  2  0  0  0
  3 16  1  0  0  0
  3 20  1  0  0  0
  4 17  1  0  0  0
  4 23  1  0  0  0
  5 21  2  0  0  0
  6 21  1  0  0  0
  6 22  1  0  0  0
  6 29  1  0  0  0
  7  8  1  0  0  0
  7  9  1  0  0  0
  7 14  2  0  0  0
  8 10  1  0  0  0
  8 13  2  0  0  0
  9 11  1  0  0  0
  9 12  2  0  0  0
 10 15  2  0  0  0
 12 17  1  0  0  0
 12 30  1  0  0  0
 13 18  1  0  0  0
 13 31  1  0  0  0
 14 19  1  0  0  0
 14 32  1  0  0  0
 15 16  1  0  0  0
 15 33  1  0  0  0
 16 18  2  0  0  0
 17 19  2  0  0  0
 18 34  1  0  0  0
 19 35  1  0  0  0
 20 21  1  0  0  0
 20 36  1  0  0  0
 20 37  1  0  0  0
 22 24  1  0  0  0
 22 25  1  0  0  0
 22 38  1  0  0  0
 23 39  1  0  0  0
 23 40  1  0  0  0
 23 41  1  0  0  0
 24 26  1  0  0  0
 24 42  1  0  0  0
 24 43  1  0  0  0
 25 27  1  0  0  0
 25 44  1  0  0  0
 25 45  1  0  0  0
 26 28  1  0  0  0
 26 46  1  0  0  0
 26 47  1  0  0  0
 27 28  1  0  0  0
 27 48  1  0  0  0
 27 49  1  0  0  0
 28 50  1  0  0  0
 28 51  1  0  0  0
M  END
> <s_m_entry_id>
16885

> <s_m_entry_name>
dock_pv.51

> <s_m_Source_Path>
/home/csk/Desktop/cluster/DUD-E-result/esr1

> <s_m_Source_File>
dock_pv.maegz

> <i_m_Source_File_Index>
51

> <chembl_id>
CHEMBL1325233

> <chembl_pref_name>
None

> <i_lp_mmshare_version>
53161

> <r_lp_tautomer_probability>
1

> <s_lp_Force_Field>
OPLS_2005

> <r_lp_Energy>
29.889595

> <b_lp_Chiralities_Consistent>
1

> <s_lp_Variant>
CHEMBL206_lig171-1

> <s_i_glide_gridfile>
glide-grid_1sj0

> <i_i_glide_lignum>
225

> <i_i_glide_rotatable_bonds>
6

> <r_i_docking_score>
-7.44483376833698

> <r_i_glide_ligand_efficiency>
-0.265886920297749

> <r_i_glide_ligand_efficiency_sa>
-0.807389289045333

> <r_i_glide_ligand_efficiency_ln>
-1.71848622354993

> <r_i_glide_gscore>
-7.44483376833698

> <r_i_glide_lipo>
-4.47467862823454

> <r_i_glide_hbond>
-0.180497610313829

> <r_i_glide_metal>
0

> <r_i_glide_rewards>
-1.3722224827255

> <r_i_glide_evdw>
-32.0805854797363

> <r_i_glide_ecoul>
-2.30398917198181

> <r_i_glide_erotb>
0.533697262621448

> <r_i_glide_esite>
-0.00150465990046401

> <r_i_glide_emodel>
-73.4770623870972

> <r_i_glide_energy>
-34.3845746517181

> <r_i_glide_einternal>
8.71510219573975

> <i_i_glide_confnum>
3

> <i_i_glide_posenum>
3

> <r_i_glide_eff_state_penalty>
0

> <s_user_duplicate_titles>
CHEMBL206_lig171

> <i_f3d_flags>
0

> <s_m_subgroup_title>
dock_pv

> <s_m_subgroupid>
dock_pv

> <b_m_subgroup_collapsed>
1

$$$$
CHEMBL206_lig156
                    3D
 Schrodinger Suite 2021-1.
 30 31  0  0  1  0            999 V2000
   28.0619   -1.2604   26.1446 F   0  0  0  0  0  0
   28.4941   -1.3359   28.2217 F   0  0  0  0  0  0
   26.6811    0.6388   27.4640 F   0  0  0  0  0  0
   28.4639    1.5177   28.2642 F   0  0  0  0  0  0
   28.1588    1.5136   26.1802 F   0  0  0  0  0  0
   30.9987    1.4579   31.6607 O   0  0  0  0  0  0
   33.2599    1.2209   31.4639 O   0  0  0  0  0  0
   31.1020   -0.4279   27.9738 N   0  0  0  0  0  0
   30.8598    0.3906   29.0084 N   0  0  0  0  0  0
   32.8600   -1.8219   27.1041 N   0  0  0  0  0  0
   28.6878   -0.6013   27.1221 C   0  0  0  0  0  0
   30.2156   -0.4885   26.7964 C   0  0  2  0  0  0
   27.9912    0.7762   27.2703 C   0  0  0  0  0  0
   32.3759   -0.9591   28.0646 C   0  0  0  0  0  0
   30.7455   -1.6320   25.8924 C   0  0  0  0  0  0
   31.9047    0.3384   29.8035 C   0  0  0  0  0  0
   32.8784   -0.5274   29.2724 C   0  0  0  0  0  0
   32.2796   -1.6415   25.7741 C   0  0  2  0  0  0
   31.9799    1.0577   31.0431 C   0  0  0  0  0  0
   32.7879   -2.7708   24.8700 C   0  0  0  0  0  0
   33.8797    0.8724   30.8217 H   0  0  0  0  0  0
   33.8606   -1.9276   27.0316 H   0  0  0  0  0  0
   30.3810    0.4356   26.2404 H   0  0  0  0  0  0
   30.4012   -2.5993   26.2641 H   0  0  0  0  0  0
   30.2971   -1.5390   24.9018 H   0  0  0  0  0  0
   33.8332   -0.8045   29.6951 H   0  0  0  0  0  0
   32.6250   -0.6924   25.3584 H   0  0  0  0  0  0
   32.3765   -2.6856   23.8635 H   0  0  0  0  0  0
   33.8745   -2.7572   24.7789 H   0  0  0  0  0  0
   32.4986   -3.7422   25.2643 H   0  0  0  0  0  0
  1 11  1  0  0  0
  2 11  1  0  0  0
  3 13  1  0  0  0
  4 13  1  0  0  0
  5 13  1  0  0  0
  6 19  2  0  0  0
  7 19  1  0  0  0
  7 21  1  0  0  0
  8  9  1  0  0  0
  8 12  1  0  0  0
  8 14  1  0  0  0
  9 16  2  0  0  0
 10 14  1  0  0  0
 10 18  1  0  0  0
 10 22  1  0  0  0
 11 12  1  0  0  0
 11 13  1  0  0  0
 12 15  1  0  0  0
 12 23  1  0  0  0
 14 17  2  0  0  0
 15 18  1  0  0  0
 15 24  1  0  0  0
 15 25  1  0  0  0
 16 17  1  0  0  0
 16 19  1  0  0  0
 17 26  1  0  0  0
 18 20  1  0  0  0
 18 27  1  0  0  0
 20 28  1  0  0  0
 20 29  1  0  0  0
 20 30  1  0  0  0
M  END
> <s_m_entry_id>
16886

> <s_m_entry_name>
dock_pv.52

> <s_m_Source_Path>
/home/csk/Desktop/cluster/DUD-E-result/esr1

> <s_m_Source_File>
dock_pv.maegz

> <i_m_Source_File_Index>
52

> <chembl_id>
CHEMBL1606765

> <chembl_pref_name>
None

> <i_lp_mmshare_version>
53161

> <r_lp_tautomer_probability>
1

> <s_lp_Force_Field>
OPLS_2005

> <r_lp_Energy>
13.162061

> <b_lp_Chiralities_Consistent>
1

> <s_lp_Variant>
CHEMBL206_lig156-1

> <s_i_glide_gridfile>
glide-grid_1sj0

> <i_i_glide_lignum>
206

> <i_i_glide_rotatable_bonds>
4

> <r_i_docking_score>
-7.39351335468282

> <r_i_glide_ligand_efficiency>
-0.369675667734141

> <r_i_glide_ligand_efficiency_sa>
-1.00345414392201

> <r_i_glide_ligand_efficiency_ln>
-1.85035253828623

> <r_i_glide_gscore>
-7.39351335468282

> <r_i_glide_lipo>
-2.4231639399479

> <r_i_glide_hbond>
0

> <r_i_glide_metal>
0

> <r_i_glide_rewards>
-3.59237422640676

> <r_i_glide_evdw>
-32.5453681945801

> <r_i_glide_ecoul>
-1.07305896282196

> <r_i_glide_erotb>
0.410252065824138

> <r_i_glide_esite>
0

> <r_i_glide_emodel>
-46.8873550906209

> <r_i_glide_energy>
-33.618427157402

> <r_i_glide_einternal>
3.19165921211243

> <i_i_glide_confnum>
4

> <i_i_glide_posenum>
148

> <r_i_glide_eff_state_penalty>
0

> <s_user_duplicate_titles>
CHEMBL206_lig156

> <i_f3d_flags>
0

> <s_m_subgroup_title>
dock_pv

> <s_m_subgroupid>
dock_pv

> <b_m_subgroup_collapsed>
1

$$$$
CHEMBL206_lig160
                    3D
 Schrodinger Suite 2021-1.
 38 40  0  0  1  0            999 V2000
   29.0079    1.6983   27.7539 Cl  0  0  0  0  0  0
   30.8151   -2.0642   26.9851 O   0  0  0  0  0  0
   32.4832   -3.3584   20.8066 O   0  0  0  0  0  0
   31.1033   -0.5177   28.5772 N   0  0  0  0  0  0
   32.9759   -2.5421   26.3152 N   0  0  0  0  0  0
   34.5138    0.0624   29.1091 N   0  0  0  0  0  0
   30.2457   -1.1976   27.8491 C   0  0  0  0  0  0
   32.1353   -1.8471   27.1388 C   0  0  0  0  0  0
   32.2920   -0.9195   28.1594 C   0  0  0  0  0  0
   28.7768   -1.0460   27.7437 C   0  0  0  0  0  0
   28.1400    0.2031   27.6624 C   0  0  0  0  0  0
   32.8063   -2.7459   24.9361 C   0  0  0  0  0  0
   28.0184   -2.2181   27.6388 C   0  0  0  0  0  0
   33.5288   -0.3736   28.6901 C   0  0  0  0  0  0
   26.7631    0.2575   27.4641 C   0  0  0  0  0  0
   31.7454   -2.2200   24.1937 C   0  0  0  0  0  0
   33.7692   -3.5045   24.2863 C   0  0  0  0  0  0
   26.6391   -2.1497   27.4640 C   0  0  0  0  0  0
   26.0127   -0.9112   27.3627 C   0  0  0  0  0  0
   32.6399   -3.2152   22.1708 C   0  0  0  0  0  0
   31.6601   -2.4893   22.8311 C   0  0  0  0  0  0
   33.6933   -3.7417   22.9167 C   0  0  0  0  0  0
   33.4966   -3.9875   20.0228 C   0  0  0  0  0  0
   34.7137   -3.0680   19.8222 C   0  0  0  0  0  0
   33.9208   -2.7214   26.6169 H   0  0  0  0  0  0
   28.4962   -3.1879   27.6783 H   0  0  0  0  0  0
   26.2718    1.2161   27.4004 H   0  0  0  0  0  0
   30.9733   -1.6223   24.6503 H   0  0  0  0  0  0
   34.5807   -3.9263   24.8548 H   0  0  0  0  0  0
   26.0600   -3.0582   27.3755 H   0  0  0  0  0  0
   24.9486   -0.8532   27.1914 H   0  0  0  0  0  0
   30.8197   -2.1420   22.2640 H   0  0  0  0  0  0
   34.4597   -4.3383   22.4484 H   0  0  0  0  0  0
   33.7819   -4.9558   20.4378 H   0  0  0  0  0  0
   33.0565   -4.2075   19.0494 H   0  0  0  0  0  0
   35.4483   -3.5391   19.1685 H   0  0  0  0  0  0
   34.4134   -2.1240   19.3643 H   0  0  0  0  0  0
   35.2129   -2.8345   20.7623 H   0  0  0  0  0  0
  1 11  1  0  0  0
  2  7  1  0  0  0
  2  8  1  0  0  0
  3 20  1  0  0  0
  3 23  1  0  0  0
  4  7  2  0  0  0
  4  9  1  0  0  0
  5  8  1  0  0  0
  5 12  1  0  0  0
  5 25  1  0  0  0
  6 14  3  0  0  0
  7 10  1  0  0  0
  8  9  2  0  0  0
  9 14  1  0  0  0
 10 11  1  0  0  0
 10 13  2  0  0  0
 11 15  2  0  0  0
 12 16  2  0  0  0
 12 17  1  0  0  0
 13 18  1  0  0  0
 13 26  1  0  0  0
 15 19  1  0  0  0
 15 27  1  0  0  0
 16 21  1  0  0  0
 16 28  1  0  0  0
 17 22  2  0  0  0
 17 29  1  0  0  0
 18 19  2  0  0  0
 18 30  1  0  0  0
 19 31  1  0  0  0
 20 21  2  0  0  0
 20 22  1  0  0  0
 21 32  1  0  0  0
 22 33  1  0  0  0
 23 24  1  0  0  0
 23 34  1  0  0  0
 23 35  1  0  0  0
 24 36  1  0  0  0
 24 37  1  0  0  0
 24 38  1  0  0  0
M  END
> <s_m_entry_id>
16888

> <s_m_entry_name>
dock_pv.54

> <s_m_Source_Path>
/home/csk/Desktop/cluster/DUD-E-result/esr1

> <s_m_Source_File>
dock_pv.maegz

> <i_m_Source_File_Index>
54

> <chembl_id>
CHEMBL1404523

> <chembl_pref_name>
None

> <i_lp_mmshare_version>
53161

> <r_lp_tautomer_probability>
1

> <s_lp_Force_Field>
OPLS_2005

> <r_lp_Energy>
22.596718

> <b_lp_Chiralities_Consistent>
1

> <s_lp_Variant>
CHEMBL206_lig160-1

> <s_i_glide_gridfile>
glide-grid_1sj0

> <i_i_glide_lignum>
214

> <i_i_glide_rotatable_bonds>
5

> <r_i_docking_score>
-7.36124466226223

> <r_i_glide_ligand_efficiency>
-0.30671852759426

> <r_i_glide_ligand_efficiency_sa>
-0.884729328319045

> <r_i_glide_ligand_efficiency_ln>
-1.76188363318651

> <r_i_glide_gscore>
-7.36124466226223

> <r_i_glide_lipo>
-3.78824868322426

> <r_i_glide_hbond>
0

> <r_i_glide_metal>
0

> <r_i_glide_rewards>
-2.15917265773504

> <r_i_glide_evdw>
-41.2083549499512

> <r_i_glide_ecoul>
-0.0616915300488472

> <r_i_glide_erotb>
0.655848155701958

> <r_i_glide_esite>
0

> <r_i_glide_emodel>
-55.3205267321595

> <r_i_glide_energy>
-41.27004648

> <r_i_glide_einternal>
5.65612888336182

> <i_i_glide_confnum>
12

> <i_i_glide_posenum>
185

> <r_i_glide_eff_state_penalty>
0

> <s_user_duplicate_titles>
CHEMBL206_lig160

> <i_f3d_flags>
0

> <s_m_subgroup_title>
dock_pv

> <s_m_subgroupid>
dock_pv

> <b_m_subgroup_collapsed>
1

$$$$
CHEMBL206_lig123
                    3D
 Schrodinger Suite 2021-1.
 32 33  0  0  1  0            999 V2000
   25.8875   -0.9012   27.1513 O   0  0  0  0  0  0
   26.8600   -2.8991   26.6640 O   0  0  0  0  0  0
   32.0872    0.3835   28.4849 N   0  0  0  0  0  0
   30.8332   -0.1059   28.0616 C   0  0  0  0  0  0
   30.6833   -1.4338   27.6285 C   0  0  0  0  0  0
   33.1464    0.7648   27.6743 C   0  0  0  0  0  0
   32.4444    0.6049   29.8032 C   0  0  0  0  0  0
   28.2741   -1.0796   27.4140 C   0  0  0  0  0  0
   29.7176    0.7352   28.1391 C   0  0  0  0  0  0
   29.4022   -1.9112   27.3410 C   0  0  0  0  0  0
   34.1971    1.1328   28.4914 C   0  0  0  0  0  0
   33.7487    1.0580   29.8011 C   0  0  0  0  0  0
   28.4524    0.2549   27.8040 C   0  0  0  0  0  0
   26.8964   -1.6000   27.0732 C   0  0  0  0  0  0
   31.8728   -2.3763   27.4750 C   0  0  0  0  0  0
   33.0557    0.7814   26.1726 C   0  0  0  0  0  0
   31.5005    0.3751   30.9618 C   0  0  0  0  0  0
   25.9674   -3.1397   26.3429 H   0  0  0  0  0  0
   29.8260    1.7599   28.4662 H   0  0  0  0  0  0
   29.2938   -2.9482   27.0640 H   0  0  0  0  0  0
   35.1694    1.4789   28.1674 H   0  0  0  0  0  0
   34.3026    1.3798   30.6640 H   0  0  0  0  0  0
   27.6076    0.9280   27.8640 H   0  0  0  0  0  0
   32.3703   -2.5304   28.4332 H   0  0  0  0  0  0
   31.5795   -3.3420   27.0640 H   0  0  0  0  0  0
   32.6143   -1.9629   26.7972 H   0  0  0  0  0  0
   33.7413    1.5080   25.7365 H   0  0  0  0  0  0
   33.2600   -0.1820   25.7159 H   0  0  0  0  0  0
   32.0600    1.0580   25.8640 H   0  0  0  0  0  0
   31.9439    0.7277   31.8878 H   0  0  0  0  0  0
   30.5621    0.9172   30.8450 H   0  0  0  0  0  0
   31.2600   -0.6809   31.0889 H   0  0  0  0  0  0
  1 14  2  0  0  0
  2 14  1  0  0  0
  2 18  1  0  0  0
  3  4  1  0  0  0
  3  6  1  0  0  0
  3  7  1  0  0  0
  4  5  1  0  0  0
  4  9  2  0  0  0
  5 10  2  0  0  0
  5 15  1  0  0  0
  6 11  2  0  0  0
  6 16  1  0  0  0
  7 12  2  0  0  0
  7 17  1  0  0  0
  8 10  1  0  0  0
  8 13  2  0  0  0
  8 14  1  0  0  0
  9 13  1  0  0  0
  9 19  1  0  0  0
 10 20  1  0  0  0
 11 12  1  0  0  0
 11 21  1  0  0  0
 12 22  1  0  0  0
 13 23  1  0  0  0
 15 24  1  0  0  0
 15 25  1  0  0  0
 15 26  1  0  0  0
 16 27  1  0  0  0
 16 28  1  0  0  0
 16 29  1  0  0  0
 17 30  1  0  0  0
 17 31  1  0  0  0
 17 32  1  0  0  0
M  END
> <s_m_entry_id>
16889

> <s_m_entry_name>
dock_pv.55

> <s_m_Source_Path>
/home/csk/Desktop/cluster/DUD-E-result/esr1

> <s_m_Source_File>
dock_pv.maegz

> <i_m_Source_File_Index>
55

> <chembl_id>
CHEMBL1559731

> <chembl_pref_name>
None

> <i_lp_mmshare_version>
53161

> <r_lp_tautomer_probability>
1

> <s_lp_Force_Field>
OPLS_2005

> <r_lp_Energy>
11.207

> <b_lp_Chiralities_Consistent>
1

> <s_lp_Variant>
CHEMBL206_lig123-1

> <s_i_glide_gridfile>
glide-grid_1sj0

> <i_i_glide_lignum>
146

> <i_i_glide_rotatable_bonds>
3

> <r_i_docking_score>
-7.34093270792762

> <r_i_glide_ligand_efficiency>
-0.431819571054566

> <r_i_glide_ligand_efficiency_sa>
-1.11032971248994

> <r_i_glide_ligand_efficiency_ln>
-1.91508586896435

> <r_i_glide_gscore>
-7.34093270792762

> <r_i_glide_lipo>
-3.06965059946769

> <r_i_glide_hbond>
0

> <r_i_glide_metal>
0

> <r_i_glide_rewards>
-2.61331820050459

> <r_i_glide_evdw>
-28.8652496337891

> <r_i_glide_ecoul>
-5.75838661193848

> <r_i_glide_erotb>
0.649056565524888

> <r_i_glide_esite>
0

> <r_i_glide_emodel>
-48.5704087294082

> <r_i_glide_energy>
-34.6236362457275

> <r_i_glide_einternal>
0.41429615020752

> <i_i_glide_confnum>
1

> <i_i_glide_posenum>
276

> <r_i_glide_eff_state_penalty>
0

> <s_user_duplicate_titles>
CHEMBL206_lig123

> <i_f3d_flags>
0

> <s_m_subgroup_title>
dock_pv

> <s_m_subgroupid>
dock_pv

> <b_m_subgroup_collapsed>
1

$$$$
CHEMBL206_lig18
                    3D
 Schrodinger Suite 2021-1.
 31 33  0  0  1  0            999 V2000
   27.4966   -3.2407   27.8793 C   0  0  0  0  0  0
   26.4600   -2.3264   27.7699 C   0  0  0  0  0  0
   26.7390   -0.9858   27.5179 C   0  0  0  0  0  0
   28.8020   -2.8385   27.7628 C   0  0  0  0  0  0
   29.0711   -1.5191   27.4969 C   0  0  0  0  0  0
   28.0695   -0.5482   27.4162 C   0  0  0  0  0  0
   28.4775    0.8768   27.2478 C   0  0  0  0  0  0
   29.9188    1.0599   27.1152 C   0  0  0  0  0  0
   30.7856    0.0222   27.1129 C   0  0  0  0  0  0
   30.3917   -1.2548   27.2949 O   0  0  0  0  0  0
   27.6604    1.7944   27.2211 O   0  0  0  0  0  0
   27.2600   -4.5420   28.1372 O   0  0  0  0  0  0
   25.6786   -0.1421   27.3589 O   0  0  0  0  0  0
   32.2889   -0.0175   26.8140 C   0  0  0  0  0  0
   33.0035    1.3455   26.7945 C   0  0  0  0  0  0
   33.8576    1.7851   27.7438 C   0  0  0  0  0  0
   34.2472    0.9943   28.9095 C   0  0  0  0  0  0
   33.8599   -0.4104   28.8063 C   0  0  0  0  0  0
   33.0150   -0.8797   27.8640 C   0  0  0  0  0  0
   34.8600    1.4580   29.8640 O   0  0  0  0  0  0
   32.4600   -0.6253   25.5524 O   0  0  0  0  0  0
   25.4384   -2.6583   27.8640 H   0  0  0  0  0  0
   29.6058   -3.5423   27.8640 H   0  0  0  0  0  0
   30.2766    2.0515   26.9559 H   0  0  0  0  0  0
   26.3254   -4.7349   28.0347 H   0  0  0  0  0  0
   25.9515    0.7651   27.1775 H   0  0  0  0  0  0
   32.8600    2.0075   25.9586 H   0  0  0  0  0  0
   34.3186    2.7494   27.6043 H   0  0  0  0  0  0
   34.2953   -1.1200   29.4926 H   0  0  0  0  0  0
   32.8016   -1.9391   27.8903 H   0  0  0  0  0  0
   32.0292   -1.4831   25.5774 H   0  0  0  0  0  0
  1 12  1  0  0  0
  1  2  2  0  0  0
  1  4  1  0  0  0
  2  3  1  0  0  0
  2 22  1  0  0  0
  3 13  1  0  0  0
  3  6  2  0  0  0
  4  5  2  0  0  0
  4 23  1  0  0  0
  5  6  1  0  0  0
  5 10  1  0  0  0
  6  7  1  0  0  0
  7 11  2  0  0  0
  7  8  1  0  0  0
  8  9  2  0  0  0
  8 24  1  0  0  0
  9 10  1  0  0  0
  9 14  1  0  0  0
 12 25  1  0  0  0
 13 26  1  0  0  0
 14 15  1  0  0  0
 14 19  1  0  0  0
 14 21  1  0  0  0
 15 16  2  0  0  0
 15 27  1  0  0  0
 16 17  1  0  0  0
 16 28  1  0  0  0
 17 18  1  0  0  0
 17 20  2  0  0  0
 18 19  2  0  0  0
 18 29  1  0  0  0
 19 30  1  0  0  0
 21 31  1  0  0  0
M  END
> <s_m_entry_id>
16890

> <s_m_entry_name>
dock_pv.56

> <s_m_Source_Path>
/home/csk/Desktop/cluster/DUD-E-result/esr1

> <s_m_Source_File>
dock_pv.maegz

> <i_m_Source_File_Index>
56

> <chembl_id>
CHEMBL414890

> <chembl_pref_name>
PROTOAPIGENONE

> <i_lp_mmshare_version>
53161

> <r_lp_tautomer_probability>
1

> <s_lp_Force_Field>
OPLS_2005

> <r_lp_Energy>
-4.174448

> <b_lp_Chiralities_Consistent>
1

> <s_lp_Variant>
CHEMBL206_lig18-1

> <s_i_glide_gridfile>
glide-grid_1sj0

> <i_i_glide_lignum>
25

> <i_i_glide_rotatable_bonds>
4

> <r_i_docking_score>
-7.33743185330995

> <r_i_glide_ligand_efficiency>
-0.349401516824283

> <r_i_glide_ligand_efficiency_sa>
-0.963972291052472

> <r_i_glide_ligand_efficiency_ln>
-1.81416519905377

> <r_i_glide_gscore>
-7.33743185330995

> <r_i_glide_lipo>
-3.32221721464637

> <r_i_glide_hbond>
0

> <r_i_glide_metal>
0

> <r_i_glide_rewards>
-2.28615999125208

> <r_i_glide_evdw>
-35.1863670349121

> <r_i_glide_ecoul>
-1.27563834190369

> <r_i_glide_erotb>
0.22160945561966

> <r_i_glide_esite>
0

> <r_i_glide_emodel>
-43.2993355735945

> <r_i_glide_energy>
-36.4620053768158

> <r_i_glide_einternal>
2.43706965446472

> <i_i_glide_confnum>
3

> <i_i_glide_posenum>
175

> <r_i_glide_eff_state_penalty>
0

> <s_user_duplicate_titles>
CHEMBL206_lig18

> <i_f3d_flags>
0

> <s_m_subgroup_title>
dock_pv

> <s_m_subgroupid>
dock_pv

> <b_m_subgroup_collapsed>
1

$$$$
CHEMBL206_lig209
                    3D
 Schrodinger Suite 2021-1.
 31 32  0  0  1  0            999 V2000
   32.2105   -1.2201   28.0600 S   0  0  0  0  0  0
   32.2759   -2.9417   21.9591 S   0  0  0  0  0  0
   27.6589    1.8236   27.3626 F   0  0  0  0  0  0
   33.2051   -2.0183   28.7845 O   0  0  0  0  0  0
   32.2460    0.2463   28.0897 O   0  0  0  0  0  0
   30.6305   -1.7421   28.6599 N   0  0  0  0  0  0
   32.2480   -1.7389   26.3493 C   0  0  0  0  0  0
   29.4341   -1.2839   28.0996 C   0  0  0  0  0  0
   31.6611   -0.9225   25.3844 C   0  0  0  0  0  0
   32.8597   -2.9390   25.9803 C   0  0  0  0  0  0
   32.3040   -2.4981   23.6737 C   0  0  0  0  0  0
   31.6891   -1.3078   24.0500 C   0  0  0  0  0  0
   32.9100   -3.3064   24.6368 C   0  0  0  0  0  0
   29.1477    0.0809   27.9890 C   0  0  0  0  0  0
   28.4861   -2.2230   27.6815 C   0  0  0  0  0  0
   27.9264    0.5014   27.4646 C   0  0  0  0  0  0
   27.2606   -1.8036   27.1613 C   0  0  0  0  0  0
   26.9789   -0.4408   27.0642 C   0  0  0  0  0  0
   33.0606   -4.5454   21.7257 C   0  0  0  0  0  0
   30.6344   -2.7039   28.9587 H   0  0  0  0  0  0
   31.1885    0.0086   25.6633 H   0  0  0  0  0  0
   33.3081   -3.5773   26.7270 H   0  0  0  0  0  0
   31.2571   -0.6614   23.3049 H   0  0  0  0  0  0
   33.4185   -4.2135   24.3568 H   0  0  0  0  0  0
   29.8563    0.8238   28.3214 H   0  0  0  0  0  0
   28.6948   -3.2813   27.7531 H   0  0  0  0  0  0
   26.5298   -2.5317   26.8335 H   0  0  0  0  0  0
   26.0292   -0.1135   26.6665 H   0  0  0  0  0  0
   33.1215   -4.7816   20.6630 H   0  0  0  0  0  0
   32.4605   -5.3189   22.2073 H   0  0  0  0  0  0
   34.0711   -4.5420   22.1334 H   0  0  0  0  0  0
  1  4  2  0  0  0
  1  5  2  0  0  0
  1  6  1  0  0  0
  1  7  1  0  0  0
  2 11  1  0  0  0
  2 19  1  0  0  0
  3 16  1  0  0  0
  6  8  1  0  0  0
  6 20  1  0  0  0
  7  9  2  0  0  0
  7 10  1  0  0  0
  8 14  1  0  0  0
  8 15  2  0  0  0
  9 12  1  0  0  0
  9 21  1  0  0  0
 10 13  2  0  0  0
 10 22  1  0  0  0
 11 12  2  0  0  0
 11 13  1  0  0  0
 12 23  1  0  0  0
 13 24  1  0  0  0
 14 16  2  0  0  0
 14 25  1  0  0  0
 15 17  1  0  0  0
 15 26  1  0  0  0
 16 18  1  0  0  0
 17 18  2  0  0  0
 17 27  1  0  0  0
 18 28  1  0  0  0
 19 29  1  0  0  0
 19 30  1  0  0  0
 19 31  1  0  0  0
M  END
> <s_m_entry_id>
16891

> <s_m_entry_name>
dock_pv.57

> <s_m_Source_Path>
/home/csk/Desktop/cluster/DUD-E-result/esr1

> <s_m_Source_File>
dock_pv.maegz

> <i_m_Source_File_Index>
57

> <chembl_id>
CHEMBL1485005

> <chembl_pref_name>
None

> <i_lp_mmshare_version>
53161

> <r_lp_tautomer_probability>
1

> <s_lp_Force_Field>
OPLS_2005

> <r_lp_Energy>
8.207635

> <b_lp_Chiralities_Consistent>
1

> <s_lp_Variant>
CHEMBL206_lig209-1

> <s_i_glide_gridfile>
glide-grid_1sj0

> <i_i_glide_lignum>
278

> <i_i_glide_rotatable_bonds>
4

> <r_i_docking_score>
-7.28930935467427

> <r_i_glide_ligand_efficiency>
-0.38364786077233

> <r_i_glide_ligand_efficiency_sa>
-1.02372658320877

> <r_i_glide_ligand_efficiency_ln>
-1.84799648141969

> <r_i_glide_gscore>
-7.28930935467427

> <r_i_glide_lipo>
-3.25110903840851

> <r_i_glide_hbond>
0

> <r_i_glide_metal>
0

> <r_i_glide_rewards>
-2.47617403780644

> <r_i_glide_evdw>
-38.5149345397949

> <r_i_glide_ecoul>
-1.72190189361572

> <r_i_glide_erotb>
0.622005732572789

> <r_i_glide_esite>
0

> <r_i_glide_emodel>
-57.1581389710206

> <r_i_glide_energy>
-40.2368364334106

> <r_i_glide_einternal>
1.73896431922913

> <i_i_glide_confnum>
1

> <i_i_glide_posenum>
151

> <r_i_glide_eff_state_penalty>
0

> <s_user_duplicate_titles>
CHEMBL206_lig209

> <i_f3d_flags>
0

> <s_m_subgroup_title>
dock_pv

> <s_m_subgroupid>
dock_pv

> <b_m_subgroup_collapsed>
1

$$$$
CHEMBL206_lig321
                    3D
 Schrodinger Suite 2021-1.
 40 42  0  0  1  0            999 V2000
   33.1744    0.4532   27.4207 S   0  0  0  0  0  0
   32.5408   -0.5424   31.0675 O   0  0  0  0  0  0
   26.4423   -0.1210   27.0646 O   0  0  0  0  0  0
   33.0602   -1.5844   29.0762 N   0  0  0  0  0  0
   33.2570   -2.2868   26.9153 N   0  0  0  0  0  0
   32.0178   -1.3452   25.0967 N   0  0  0  0  0  0
   32.7743    0.8193   29.1204 C   0  0  2  0  0  0
   33.1735   -1.2849   27.8621 C   0  0  0  0  0  0
   32.7952   -0.4995   29.8723 C   0  0  0  0  0  0
   31.4273    1.5625   29.2888 C   0  0  0  0  0  0
   30.1520    0.9987   28.6347 C   0  0  0  0  0  0
   32.8528   -2.3079   25.5729 C   0  0  0  0  0  0
   29.9467   -0.3352   28.2516 C   0  0  0  0  0  0
   29.1236    1.9031   28.4307 C   0  0  0  0  0  0
   27.7097    0.1822   27.5073 C   0  0  0  0  0  0
   28.7529   -0.7358   27.6629 C   0  0  0  0  0  0
   27.9214    1.5070   27.8634 C   0  0  0  0  0  0
   33.3237   -3.3418   24.7589 C   0  0  0  0  0  0
   31.6412   -1.4038   23.7991 C   0  0  0  0  0  0
   32.9258   -3.3894   23.4226 C   0  0  0  0  0  0
   32.0637   -2.4117   22.9323 C   0  0  0  0  0  0
   26.1051   -1.4416   26.6631 C   0  0  0  0  0  0
   25.9904   -2.4252   27.8438 C   0  0  0  0  0  0
   33.6623   -3.1493   27.2380 H   0  0  0  0  0  0
   33.5894    1.4191   29.5247 H   0  0  0  0  0  0
   31.5870    2.5636   28.8866 H   0  0  0  0  0  0
   31.2162    1.7145   30.3493 H   0  0  0  0  0  0
   30.6690   -1.1085   28.4067 H   0  0  0  0  0  0
   29.2609    2.9261   28.7425 H   0  0  0  0  0  0
   28.6541   -1.7672   27.3637 H   0  0  0  0  0  0
   27.1281    2.2249   27.7400 H   0  0  0  0  0  0
   33.9853   -4.1041   25.1422 H   0  0  0  0  0  0
   30.9736   -0.6240   23.4649 H   0  0  0  0  0  0
   33.2718   -4.1833   22.7758 H   0  0  0  0  0  0
   31.7331   -2.4387   21.9039 H   0  0  0  0  0  0
   26.7974   -1.8090   25.9033 H   0  0  0  0  0  0
   25.1368   -1.3425   26.1709 H   0  0  0  0  0  0
   25.6603   -3.4004   27.4877 H   0  0  0  0  0  0
   25.2779   -2.0713   28.5878 H   0  0  0  0  0  0
   26.9415   -2.6001   28.3338 H   0  0  0  0  0  0
  1  7  1  0  0  0
  1  8  1  0  0  0
  2  9  2  0  0  0
  3 15  1  0  0  0
  3 22  1  0  0  0
  4  8  2  0  0  0
  4  9  1  0  0  0
  5  8  1  0  0  0
  5 12  1  0  0  0
  5 24  1  0  0  0
  6 12  1  0  0  0
  6 19  2  0  0  0
  7  9  1  0  0  0
  7 10  1  0  0  0
  7 25  1  0  0  0
 10 11  1  0  0  0
 10 26  1  0  0  0
 10 27  1  0  0  0
 11 13  2  0  0  0
 11 14  1  0  0  0
 12 18  2  0  0  0
 13 16  1  0  0  0
 13 28  1  0  0  0
 14 17  2  0  0  0
 14 29  1  0  0  0
 15 16  2  0  0  0
 15 17  1  0  0  0
 16 30  1  0  0  0
 17 31  1  0  0  0
 18 20  1  0  0  0
 18 32  1  0  0  0
 19 21  1  0  0  0
 19 33  1  0  0  0
 20 21  2  0  0  0
 20 34  1  0  0  0
 21 35  1  0  0  0
 22 23  1  0  0  0
 22 36  1  0  0  0
 22 37  1  0  0  0
 23 38  1  0  0  0
 23 39  1  0  0  0
 23 40  1  0  0  0
M  END
> <s_m_entry_id>
16892

> <s_m_entry_name>
dock_pv.58

> <s_m_Source_Path>
/home/csk/Desktop/cluster/DUD-E-result/esr1

> <s_m_Source_File>
dock_pv.maegz

> <i_m_Source_File_Index>
58

> <chembl_id>
CHEMBL1550695

> <chembl_pref_name>
None

> <i_lp_mmshare_version>
53161

> <r_lp_tautomer_probability>
0.963993571743684

> <s_lp_Force_Field>
OPLS_2005

> <r_lp_Energy>
14.658811

> <b_lp_Chiralities_Consistent>
1

> <s_lp_Variant>
CHEMBL206_lig321-1

> <s_i_glide_gridfile>
glide-grid_1sj0

> <i_i_glide_lignum>
408

> <i_i_glide_rotatable_bonds>
6

> <r_i_docking_score>
-7.2774642287947

> <r_i_glide_ligand_efficiency>
-0.316411488208465

> <r_i_glide_ligand_efficiency_sa>
-0.899832182421275

> <r_i_glide_ligand_efficiency_ln>
-1.75975683891983

> <r_i_glide_gscore>
-7.2774642287947

> <r_i_glide_lipo>
-3.85246437124303

> <r_i_glide_hbond>
0

> <r_i_glide_metal>
0

> <r_i_glide_rewards>
-2.37158775358728

> <r_i_glide_evdw>
-38.3202514648438

> <r_i_glide_ecoul>
-0.0854939296841621

> <r_i_glide_erotb>
0.875424558730424

> <r_i_glide_esite>
0

> <r_i_glide_emodel>
-49.2893889201657

> <r_i_glide_energy>
-38.4057453945279

> <r_i_glide_einternal>
10.4403047561646

> <i_i_glide_confnum>
15

> <i_i_glide_posenum>
392

> <r_i_glide_eff_state_penalty>
0

> <s_user_duplicate_titles>
CHEMBL206_lig321

> <i_f3d_flags>
0

> <s_m_subgroup_title>
dock_pv

> <s_m_subgroupid>
dock_pv

> <b_m_subgroup_collapsed>
1

$$$$
CHEMBL206_lig112
                    3D
 Schrodinger Suite 2021-1.
 31 32  0  0  1  0            999 V2000
   32.3311   -0.2179   28.0266 S   0  0  0  0  0  0
   28.5447   -1.0579   27.9399 O   0  0  0  0  0  0
   32.2758    1.1919   27.6160 O   0  0  0  0  0  0
   33.4512   -0.7123   28.8345 O   0  0  0  0  0  0
   25.2455   -0.5584   26.7223 O   0  0  0  0  0  0
   26.4603   -2.4703   27.0640 O   0  0  0  0  0  0
   32.2623   -1.2134   26.5442 C   0  0  0  0  0  0
   29.4831   -0.1307   28.2639 C   0  0  0  0  0  0
   30.7402   -0.6427   28.9262 C   0  0  0  0  0  0
   27.4588   -0.3918   27.4610 C   0  0  0  0  0  0
   29.0050    1.1363   27.9689 C   0  0  0  0  0  0
   27.7157    0.9743   27.4639 C   0  0  0  0  0  0
   32.8602   -2.4731   26.5283 C   0  0  0  0  0  0
   31.6583   -0.7061   25.3934 C   0  0  0  0  0  0
   26.2861   -1.1165   27.0637 C   0  0  0  0  0  0
   32.3524   -2.6720   24.1768 C   0  0  0  0  0  0
   32.9203   -3.1924   25.3398 C   0  0  0  0  0  0
   31.7035   -1.4371   24.2096 C   0  0  0  0  0  0
   32.4170   -3.4584   22.8794 C   0  0  0  0  0  0
   25.7414   -2.9135   26.5761 H   0  0  0  0  0  0
   30.8600   -0.2267   29.9233 H   0  0  0  0  0  0
   30.7293   -1.7259   29.0325 H   0  0  0  0  0  0
   29.5274    2.0694   28.1269 H   0  0  0  0  0  0
   27.0390    1.7528   27.1424 H   0  0  0  0  0  0
   33.3186   -2.8757   27.4199 H   0  0  0  0  0  0
   31.1740    0.2580   25.4106 H   0  0  0  0  0  0
   33.4296   -4.1424   25.3207 H   0  0  0  0  0  0
   31.2586   -1.0321   23.3160 H   0  0  0  0  0  0
   32.4302   -4.5338   23.0633 H   0  0  0  0  0  0
   31.5407   -3.2661   22.2590 H   0  0  0  0  0  0
   33.3099   -3.1935   22.3128 H   0  0  0  0  0  0
  1  3  2  0  0  0
  1  4  2  0  0  0
  1  7  1  0  0  0
  1  9  1  0  0  0
  2  8  1  0  0  0
  2 10  1  0  0  0
  5 15  2  0  0  0
  6 15  1  0  0  0
  6 20  1  0  0  0
  7 13  2  0  0  0
  7 14  1  0  0  0
  8  9  1  0  0  0
  8 11  2  0  0  0
  9 21  1  0  0  0
  9 22  1  0  0  0
 10 12  2  0  0  0
 10 15  1  0  0  0
 11 12  1  0  0  0
 11 23  1  0  0  0
 12 24  1  0  0  0
 13 17  1  0  0  0
 13 25  1  0  0  0
 14 18  2  0  0  0
 14 26  1  0  0  0
 16 17  2  0  0  0
 16 18  1  0  0  0
 16 19  1  0  0  0
 17 27  1  0  0  0
 18 28  1  0  0  0
 19 29  1  0  0  0
 19 30  1  0  0  0
 19 31  1  0  0  0
M  END
> <s_m_entry_id>
16893

> <s_m_entry_name>
dock_pv.59

> <s_m_Source_Path>
/home/csk/Desktop/cluster/DUD-E-result/esr1

> <s_m_Source_File>
dock_pv.maegz

> <i_m_Source_File_Index>
59

> <chembl_id>
CHEMBL1580036

> <chembl_pref_name>
None

> <i_lp_mmshare_version>
53161

> <r_lp_tautomer_probability>
1

> <s_lp_Force_Field>
OPLS_2005

> <r_lp_Energy>
4.572246

> <b_lp_Chiralities_Consistent>
1

> <s_lp_Variant>
CHEMBL206_lig112-1

> <s_i_glide_gridfile>
glide-grid_1sj0

> <i_i_glide_lignum>
134

> <i_i_glide_rotatable_bonds>
5

> <r_i_docking_score>
-7.26601305167229

> <r_i_glide_ligand_efficiency>
-0.3824217395617

> <r_i_glide_ligand_efficiency_sa>
-1.020454799352

> <r_i_glide_ligand_efficiency_ln>
-1.84209036824998

> <r_i_glide_gscore>
-7.26601305167229

> <r_i_glide_lipo>
-3.31964346204198

> <r_i_glide_hbond>
0

> <r_i_glide_metal>
0

> <r_i_glide_rewards>
-2.44508872209839

> <r_i_glide_evdw>
-36.3909301757812

> <r_i_glide_ecoul>
-4.00726890563965

> <r_i_glide_erotb>
0.919355977103082

> <r_i_glide_esite>
0

> <r_i_glide_emodel>
-56.6520501839163

> <r_i_glide_energy>
-40.3981990814209

> <r_i_glide_einternal>
5.43665504455566

> <i_i_glide_confnum>
23

> <i_i_glide_posenum>
385

> <r_i_glide_eff_state_penalty>
0

> <s_user_duplicate_titles>
CHEMBL206_lig112

> <i_f3d_flags>
0

> <s_m_subgroup_title>
dock_pv

> <s_m_subgroupid>
dock_pv

> <b_m_subgroup_collapsed>
1

$$$$
CHEMBL206_lig203
                    3D
 Schrodinger Suite 2021-1.
 35 36  0  0  1  0            999 V2000
   24.8600   -0.9419   26.6650 Cl  0  0  0  0  0  0
   31.3111    0.0978   27.8972 S   0  0  0  0  0  0
   31.7920   -0.3277   29.2137 O   0  0  0  0  0  0
   32.0621    1.2226   27.3301 O   0  0  0  0  0  0
   25.7430   -3.5224   28.2626 O   0  0  0  0  0  0
   29.5589    0.2818   27.8141 N   0  0  0  0  0  0
   31.6962   -1.2343   26.6622 C   0  0  0  0  0  0
   31.1684   -1.1843   25.3449 C   0  0  0  0  0  0
   32.6066   -2.2832   26.9494 C   0  0  0  0  0  0
   28.7534   -0.6956   27.8077 C   0  0  0  0  0  0
   31.6598   -2.0176   24.3408 C   0  0  0  0  0  0
   33.0039   -3.1655   25.9380 C   0  0  0  0  0  0
   32.5912   -2.9964   24.6239 C   0  0  0  0  0  0
   27.3902   -0.4464   27.4221 C   0  0  0  0  0  0
   26.4145   -1.3812   27.3741 C   0  0  0  0  0  0
   29.0174   -2.1053   28.0421 C   0  0  0  0  0  0
   26.6253   -2.7630   27.8640 C   0  0  0  0  0  0
   28.0600   -3.0682   28.0289 C   0  0  0  0  0  0
   30.0320   -0.2854   24.9196 C   0  0  0  0  0  0
   33.2028   -2.5323   28.3259 C   0  0  0  0  0  0
   33.1242   -3.8739   23.5062 C   0  0  0  0  0  0
   31.2857   -1.9350   23.3299 H   0  0  0  0  0  0
   33.6598   -3.9879   26.1660 H   0  0  0  0  0  0
   27.1330    0.5371   27.0533 H   0  0  0  0  0  0
   30.0235   -2.4448   28.2298 H   0  0  0  0  0  0
   28.3593   -4.0943   28.1905 H   0  0  0  0  0  0
   29.0806   -0.7756   25.1128 H   0  0  0  0  0  0
   30.0570    0.6581   25.4504 H   0  0  0  0  0  0
   30.0602   -0.1015   23.8504 H   0  0  0  0  0  0
   32.4172   -2.5420   29.0711 H   0  0  0  0  0  0
   33.6797   -3.5079   28.4034 H   0  0  0  0  0  0
   33.9128   -1.7520   28.6039 H   0  0  0  0  0  0
   33.9084   -4.5413   23.8592 H   0  0  0  0  0  0
   33.5451   -3.2548   22.7130 H   0  0  0  0  0  0
   32.3237   -4.4683   23.0624 H   0  0  0  0  0  0
  1 15  1  0  0  0
  2  3  2  0  0  0
  2  4  2  0  0  0
  2  6  1  0  0  0
  2  7  1  0  0  0
  5 17  2  0  0  0
  6 10  2  0  0  0
  7  8  2  0  0  0
  7  9  1  0  0  0
  8 11  1  0  0  0
  8 19  1  0  0  0
  9 12  2  0  0  0
  9 20  1  0  0  0
 10 14  1  0  0  0
 10 16  1  0  0  0
 11 13  2  0  0  0
 11 22  1  0  0  0
 12 13  1  0  0  0
 12 23  1  0  0  0
 13 21  1  0  0  0
 14 15  2  0  0  0
 14 24  1  0  0  0
 15 17  1  0  0  0
 16 18  2  0  0  0
 16 25  1  0  0  0
 17 18  1  0  0  0
 18 26  1  0  0  0
 19 27  1  0  0  0
 19 28  1  0  0  0
 19 29  1  0  0  0
 20 30  1  0  0  0
 20 31  1  0  0  0
 20 32  1  0  0  0
 21 33  1  0  0  0
 21 34  1  0  0  0
 21 35  1  0  0  0
M  END
> <s_m_entry_id>
16894

> <s_m_entry_name>
dock_pv.60

> <s_m_Source_Path>
/home/csk/Desktop/cluster/DUD-E-result/esr1

> <s_m_Source_File>
dock_pv.maegz

> <i_m_Source_File_Index>
60

> <chembl_id>
CHEMBL3199523

> <chembl_pref_name>
None

> <i_lp_mmshare_version>
53161

> <r_lp_tautomer_probability>
1

> <s_lp_Force_Field>
OPLS_2005

> <r_lp_Energy>
18.224853

> <b_lp_Chiralities_Consistent>
1

> <s_lp_Variant>
CHEMBL206_lig203-1

> <s_i_glide_gridfile>
glide-grid_1sj0

> <i_i_glide_lignum>
269

> <i_i_glide_rotatable_bonds>
2

> <r_i_docking_score>
-7.25847098387919

> <r_i_glide_ligand_efficiency>
-0.345641475422819

> <r_i_glide_ligand_efficiency_sa>
-0.953598621936304

> <r_i_glide_ligand_efficiency_ln>
-1.79464228364247

> <r_i_glide_gscore>
-7.25847098387919

> <r_i_glide_lipo>
-3.20990416056115

> <r_i_glide_hbond>
0

> <r_i_glide_metal>
0

> <r_i_glide_rewards>
-2.28501224352049

> <r_i_glide_evdw>
-40.6356468200684

> <r_i_glide_ecoul>
-0.225995600223541

> <r_i_glide_erotb>
0.357083265883806

> <r_i_glide_esite>
-0.0549561646444128

> <r_i_glide_emodel>
-50.7325744786557

> <r_i_glide_energy>
-40.8616424202919

> <r_i_glide_einternal>
5.94823884963989

> <i_i_glide_confnum>
4

> <i_i_glide_posenum>
146

> <r_i_glide_eff_state_penalty>
0

> <s_user_duplicate_titles>
CHEMBL206_lig203

> <i_f3d_flags>
0

> <s_m_subgroup_title>
dock_pv

> <s_m_subgroupid>
dock_pv

> <b_m_subgroup_collapsed>
1

$$$$
CHEMBL206_lig325
                    3D
 Schrodinger Suite 2021-1.
 57 60  0  0  1  0            999 V2000
   33.6515   -3.1540   20.3790 C   0  0  0  0  0  0
   32.5964   -2.9420   19.4713 C   0  0  0  0  0  0
   32.8008   -2.2888   18.2633 C   0  0  0  0  0  0
   34.0613   -1.8398   17.9018 C   0  0  0  0  0  0
   35.1562   -2.0206   18.7724 C   0  0  0  0  0  0
   36.4481   -1.5710   18.3997 C   0  0  0  0  0  0
   37.5279   -1.7419   19.2566 C   0  0  0  0  0  0
   37.3447   -2.3267   20.5009 C   0  0  0  0  0  0
   36.0890   -2.7812   20.8948 C   0  0  0  0  0  0
   34.9603   -2.6651   20.0388 C   0  0  0  0  0  0
   31.3159   -3.3422   19.7390 O   0  0  0  0  0  0
   33.4282   -3.9509   21.6914 C   0  0  0  0  0  0
   33.0225   -3.1352   22.9263 C   0  0  0  0  0  0
   33.5757   -3.3625   24.1900 C   0  0  0  0  0  0
   33.1889   -2.5869   25.2849 C   0  0  0  0  0  0
   32.2649   -1.5449   25.1166 C   0  0  0  0  0  0
   31.6956   -1.3418   23.8651 C   0  0  0  0  0  0
   32.0654   -2.1420   22.7914 C   0  0  0  0  0  0
   31.9152   -0.6361   26.0954 O   0  0  0  0  0  0
   32.0009   -0.9843   27.4776 C   0  0  0  0  0  0
   30.9107   -1.9994   27.8920 C   0  0  0  0  0  0
   29.5586   -1.6482   27.4393 N   0  0  1  0  0  0
   28.6253   -2.7719   27.6067 C   0  0  0  0  0  0
   27.2600   -2.4531   26.9724 C   0  0  0  0  0  0
   27.6676   -0.0331   27.3407 C   0  0  0  0  0  0
   29.0455   -0.3658   27.9559 C   0  0  0  0  0  0
   26.6561   -1.1706   27.5674 C   0  0  0  0  0  0
   25.2758   -0.8720   26.9640 C   0  0  0  0  0  0
   31.9704   -2.1304   17.5908 H   0  0  0  0  0  0
   34.2056   -1.3408   16.9542 H   0  0  0  0  0  0
   36.5921   -1.0945   17.4399 H   0  0  0  0  0  0
   38.5089   -1.3930   18.9665 H   0  0  0  0  0  0
   38.1955   -2.4236   21.1592 H   0  0  0  0  0  0
   35.9843   -3.2280   21.8700 H   0  0  0  0  0  0
   31.2582   -4.3068   19.8641 H   0  0  0  0  0  0
   34.3013   -4.5646   21.9081 H   0  0  0  0  0  0
   32.6365   -4.6835   21.5261 H   0  0  0  0  0  0
   34.3023   -4.1427   24.3386 H   0  0  0  0  0  0
   33.6534   -2.7751   26.2389 H   0  0  0  0  0  0
   30.9832   -0.5425   23.7251 H   0  0  0  0  0  0
   31.6600   -1.9625   21.8174 H   0  0  0  0  0  0
   31.8857   -0.0648   28.0531 H   0  0  0  0  0  0
   32.9938   -1.3479   27.7408 H   0  0  0  0  0  0
   30.9161   -2.1311   28.9749 H   0  0  0  0  0  0
   31.1841   -2.9596   27.4613 H   0  0  0  0  0  0
   28.5282   -3.0228   28.6634 H   0  0  0  0  0  0
   29.0293   -3.6585   27.1188 H   0  0  0  0  0  0
   26.5757   -3.2877   27.1265 H   0  0  0  0  0  0
   27.3468   -2.3852   25.8863 H   0  0  0  0  0  0
   27.7855    0.1875   26.2786 H   0  0  0  0  0  0
   27.2769    0.8942   27.7603 H   0  0  0  0  0  0
   29.0041   -0.3944   29.0485 H   0  0  0  0  0  0
   29.7381    0.4348   27.6985 H   0  0  0  0  0  0
   26.5462   -1.3174   28.6431 H   0  0  0  0  0  0
   25.3273   -0.6410   25.9007 H   0  0  0  0  0  0
   24.7831   -0.0417   27.4633 H   0  0  0  0  0  0
   24.6342   -1.7420   27.0612 H   0  0  0  0  0  0
  1 10  2  0  0  0
  1 12  1  0  0  0
  1  2  1  0  0  0
  2 11  1  0  0  0
  2  3  2  0  0  0
  3  4  1  0  0  0
  3 29  1  0  0  0
  4  5  2  0  0  0
  4 30  1  0  0  0
  5  6  1  0  0  0
  5 10  1  0  0  0
  6  7  2  0  0  0
  6 31  1  0  0  0
  7  8  1  0  0  0
  7 32  1  0  0  0
  8  9  2  0  0  0
  8 33  1  0  0  0
  9 10  1  0  0  0
  9 34  1  0  0  0
 11 35  1  0  0  0
 12 13  1  0  0  0
 12 36  1  0  0  0
 12 37  1  0  0  0
 13 14  1  0  0  0
 13 18  2  0  0  0
 14 15  2  0  0  0
 14 38  1  0  0  0
 15 16  1  0  0  0
 15 39  1  0  0  0
 16 17  2  0  0  0
 16 19  1  0  0  0
 17 18  1  0  0  0
 17 40  1  0  0  0
 18 41  1  0  0  0
 19 20  1  0  0  0
 20 21  1  0  0  0
 20 42  1  0  0  0
 20 43  1  0  0  0
 21 22  1  0  0  0
 21 44  1  0  0  0
 21 45  1  0  0  0
 22 23  1  0  0  0
 22 26  1  0  0  0
 23 24  1  0  0  0
 23 46  1  0  0  0
 23 47  1  0  0  0
 24 27  1  0  0  0
 24 48  1  0  0  0
 24 49  1  0  0  0
 25 27  1  0  0  0
 25 26  1  0  0  0
 25 50  1  0  0  0
 25 51  1  0  0  0
 26 52  1  0  0  0
 26 53  1  0  0  0
 27 28  1  0  0  0
 27 54  1  0  0  0
 28 55  1  0  0  0
 28 56  1  0  0  0
 28 57  1  0  0  0
M  END
> <s_m_entry_id>
16895

> <s_m_entry_name>
dock_pv.61

> <s_m_Source_Path>
/home/csk/Desktop/cluster/DUD-E-result/esr1

> <s_m_Source_File>
dock_pv.maegz

> <i_m_Source_File_Index>
61

> <chembl_id>
CHEMBL1823997

> <chembl_pref_name>
None

> <i_lp_mmshare_version>
53161

> <r_lp_tautomer_probability>
1

> <s_lp_Force_Field>
OPLS_2005

> <r_lp_Energy>
33.100752

> <b_lp_Chiralities_Consistent>
1

> <s_lp_Variant>
CHEMBL206_lig325-1

> <s_i_glide_gridfile>
glide-grid_1sj0

> <i_i_glide_lignum>
417

> <i_i_glide_rotatable_bonds>
7

> <r_i_docking_score>
-7.21235454630047

> <r_i_glide_ligand_efficiency>
-0.257584090939302

> <r_i_glide_ligand_efficiency_sa>
-0.782177009008112

> <r_i_glide_ligand_efficiency_ln>
-1.66482319321734

> <r_i_glide_gscore>
-7.21235454630047

> <r_i_glide_lipo>
-4.24019924840022

> <r_i_glide_hbond>
-0.16

> <r_i_glide_metal>
0

> <r_i_glide_rewards>
-1.04657323568106

> <r_i_glide_evdw>
-39.9293594360352

> <r_i_glide_ecoul>
-3.94932627677917

> <r_i_glide_erotb>
0.823284851099449

> <r_i_glide_esite>
0

> <r_i_glide_emodel>
-58.7327982430494

> <r_i_glide_energy>
-43.8786857128143

> <r_i_glide_einternal>
7.52238607406616

> <i_i_glide_confnum>
80

> <i_i_glide_posenum>
360

> <r_i_glide_eff_state_penalty>
0

> <s_user_duplicate_titles>
CHEMBL206_lig325

> <i_f3d_flags>
0

> <s_m_subgroup_title>
dock_pv

> <s_m_subgroupid>
dock_pv

> <b_m_subgroup_collapsed>
1

$$$$
CHEMBL206_lig281
                    3D
 Schrodinger Suite 2021-1.
 34 36  0  0  1  0            999 V2000
   33.9041    0.8758   29.6990 S   0  0  0  0  0  0
   29.0621    2.0239   29.0628 O   0  0  0  0  0  0
   30.8041   -0.9589   26.0471 N   0  0  0  0  0  0
   32.3852   -0.1030   27.7259 N   0  0  0  0  0  0
   29.4678   -0.8275   25.8354 N   0  0  0  0  0  0
   31.3559    1.4078   29.3229 N   0  0  0  0  0  0
   31.1783   -0.2271   27.1648 C   0  0  0  0  0  0
   30.0135    0.4469   27.6021 C   0  0  0  0  0  0
   30.1587    1.3087   28.6992 C   0  0  0  0  0  0
   31.5876   -1.7492   25.1688 C   0  0  0  0  0  0
   28.9881    0.0075   26.7180 C   0  0  0  0  0  0
   32.3953    0.7061   28.8167 C   0  0  0  0  0  0
   31.2707   -1.7403   23.8107 C   0  0  0  0  0  0
   32.7221   -2.4466   25.6048 C   0  0  0  0  0  0
   32.0600   -2.4160   22.8912 C   0  0  0  0  0  0
   33.5235   -3.1199   24.6791 C   0  0  0  0  0  0
   33.2008   -3.0847   23.3182 C   0  0  0  0  0  0
   35.2297    0.3502   28.5888 C   0  0  0  0  0  0
   34.0799   -3.7621   22.2856 C   0  0  0  0  0  0
   35.6595    1.4536   27.6130 C   0  0  0  0  0  0
   28.3052    1.8288   28.5075 H   0  0  0  0  0  0
   27.9391    0.2724   26.7086 H   0  0  0  0  0  0
   30.4071   -1.1933   23.4639 H   0  0  0  0  0  0
   32.9928   -2.4679   26.6515 H   0  0  0  0  0  0
   31.7945   -2.3983   21.8438 H   0  0  0  0  0  0
   34.4062   -3.6472   25.0123 H   0  0  0  0  0  0
   34.9238   -0.5387   28.0405 H   0  0  0  0  0  0
   36.0597    0.0350   29.2166 H   0  0  0  0  0  0
   33.5286   -3.9945   21.3744 H   0  0  0  0  0  0
   34.9339   -3.1310   22.0363 H   0  0  0  0  0  0
   34.4582   -4.7071   22.6607 H   0  0  0  0  0  0
   36.5535    1.1539   27.0642 H   0  0  0  0  0  0
   35.9025    2.3776   28.1417 H   0  0  0  0  0  0
   34.8713    1.6744   26.8917 H   0  0  0  0  0  0
  1 12  1  0  0  0
  1 18  1  0  0  0
  2  9  1  0  0  0
  2 21  1  0  0  0
  3  5  1  0  0  0
  3  7  1  0  0  0
  3 10  1  0  0  0
  4  7  2  0  0  0
  4 12  1  0  0  0
  5 11  2  0  0  0
  6  9  1  0  0  0
  6 12  2  0  0  0
  7  8  1  0  0  0
  8  9  2  0  0  0
  8 11  1  0  0  0
 10 13  2  0  0  0
 10 14  1  0  0  0
 11 22  1  0  0  0
 13 15  1  0  0  0
 13 23  1  0  0  0
 14 16  2  0  0  0
 14 24  1  0  0  0
 15 17  2  0  0  0
 15 25  1  0  0  0
 16 17  1  0  0  0
 16 26  1  0  0  0
 17 19  1  0  0  0
 18 20  1  0  0  0
 18 27  1  0  0  0
 18 28  1  0  0  0
 19 29  1  0  0  0
 19 30  1  0  0  0
 19 31  1  0  0  0
 20 32  1  0  0  0
 20 33  1  0  0  0
 20 34  1  0  0  0
M  END
> <s_m_entry_id>
16896

> <s_m_entry_name>
dock_pv.62

> <s_m_Source_Path>
/home/csk/Desktop/cluster/DUD-E-result/esr1

> <s_m_Source_File>
dock_pv.maegz

> <i_m_Source_File_Index>
62

> <chembl_id>
CHEMBL1531388

> <chembl_pref_name>
None

> <i_lp_mmshare_version>
53161

> <r_lp_tautomer_probability>
1

> <s_lp_Force_Field>
OPLS_2005

> <r_lp_Energy>
5.313325

> <b_lp_Chiralities_Consistent>
1

> <s_lp_Variant>
CHEMBL206_lig281-1

> <s_i_glide_gridfile>
glide-grid_1sj0

> <i_i_glide_lignum>
361

> <i_i_glide_rotatable_bonds>
4

> <r_i_docking_score>
-7.16909050523453

> <r_i_glide_ligand_efficiency>
-0.358454525261726

> <r_i_glide_ligand_efficiency_sa>
-0.972995277146983

> <r_i_glide_ligand_efficiency_ln>
-1.79418690103028

> <r_i_glide_gscore>
-7.16909050523453

> <r_i_glide_lipo>
-3.03414662482271

> <r_i_glide_hbond>
0

> <r_i_glide_metal>
0

> <r_i_glide_rewards>
-2.63173685646781

> <r_i_glide_evdw>
-34.8627510070801

> <r_i_glide_ecoul>
-1.35315668582916

> <r_i_glide_erotb>
0.442904029284377

> <r_i_glide_esite>
0

> <r_i_glide_emodel>
-49.1677812545276

> <r_i_glide_energy>
-36.2159076929092

> <r_i_glide_einternal>
1.41995882987976

> <i_i_glide_confnum>
1

> <i_i_glide_posenum>
192

> <r_i_glide_eff_state_penalty>
0

> <s_user_duplicate_titles>
CHEMBL206_lig281

> <i_f3d_flags>
0

> <s_m_subgroup_title>
dock_pv

> <s_m_subgroupid>
dock_pv

> <b_m_subgroup_collapsed>
1

$$$$
CHEMBL206_lig264
                    3D
 Schrodinger Suite 2021-1.
 30 33  0  0  1  0            999 V2000
   31.3285   -1.6199   25.0212 O   0  0  0  0  0  0
   33.6972   -3.3410   22.8980 O   0  0  0  0  0  0
   33.3123   -3.7393   27.8637 O   0  0  0  0  0  0
   31.2157   -1.2484   26.3683 C   0  0  0  0  0  0
   32.0120   -1.8458   27.3547 C   0  0  0  0  0  0
   30.2551   -0.2653   26.7550 C   0  0  0  0  0  0
   32.2942   -2.5427   24.6867 C   0  0  0  0  0  0
   32.8582   -3.0032   27.0057 C   0  0  0  0  0  0
   30.1991    0.1515   28.1265 C   0  0  0  0  0  0
   33.0258   -3.2130   25.5955 C   0  0  0  0  0  0
   32.4797   -2.8446   23.2682 C   0  0  0  0  0  0
   31.9494   -1.4179   28.6814 C   0  0  0  0  0  0
   31.0765   -0.4187   29.0662 C   0  0  0  0  0  0
   29.3451    0.3215   25.8493 C   0  0  0  0  0  0
   29.2602    1.1246   28.5347 C   0  0  0  0  0  0
   31.6621   -2.8413   22.1492 C   0  0  0  0  0  0
   28.4600    1.3081   26.2773 C   0  0  0  0  0  0
   28.3893    1.6768   27.6110 C   0  0  0  0  0  0
   33.6506   -3.6394   21.5761 C   0  0  0  0  0  0
   32.4000   -3.3401   21.0758 C   0  0  0  0  0  0
   33.7368   -3.9579   25.2698 H   0  0  0  0  0  0
   32.5782   -1.8678   29.4383 H   0  0  0  0  0  0
   31.0405   -0.1012   30.0985 H   0  0  0  0  0  0
   29.3743    0.0363   24.8073 H   0  0  0  0  0  0
   29.2248    1.4363   29.5688 H   0  0  0  0  0  0
   30.6293   -2.5425   22.1066 H   0  0  0  0  0  0
   27.8283    1.8234   25.5742 H   0  0  0  0  0  0
   27.6679    2.4145   27.9279 H   0  0  0  0  0  0
   34.5443   -4.0671   21.1444 H   0  0  0  0  0  0
   32.0521   -3.5004   20.0648 H   0  0  0  0  0  0
  1  4  1  0  0  0
  1  7  1  0  0  0
  2 11  1  0  0  0
  2 19  1  0  0  0
  3  8  2  0  0  0
  4  5  2  0  0  0
  4  6  1  0  0  0
  5  8  1  0  0  0
  5 12  1  0  0  0
  6  9  1  0  0  0
  6 14  2  0  0  0
  7 10  2  0  0  0
  7 11  1  0  0  0
  8 10  1  0  0  0
  9 13  1  0  0  0
  9 15  2  0  0  0
 10 21  1  0  0  0
 11 16  2  0  0  0
 12 13  2  0  0  0
 12 22  1  0  0  0
 13 23  1  0  0  0
 14 17  1  0  0  0
 14 24  1  0  0  0
 15 18  1  0  0  0
 15 25  1  0  0  0
 16 20  1  0  0  0
 16 26  1  0  0  0
 17 18  2  0  0  0
 17 27  1  0  0  0
 18 28  1  0  0  0
 19 20  2  0  0  0
 19 29  1  0  0  0
 20 30  1  0  0  0
M  END
> <s_m_entry_id>
16897

> <s_m_entry_name>
dock_pv.63

> <s_m_Source_Path>
/home/csk/Desktop/cluster/DUD-E-result/esr1

> <s_m_Source_File>
dock_pv.maegz

> <i_m_Source_File_Index>
63

> <chembl_id>
CHEMBL1339786

> <chembl_pref_name>
None

> <i_lp_mmshare_version>
53161

> <r_lp_tautomer_probability>
1

> <s_lp_Force_Field>
OPLS_2005

> <r_lp_Energy>
11.317643

> <b_lp_Chiralities_Consistent>
1

> <s_lp_Variant>
CHEMBL206_lig264-1

> <s_i_glide_gridfile>
glide-grid_1sj0

> <i_i_glide_lignum>
339

> <i_i_glide_rotatable_bonds>
1

> <r_i_docking_score>
-7.1674811971026

> <r_i_glide_ligand_efficiency>
-0.35837405985513

> <r_i_glide_ligand_efficiency_sa>
-0.97277686043001

> <r_i_glide_ligand_efficiency_ln>
-1.7937841442834

> <r_i_glide_gscore>
-7.1674811971026

> <r_i_glide_lipo>
-3.71727682527554

> <r_i_glide_hbond>
0

> <r_i_glide_metal>
0

> <r_i_glide_rewards>
-2.36295831836624

> <r_i_glide_evdw>
-24.3978404998779

> <r_i_glide_ecoul>
-0.834883272647858

> <r_i_glide_erotb>
0.257878462430259

> <r_i_glide_esite>
0

> <r_i_glide_emodel>
-36.0166559227105

> <r_i_glide_energy>
-25.2327237725258

> <r_i_glide_einternal>
0.185652211308479

> <i_i_glide_confnum>
1

> <i_i_glide_posenum>
4

> <r_i_glide_eff_state_penalty>
0

> <s_user_duplicate_titles>
CHEMBL206_lig264

> <i_f3d_flags>
0

> <s_m_subgroup_title>
dock_pv

> <s_m_subgroupid>
dock_pv

> <b_m_subgroup_collapsed>
1

$$$$
CHEMBL206_lig195
                    3D
 Schrodinger Suite 2021-1.
 49 51  0  0  1  0            999 V2000
   35.1041   -6.8646   15.6895 Cl  0  0  0  0  0  0
   30.5576    0.4809   28.0245 S   0  0  0  0  0  0
   33.9435   -3.7421   23.9221 O   0  0  0  0  0  0
   34.0601   -2.1420   20.3845 O   0  0  0  0  0  0
   33.2992   -0.3864   28.9383 O   0  5  0  0  0  0
   33.2602   -2.5421   28.8124 O   0  0  0  0  0  0
   35.6623   -2.7618   15.5982 O   0  5  0  0  0  0
   34.4322   -4.1926   14.5407 O   0  0  0  0  0  0
   26.5520    0.2580   27.4639 O   0  0  0  0  0  0
   33.0112   -1.4310   28.3624 N   0  3  0  0  0  0
   32.4438   -2.9937   22.3853 N   0  0  0  0  0  0
   34.9365   -3.7513   15.5688 N   0  3  0  0  0  0
   32.9469   -3.8589   21.3940 N   0  0  0  0  0  0
   32.3819   -1.3676   27.0268 C   0  0  0  0  0  0
   31.3108   -0.5035   26.7391 C   0  0  0  0  0  0
   32.3522   -2.1777   24.7070 C   0  0  0  0  0  0
   32.8594   -2.2142   26.0153 C   0  0  0  0  0  0
   34.0254   -4.2051   19.2186 C   0  0  0  0  0  0
   34.6302   -4.4167   16.8525 C   0  0  0  0  0  0
   32.9694   -3.0520   23.6327 C   0  0  0  0  0  0
   30.7851   -0.4861   25.4460 C   0  0  0  0  0  0
   31.2976   -1.2991   24.4421 C   0  0  0  0  0  0
   34.6699   -5.8151   16.9962 C   0  0  0  0  0  0
   34.3274   -3.6308   17.9742 C   0  0  0  0  0  0
   33.6766   -3.3131   20.3905 C   0  0  0  0  0  0
   34.0600   -5.6010   19.3309 C   0  0  0  0  0  0
   34.3792   -6.3944   18.2316 C   0  0  0  0  0  0
   28.8587    0.9368   27.5644 C   0  0  0  0  0  0
   27.8567   -0.2162   27.7623 C   0  0  2  0  0  0
   28.0034   -1.4050   26.8182 C   0  0  0  0  0  0
   25.7044   -0.8612   27.2184 C   0  0  0  0  0  0
   26.6139   -1.9536   26.6585 C   0  0  0  0  0  0
   31.4791   -2.7539   22.2137 H   0  0  0  0  0  0
   32.3327   -4.6491   21.2319 H   0  0  0  0  0  0
   33.6626   -2.8953   26.2533 H   0  0  0  0  0  0
   29.9855    0.1862   25.1828 H   0  0  0  0  0  0
   30.8561   -1.2216   23.4632 H   0  0  0  0  0  0
   34.3105   -2.5542   17.8643 H   0  0  0  0  0  0
   33.8350   -6.0952   20.2667 H   0  0  0  0  0  0
   34.4000   -7.4687   18.3484 H   0  0  0  0  0  0
   28.5656    1.7605   28.2156 H   0  0  0  0  0  0
   28.8151    1.3395   26.5533 H   0  0  0  0  0  0
   27.9035   -0.5422   28.8023 H   0  0  0  0  0  0
   28.3339   -1.0617   25.8427 H   0  0  0  0  0  0
   28.7548   -2.1229   27.1488 H   0  0  0  0  0  0
   24.8909   -0.5927   26.5423 H   0  0  0  0  0  0
   25.2602   -1.1648   28.1655 H   0  0  0  0  0  0
   26.4286   -2.1419   25.6001 H   0  0  0  0  0  0
   26.4806   -2.8952   27.1929 H   0  0  0  0  0  0
  1 23  1  0  0  0
  2 15  1  0  0  0
  2 28  1  0  0  0
  3 20  2  0  0  0
  4 25  2  0  0  0
  5 10  1  0  0  0
  6 10  2  0  0  0
  7 12  1  0  0  0
  8 12  2  0  0  0
  9 29  1  0  0  0
  9 31  1  0  0  0
 10 14  1  0  0  0
 11 13  1  0  0  0
 11 20  1  0  0  0
 11 33  1  0  0  0
 12 19  1  0  0  0
 13 25  1  0  0  0
 13 34  1  0  0  0
 14 15  1  0  0  0
 14 17  2  0  0  0
 15 21  2  0  0  0
 16 17  1  0  0  0
 16 20  1  0  0  0
 16 22  2  0  0  0
 17 35  1  0  0  0
 18 24  1  0  0  0
 18 25  1  0  0  0
 18 26  2  0  0  0
 19 23  1  0  0  0
 19 24  2  0  0  0
 21 22  1  0  0  0
 21 36  1  0  0  0
 22 37  1  0  0  0
 23 27  2  0  0  0
 24 38  1  0  0  0
 26 27  1  0  0  0
 26 39  1  0  0  0
 27 40  1  0  0  0
 28 29  1  0  0  0
 28 41  1  0  0  0
 28 42  1  0  0  0
 29 30  1  0  0  0
 29 43  1  0  0  0
 30 32  1  0  0  0
 30 44  1  0  0  0
 30 45  1  0  0  0
 31 32  1  0  0  0
 31 46  1  0  0  0
 31 47  1  0  0  0
 32 48  1  0  0  0
 32 49  1  0  0  0
M  CHG  4   5  -1   7  -1  10   1  12   1
M  END
> <s_m_entry_id>
16898

> <s_m_entry_name>
dock_pv.64

> <s_m_Source_Path>
/home/csk/Desktop/cluster/DUD-E-result/esr1

> <s_m_Source_File>
dock_pv.maegz

> <i_m_Source_File_Index>
64

> <chembl_id>
CHEMBL1349347

> <chembl_pref_name>
None

> <i_lp_mmshare_version>
53161

> <r_lp_tautomer_probability>
1

> <s_lp_Force_Field>
OPLS_2005

> <r_lp_Energy>
44.774414

> <b_lp_Chiralities_Consistent>
1

> <s_lp_Variant>
CHEMBL206_lig195-1

> <s_i_glide_gridfile>
glide-grid_1sj0

> <i_i_glide_lignum>
259

> <i_i_glide_rotatable_bonds>
10

> <r_i_docking_score>
-7.14452566031792

> <r_i_glide_ligand_efficiency>
-0.223266426884935

> <r_i_glide_ligand_efficiency_sa>
-0.708826720993785

> <r_i_glide_ligand_efficiency_ln>
-1.59985404775924

> <r_i_glide_gscore>
-7.14452566031792

> <r_i_glide_lipo>
-2.82572346906961

> <r_i_glide_hbond>
-0.0245925532548642

> <r_i_glide_metal>
0

> <r_i_glide_rewards>
-1.86289298291524

> <r_i_glide_evdw>
-51.1049652099609

> <r_i_glide_ecoul>
-3.25500965118408

> <r_i_glide_erotb>
0.701671159020373

> <r_i_glide_esite>
-0.0894881059229139

> <r_i_glide_emodel>
-77.0451466349614

> <r_i_glide_energy>
-54.359974861145

> <r_i_glide_einternal>
4.99117755889893

> <i_i_glide_confnum>
129

> <i_i_glide_posenum>
347

> <r_i_glide_eff_state_penalty>
0

> <s_user_duplicate_titles>
CHEMBL206_lig195

> <i_f3d_flags>
0

> <s_m_subgroup_title>
dock_pv

> <s_m_subgroupid>
dock_pv

> <b_m_subgroup_collapsed>
1

$$$$
CHEMBL206_lig153
                    3D
 Schrodinger Suite 2021-1.
 37 39  0  0  1  0            999 V2000
   33.6602   -2.9638   24.1014 S   0  0  0  0  0  0
   32.9677   -4.3877   17.6643 S   0  0  0  0  0  0
   34.8496   -3.3931   21.4493 O   0  0  0  0  0  0
   31.4890   -1.5554   25.1680 N   0  0  0  0  0  0
   31.1959   -2.6538   27.0556 N   0  0  0  0  0  0
   32.2611   -3.2276   26.3758 N   0  0  0  0  0  0
   32.9640   -3.5558   20.1895 N   0  0  0  0  0  0
   35.6580   -0.5404   19.8635 N   0  0  0  0  0  0
   30.7243   -1.6926   26.3093 C   0  0  0  0  0  0
   32.3698   -2.6140   25.2288 C   0  0  0  0  0  0
   29.5166   -0.9105   26.6877 C   0  0  0  0  0  0
   33.5493   -3.3637   18.9423 C   0  0  0  0  0  0
   34.5089   -2.4377   18.4781 C   0  0  0  0  0  0
   33.6259   -3.5094   21.3652 C   0  0  0  0  0  0
   28.3672   -1.6026   27.0870 C   0  0  0  0  0  0
   29.5260    0.4846   26.6769 C   0  0  0  0  0  0
   32.7829   -3.6362   22.6451 C   0  0  0  0  0  0
   31.3735   -0.5595   24.1203 C   0  0  0  0  0  0
   34.7964   -2.6386   17.1187 C   0  0  0  0  0  0
   34.0615   -3.6621   16.5415 C   0  0  0  0  0  0
   27.2276   -0.9014   27.4690 C   0  0  0  0  0  0
   28.3890    1.1834   27.0667 C   0  0  0  0  0  0
   35.1497   -1.3792   19.2497 C   0  0  0  0  0  0
   27.2497    0.4902   27.4640 C   0  0  0  0  0  0
   32.0559   -4.0018   20.1884 H   0  0  0  0  0  0
   28.3546   -2.6841   27.0931 H   0  0  0  0  0  0
   30.4147    1.0246   26.3880 H   0  0  0  0  0  0
   31.8718   -3.0568   22.5047 H   0  0  0  0  0  0
   32.4782   -4.6701   22.8053 H   0  0  0  0  0  0
   30.3492   -0.1909   24.0675 H   0  0  0  0  0  0
   32.0553    0.2577   24.3607 H   0  0  0  0  0  0
   31.6643   -0.9772   23.1585 H   0  0  0  0  0  0
   35.5150   -2.0495   16.5661 H   0  0  0  0  0  0
   34.0933   -4.0046   15.5176 H   0  0  0  0  0  0
   26.3347   -1.4346   27.7615 H   0  0  0  0  0  0
   28.3878    2.2578   27.0643 H   0  0  0  0  0  0
   26.3713    1.0449   27.7555 H   0  0  0  0  0  0
  1 10  1  0  0  0
  1 17  1  0  0  0
  2 12  1  0  0  0
  2 20  1  0  0  0
  3 14  2  0  0  0
  4  9  1  0  0  0
  4 10  1  0  0  0
  4 18  1  0  0  0
  5  6  1  0  0  0
  5  9  2  0  0  0
  6 10  2  0  0  0
  7 12  1  0  0  0
  7 14  1  0  0  0
  7 25  1  0  0  0
  8 23  3  0  0  0
  9 11  1  0  0  0
 11 15  2  0  0  0
 11 16  1  0  0  0
 12 13  2  0  0  0
 13 19  1  0  0  0
 13 23  1  0  0  0
 14 17  1  0  0  0
 15 21  1  0  0  0
 15 26  1  0  0  0
 16 22  2  0  0  0
 16 27  1  0  0  0
 17 28  1  0  0  0
 17 29  1  0  0  0
 18 30  1  0  0  0
 18 31  1  0  0  0
 18 32  1  0  0  0
 19 20  2  0  0  0
 19 33  1  0  0  0
 20 34  1  0  0  0
 21 24  2  0  0  0
 21 35  1  0  0  0
 22 24  1  0  0  0
 22 36  1  0  0  0
 24 37  1  0  0  0
M  END
> <s_m_entry_id>
16899

> <s_m_entry_name>
dock_pv.65

> <s_m_Source_Path>
/home/csk/Desktop/cluster/DUD-E-result/esr1

> <s_m_Source_File>
dock_pv.maegz

> <i_m_Source_File_Index>
65

> <chembl_id>
CHEMBL1404155

> <chembl_pref_name>
None

> <i_lp_mmshare_version>
53161

> <r_lp_tautomer_probability>
1

> <s_lp_Force_Field>
OPLS_2005

> <r_lp_Energy>
14.179207

> <b_lp_Chiralities_Consistent>
1

> <s_lp_Variant>
CHEMBL206_lig153-1

> <s_i_glide_gridfile>
glide-grid_1sj0

> <i_i_glide_lignum>
194

> <i_i_glide_rotatable_bonds>
6

> <r_i_docking_score>
-7.14017117184764

> <r_i_glide_ligand_efficiency>
-0.297507132160318

> <r_i_glide_ligand_efficiency_sa>
-0.858159066134125

> <r_i_glide_ligand_efficiency_ln>
-1.70897060252884

> <r_i_glide_gscore>
-7.14017117184764

> <r_i_glide_lipo>
-2.5938038332054

> <r_i_glide_hbond>
-0.015495611633051

> <r_i_glide_metal>
0

> <r_i_glide_rewards>
-2.83215924296992

> <r_i_glide_evdw>
-44.1734924316406

> <r_i_glide_ecoul>
-2.01718759536743

> <r_i_glide_erotb>
0.90807421301694

> <r_i_glide_esite>
-0.0955339361690605

> <r_i_glide_emodel>
-60.6320579253222

> <r_i_glide_energy>
-46.1906800270081

> <r_i_glide_einternal>
9.75906658172607

> <i_i_glide_confnum>
34

> <i_i_glide_posenum>
325

> <r_i_glide_eff_state_penalty>
0

> <s_user_duplicate_titles>
CHEMBL206_lig153

> <i_f3d_flags>
0

> <s_m_subgroup_title>
dock_pv

> <s_m_subgroupid>
dock_pv

> <b_m_subgroup_collapsed>
1

$$$$
CHEMBL206_lig214
                    3D
 Schrodinger Suite 2021-1.
 40 42  0  0  1  0            999 V2000
   32.8600   -2.8445   26.8983 S   0  0  0  0  0  0
   34.2482   -2.9427   21.2442 S   0  0  0  0  0  0
   29.7033   -0.3464   24.6640 O   0  0  0  0  0  0
   34.0168   -3.3418   24.2195 O   0  0  0  0  0  0
   31.8849   -2.4850   24.3447 N   0  0  0  0  0  0
   28.4217   -1.1556   26.3018 N   0  0  0  0  0  0
   30.7492   -1.4952   26.3791 C   0  0  0  0  0  0
   31.0816   -1.1997   27.7276 C   0  0  0  0  0  0
   31.7578   -2.2201   25.7189 C   0  0  0  0  0  0
   32.3089   -1.7420   28.0966 C   0  0  0  0  0  0
   29.6018   -0.9420   25.7204 C   0  0  0  0  0  0
   32.9580   -3.0009   23.6897 C   0  0  0  0  0  0
   30.2990   -0.2956   28.6641 C   0  0  0  0  0  0
   33.1590   -1.4087   29.3043 C   0  0  0  0  0  0
   32.8238   -3.0565   22.2526 C   0  0  0  0  0  0
   30.6795    1.1876   28.5369 C   0  0  0  0  0  0
   31.6889   -3.3015   21.4737 C   0  0  0  0  0  0
   34.0217   -0.1504   29.0646 C   0  0  0  0  0  0
   33.2998   -3.1405   19.8104 C   0  0  0  0  0  0
   31.9585   -3.3221   20.1015 C   0  0  0  0  0  0
   32.0404    1.5706   29.1525 C   0  0  0  0  0  0
   33.3054    1.0619   28.4172 C   0  0  0  0  0  0
   31.1221   -2.1520   23.7750 H   0  0  0  0  0  0
   28.3535   -1.7179   27.1365 H   0  0  0  0  0  0
   27.5844   -0.8195   25.8532 H   0  0  0  0  0  0
   29.2225   -0.4020   28.5486 H   0  0  0  0  0  0
   30.4616   -0.6099   29.6941 H   0  0  0  0  0  0
   32.5420   -1.2521   30.1864 H   0  0  0  0  0  0
   33.8124   -2.2429   29.5648 H   0  0  0  0  0  0
   29.9106    1.7728   29.0440 H   0  0  0  0  0  0
   30.6356    1.5011   27.4921 H   0  0  0  0  0  0
   30.6965   -3.4652   21.8637 H   0  0  0  0  0  0
   34.4636    0.1578   30.0130 H   0  0  0  0  0  0
   34.8665   -0.4224   28.4307 H   0  0  0  0  0  0
   33.7716   -3.1409   18.8387 H   0  0  0  0  0  0
   31.2019   -3.4995   19.3503 H   0  0  0  0  0  0
   32.0741    1.2975   30.2087 H   0  0  0  0  0  0
   32.0600    2.6580   29.1430 H   0  0  0  0  0  0
   34.0311    1.8743   28.3713 H   0  0  0  0  0  0
   33.0744    0.8493   27.3725 H   0  0  0  0  0  0
  1  9  1  0  0  0
  1 10  1  0  0  0
  2 15  1  0  0  0
  2 19  1  0  0  0
  3 11  2  0  0  0
  4 12  2  0  0  0
  5  9  1  0  0  0
  5 12  1  0  0  0
  5 23  1  0  0  0
  6 11  1  0  0  0
  6 24  1  0  0  0
  6 25  1  0  0  0
  7  8  1  0  0  0
  7  9  2  0  0  0
  7 11  1  0  0  0
  8 10  2  0  0  0
  8 13  1  0  0  0
 10 14  1  0  0  0
 12 15  1  0  0  0
 13 16  1  0  0  0
 13 26  1  0  0  0
 13 27  1  0  0  0
 14 18  1  0  0  0
 14 28  1  0  0  0
 14 29  1  0  0  0
 15 17  2  0  0  0
 16 21  1  0  0  0
 16 30  1  0  0  0
 16 31  1  0  0  0
 17 20  1  0  0  0
 17 32  1  0  0  0
 18 22  1  0  0  0
 18 33  1  0  0  0
 18 34  1  0  0  0
 19 20  2  0  0  0
 19 35  1  0  0  0
 20 36  1  0  0  0
 21 22  1  0  0  0
 21 37  1  0  0  0
 21 38  1  0  0  0
 22 39  1  0  0  0
 22 40  1  0  0  0
M  END
> <s_m_entry_id>
16900

> <s_m_entry_name>
dock_pv.66

> <s_m_Source_Path>
/home/csk/Desktop/cluster/DUD-E-result/esr1

> <s_m_Source_File>
dock_pv.maegz

> <i_m_Source_File_Index>
66

> <chembl_id>
CHEMBL1310614

> <chembl_pref_name>
None

> <i_lp_mmshare_version>
53161

> <r_lp_tautomer_probability>
1

> <s_lp_Force_Field>
OPLS_2005

> <r_lp_Energy>
18.914256

> <b_lp_Chiralities_Consistent>
1

> <s_lp_Variant>
CHEMBL206_lig214-1

> <s_i_glide_gridfile>
glide-grid_1sj0

> <i_i_glide_lignum>
283

> <i_i_glide_rotatable_bonds>
4

> <r_i_docking_score>
-7.09368832145227

> <r_i_glide_ligand_efficiency>
-0.32244037824783

> <r_i_glide_ligand_efficiency_sa>
-0.903490620710911

> <r_i_glide_ligand_efficiency_ln>
-1.73395617433134

> <r_i_glide_gscore>
-7.09368832145227

> <r_i_glide_lipo>
-3.03411071556205

> <r_i_glide_hbond>
0

> <r_i_glide_metal>
0

> <r_i_glide_rewards>
-2.4591625652973

> <r_i_glide_evdw>
-39.6067237854004

> <r_i_glide_ecoul>
-0.839335143566132

> <r_i_glide_erotb>
0.505821420212024

> <r_i_glide_esite>
0

> <r_i_glide_emodel>
-50.8593266184618

> <r_i_glide_energy>
-40.4460589289665

> <r_i_glide_einternal>
5.0501012802124

> <i_i_glide_confnum>
2

> <i_i_glide_posenum>
174

> <r_i_glide_eff_state_penalty>
0

> <s_user_duplicate_titles>
CHEMBL206_lig214

> <i_f3d_flags>
0

> <s_m_subgroup_title>
dock_pv

> <s_m_subgroupid>
dock_pv

> <b_m_subgroup_collapsed>
1

$$$$
CHEMBL206_lig170
                    3D
 Schrodinger Suite 2021-1.
 57 60  0  0  1  0            999 V2000
   34.0600   -3.3422   23.6280 S   0  0  0  0  0  0
   30.9839   -1.2022   26.4205 O   0  0  0  0  0  0
   30.8594   -1.3602   23.6142 O   0  0  0  0  0  0
   33.3855   -4.5420   21.4125 O   0  0  0  0  0  0
   30.5035   -3.1806   18.9102 O   0  0  0  0  0  0
   27.6596   -4.5415   28.1052 O   0  0  0  0  0  0
   25.6015   -3.7418   28.6635 O   0  0  0  0  0  0
   31.9508   -2.9453   22.3236 N   0  0  0  0  0  0
   32.5968   -2.5423   19.4939 N   0  0  0  0  0  0
   32.8962   -2.3326   24.3383 C   0  0  0  0  0  0
   31.7946   -2.1356   23.4208 C   0  0  0  0  0  0
   33.0516   -3.7192   22.2584 C   0  0  0  0  0  0
   32.3036   -0.9693   26.3877 C   0  0  0  0  0  0
   30.4396   -0.3609   27.3179 C   0  0  0  0  0  0
   33.0841   -1.8393   25.5744 C   0  0  0  0  0  0
   29.0013   -0.5645   27.4940 C   0  0  0  0  0  0
   30.8968   -3.1182   21.2698 C   0  0  0  0  0  0
   32.6159    0.0564   27.2686 C   0  0  0  0  0  0
   31.4154    0.4693   27.8455 C   0  0  0  0  0  0
   28.0552    0.4477   27.3450 C   0  0  0  0  0  0
   28.6025   -1.8760   27.7413 C   0  0  0  0  0  0
   31.3369   -2.9423   19.7791 C   0  0  0  0  0  0
   27.2535   -2.1961   27.8637 C   0  0  0  0  0  0
   26.7053    0.1301   27.4641 C   0  0  0  0  0  0
   26.3029   -1.1800   27.7129 C   0  0  0  0  0  0
   33.2971   -2.6621   18.2855 C   0  0  0  0  0  0
   26.8637   -3.6101   28.1783 C   0  0  0  0  0  0
   28.4754    1.8579   26.9893 C   0  0  0  0  0  0
   33.1940   -3.7963   17.4694 C   0  0  0  0  0  0
   34.0286   -3.9492   16.3543 C   0  0  0  0  0  0
   34.2351   -1.6782   17.9759 C   0  0  0  0  0  0
   34.9534   -2.9421   16.0338 C   0  0  0  0  0  0
   35.0454   -1.8097   16.8497 C   0  0  0  0  0  0
   33.9028   -5.2044   15.5050 C   0  0  0  0  0  0
   35.8634   -3.0585   14.8178 C   0  0  0  0  0  0
   25.3906   -4.6688   28.7895 H   0  0  0  0  0  0
   33.1403   -2.1775   20.2582 H   0  0  0  0  0  0
   33.9907   -2.1420   26.0771 H   0  0  0  0  0  0
   30.0009   -2.5419   21.4612 H   0  0  0  0  0  0
   30.5336   -4.1426   21.3644 H   0  0  0  0  0  0
   33.6000    0.4529   27.4728 H   0  0  0  0  0  0
   31.2801    1.2450   28.5847 H   0  0  0  0  0  0
   29.3541   -2.6506   27.8357 H   0  0  0  0  0  0
   25.9663    0.9031   27.3538 H   0  0  0  0  0  0
   25.2506   -1.3974   27.7821 H   0  0  0  0  0  0
   27.6486    2.5549   27.0642 H   0  0  0  0  0  0
   29.2567    2.2185   27.6570 H   0  0  0  0  0  0
   28.8618    1.8630   25.9685 H   0  0  0  0  0  0
   32.4959   -4.5795   17.7321 H   0  0  0  0  0  0
   34.3466   -0.8098   18.6075 H   0  0  0  0  0  0
   35.7563   -1.0292   16.6220 H   0  0  0  0  0  0
   33.0956   -5.8541   15.8463 H   0  0  0  0  0  0
   34.8331   -5.7717   15.5269 H   0  0  0  0  0  0
   33.7039   -4.9360   14.4682 H   0  0  0  0  0  0
   36.5672   -2.2285   14.7474 H   0  0  0  0  0  0
   36.4398   -3.9822   14.8610 H   0  0  0  0  0  0
   35.2736   -3.0826   13.9022 H   0  0  0  0  0  0
  1 10  1  0  0  0
  1 12  1  0  0  0
  2 13  1  0  0  0
  2 14  1  0  0  0
  3 11  2  0  0  0
  4 12  2  0  0  0
  5 22  2  0  0  0
  6 27  2  0  0  0
  7 27  1  0  0  0
  7 36  1  0  0  0
  8 11  1  0  0  0
  8 12  1  0  0  0
  8 17  1  0  0  0
  9 22  1  0  0  0
  9 26  1  0  0  0
  9 37  1  0  0  0
 10 11  1  0  0  0
 10 15  2  0  0  0
 13 15  1  0  0  0
 13 18  2  0  0  0
 14 16  1  0  0  0
 14 19  2  0  0  0
 15 38  1  0  0  0
 16 20  1  0  0  0
 16 21  2  0  0  0
 17 22  1  0  0  0
 17 39  1  0  0  0
 17 40  1  0  0  0
 18 19  1  0  0  0
 18 41  1  0  0  0
 19 42  1  0  0  0
 20 24  2  0  0  0
 20 28  1  0  0  0
 21 23  1  0  0  0
 21 43  1  0  0  0
 23 25  2  0  0  0
 23 27  1  0  0  0
 24 25  1  0  0  0
 24 44  1  0  0  0
 25 45  1  0  0  0
 26 29  1  0  0  0
 26 31  2  0  0  0
 28 46  1  0  0  0
 28 47  1  0  0  0
 28 48  1  0  0  0
 29 30  2  0  0  0
 29 49  1  0  0  0
 30 32  1  0  0  0
 30 34  1  0  0  0
 31 33  1  0  0  0
 31 50  1  0  0  0
 32 33  2  0  0  0
 32 35  1  0  0  0
 33 51  1  0  0  0
 34 52  1  0  0  0
 34 53  1  0  0  0
 34 54  1  0  0  0
 35 55  1  0  0  0
 35 56  1  0  0  0
 35 57  1  0  0  0
M  END
> <s_m_entry_id>
16901

> <s_m_entry_name>
dock_pv.67

> <s_m_Source_Path>
/home/csk/Desktop/cluster/DUD-E-result/esr1

> <s_m_Source_File>
dock_pv.maegz

> <i_m_Source_File_Index>
67

> <chembl_id>
CHEMBL1332402

> <chembl_pref_name>
None

> <i_lp_mmshare_version>
53161

> <r_lp_tautomer_probability>
1

> <s_lp_Force_Field>
OPLS_2005

> <r_lp_Energy>
24.5953

> <b_lp_Chiralities_Consistent>
1

> <s_lp_Variant>
CHEMBL206_lig170-1

> <s_i_glide_gridfile>
glide-grid_1sj0

> <i_i_glide_lignum>
224

> <i_i_glide_rotatable_bonds>
8

> <r_i_docking_score>
-7.07300412067622

> <r_i_glide_ligand_efficiency>
-0.202085832019321

> <r_i_glide_ligand_efficiency_sa>
-0.661036156101426

> <r_i_glide_ligand_efficiency_ln>
-1.5526813813572

> <r_i_glide_gscore>
-7.07300412067622

> <r_i_glide_lipo>
-3.96496529429417

> <r_i_glide_hbond>
0

> <r_i_glide_metal>
0

> <r_i_glide_rewards>
-1.37187529569427

> <r_i_glide_evdw>
-45.8308639526367

> <r_i_glide_ecoul>
0.322265416383743

> <r_i_glide_erotb>
0.592050463031792

> <r_i_glide_esite>
-0.08501060854529

> <r_i_glide_emodel>
-49.0769341490806

> <r_i_glide_energy>
-45.508598536253

> <r_i_glide_einternal>
12.9095249176025

> <i_i_glide_confnum>
11

> <i_i_glide_posenum>
18

> <r_i_glide_eff_state_penalty>
0

> <s_user_duplicate_titles>
CHEMBL206_lig170

> <i_f3d_flags>
0

> <s_m_subgroup_title>
dock_pv

> <s_m_subgroupid>
dock_pv

> <b_m_subgroup_collapsed>
1

$$$$
CHEMBL206_lig60
                    3D
 Schrodinger Suite 2021-1.
 46 50  0  0  1  0            999 V2000
   33.7535   -4.1420   24.0132 O   0  0  0  0  0  0
   38.0426   -2.1420   21.0640 O   0  0  0  0  0  0
   33.0191   -3.1813   20.0333 N   0  0  0  0  0  0
   31.2674   -2.9420   21.4640 N   0  0  0  0  0  0
   34.8819   -2.6103   21.4498 N   0  0  0  0  0  0
   32.9401   -2.9192   25.8640 N   0  0  0  0  0  0
   32.3915   -2.7039   22.1143 C   0  0  0  0  0  0
   33.5261   -2.8134   21.2643 C   0  0  0  0  0  0
   32.3069   -2.3743   23.5890 C   0  0  0  0  0  0
   31.6245   -3.1557   20.1747 C   0  0  0  0  0  0
   33.0206   -3.1278   24.5272 C   0  0  0  0  0  0
   31.4468   -1.3783   24.0761 C   0  0  0  0  0  0
   31.3190   -1.1573   25.4686 C   0  0  0  0  0  0
   32.1141   -1.9528   26.3396 C   0  0  0  0  0  0
   33.6195   -3.4863   18.8342 C   0  0  0  0  0  0
   30.8283   -3.3420   19.0299 C   0  0  0  0  0  0
   30.4355   -0.1977   26.0231 C   0  0  0  0  0  0
   32.0361   -1.7420   27.7362 C   0  0  0  0  0  0
   32.8353   -3.7122   17.7102 C   0  0  0  0  0  0
   31.4523   -3.6250   17.8105 C   0  0  0  0  0  0
   35.6820   -1.7420   20.5782 C   0  0  0  0  0  0
   30.3694   -0.0126   27.4049 C   0  0  0  0  0  0
   31.1706   -0.7792   28.2522 C   0  0  0  0  0  0
   37.0250   -2.3132   20.1817 C   0  0  0  0  0  0
   37.5031   -2.9841   19.0636 C   0  0  0  0  0  0
   29.4233    1.0291   27.9758 C   0  0  0  0  0  0
   39.1591   -2.6828   20.5146 C   0  0  0  0  0  0
   38.8624   -3.2218   19.2760 C   0  0  0  0  0  0
   34.0600   -4.7707   24.6769 H   0  0  0  0  0  0
   35.2426   -2.6110   22.3947 H   0  0  0  0  0  0
   30.8435   -0.7810   23.4178 H   0  0  0  0  0  0
   34.6948   -3.5443   18.8239 H   0  0  0  0  0  0
   29.7520   -3.3204   19.1061 H   0  0  0  0  0  0
   29.8116    0.3885   25.3648 H   0  0  0  0  0  0
   32.6479   -2.3391   28.3971 H   0  0  0  0  0  0
   33.2943   -3.9561   16.7628 H   0  0  0  0  0  0
   30.8600   -3.8103   16.9274 H   0  0  0  0  0  0
   35.8369   -0.7818   21.0640 H   0  0  0  0  0  0
   35.1177   -1.4854   19.6822 H   0  0  0  0  0  0
   31.1217   -0.6349   29.3219 H   0  0  0  0  0  0
   36.9350   -3.2612   18.1884 H   0  0  0  0  0  0
   28.3954    0.7990   27.6929 H   0  0  0  0  0  0
   29.4762    1.0868   29.0637 H   0  0  0  0  0  0
   29.6599    2.0132   27.5693 H   0  0  0  0  0  0
   40.0602   -2.6154   21.1080 H   0  0  0  0  0  0
   39.5475   -3.7210   18.6066 H   0  0  0  0  0  0
  1 11  1  0  0  0
  1 29  1  0  0  0
  2 24  1  0  0  0
  2 27  1  0  0  0
  3  8  1  0  0  0
  3 10  1  0  0  0
  3 15  1  0  0  0
  4  7  1  0  0  0
  4 10  2  0  0  0
  5  8  1  0  0  0
  5 21  1  0  0  0
  5 30  1  0  0  0
  6 11  2  0  0  0
  6 14  1  0  0  0
  7  8  2  0  0  0
  7  9  1  0  0  0
  9 11  1  0  0  0
  9 12  2  0  0  0
 10 16  1  0  0  0
 12 13  1  0  0  0
 12 31  1  0  0  0
 13 14  1  0  0  0
 13 17  2  0  0  0
 14 18  2  0  0  0
 15 19  2  0  0  0
 15 32  1  0  0  0
 16 20  2  0  0  0
 16 33  1  0  0  0
 17 22  1  0  0  0
 17 34  1  0  0  0
 18 23  1  0  0  0
 18 35  1  0  0  0
 19 20  1  0  0  0
 19 36  1  0  0  0
 20 37  1  0  0  0
 21 24  1  0  0  0
 21 38  1  0  0  0
 21 39  1  0  0  0
 22 23  2  0  0  0
 22 26  1  0  0  0
 23 40  1  0  0  0
 24 25  2  0  0  0
 25 28  1  0  0  0
 25 41  1  0  0  0
 26 42  1  0  0  0
 26 43  1  0  0  0
 26 44  1  0  0  0
 27 28  2  0  0  0
 27 45  1  0  0  0
 28 46  1  0  0  0
M  END
> <s_m_entry_id>
16902

> <s_m_entry_name>
dock_pv.68

> <s_m_Source_Path>
/home/csk/Desktop/cluster/DUD-E-result/esr1

> <s_m_Source_File>
dock_pv.maegz

> <i_m_Source_File_Index>
68

> <chembl_id>
CHEMBL1439181

> <chembl_pref_name>
None

> <i_lp_mmshare_version>
53161

> <r_lp_tautomer_probability>
1

> <s_lp_Force_Field>
OPLS_2005

> <r_lp_Energy>
22.570439

> <b_lp_Chiralities_Consistent>
1

> <s_lp_Variant>
CHEMBL206_lig60-1

> <s_i_glide_gridfile>
glide-grid_1sj0

> <i_i_glide_lignum>
74

> <i_i_glide_rotatable_bonds>
5

> <r_i_docking_score>
-7.06741947410815

> <r_i_glide_ligand_efficiency>
-0.252407838361005

> <r_i_glide_ligand_efficiency_sa>
-0.766458857530671

> <r_i_glide_ligand_efficiency_ln>
-1.63136792307673

> <r_i_glide_gscore>
-7.06741947410815

> <r_i_glide_lipo>
-3.33353160034583

> <r_i_glide_hbond>
-0.556025148587609

> <r_i_glide_metal>
0

> <r_i_glide_rewards>
-1.32727597058828

> <r_i_glide_evdw>
-34.0891571044922

> <r_i_glide_ecoul>
-3.89515447616577

> <r_i_glide_erotb>
0.562444364078786

> <r_i_glide_esite>
-0.124300092015743

> <r_i_glide_emodel>
-48.1867774535374

> <r_i_glide_energy>
-37.984311580658

> <r_i_glide_einternal>
5.86835813522339

> <i_i_glide_confnum>
37

> <i_i_glide_posenum>
260

> <r_i_glide_eff_state_penalty>
0

> <s_user_duplicate_titles>
CHEMBL206_lig60

> <i_f3d_flags>
0

> <s_m_subgroup_title>
dock_pv

> <s_m_subgroupid>
dock_pv

> <b_m_subgroup_collapsed>
1

$$$$
CHEMBL206_lig135
                    3D
 Schrodinger Suite 2021-1.
 46 49  0  0  1  0            999 V2000
   34.4290   -3.1601   21.4933 S   0  0  0  0  0  0
   34.2300   -3.3473   24.4758 O   0  0  0  0  0  0
   28.4761    1.0817   26.8129 O   0  0  0  0  0  0
   32.3802   -2.0939   24.7697 N   0  0  0  0  0  0
   30.2594   -1.2573   26.5596 N   0  0  0  0  0  0
   33.0341   -2.9427   22.5470 C   0  0  0  0  0  0
   33.4092   -3.2046   20.1012 C   0  0  0  0  0  0
   32.0816   -3.0803   20.4184 C   0  0  0  0  0  0
   33.2428   -2.8126   23.9859 C   0  0  0  0  0  0
   31.8542   -2.9548   21.7904 C   0  0  0  0  0  0
   28.9541   -1.3298   27.0503 C   0  0  0  0  0  0
   31.2971   -1.2301   24.2525 C   0  0  0  0  0  0
   32.6553   -2.0434   26.2261 C   0  0  0  0  0  0
   33.6444   -3.3625   18.6247 C   0  0  0  0  0  0
   31.2328   -3.0892   19.1729 C   0  0  0  0  0  0
   30.6283   -0.4319   25.3978 C   0  0  0  0  0  0
   31.3067   -2.2180   26.9469 C   0  0  0  0  0  0
   28.0874   -0.2081   27.0960 C   0  0  0  0  0  0
   32.2140   -3.6321   18.1184 C   0  0  0  0  0  0
   28.4490   -2.5717   27.4735 C   0  0  0  0  0  0
   26.7521   -0.3722   27.4636 C   0  0  0  0  0  0
   27.1239   -2.7200   27.8567 C   0  0  0  0  0  0
   26.2804   -1.6191   27.8564 C   0  0  0  0  0  0
   29.4004    1.6464   27.7377 C   0  0  0  0  0  0
   30.8608   -2.8889   22.1862 H   0  0  0  0  0  0
   31.6620   -0.5426   23.4879 H   0  0  0  0  0  0
   30.4945   -1.8354   23.8494 H   0  0  0  0  0  0
   33.3129   -2.8422   26.5735 H   0  0  0  0  0  0
   33.0915   -1.0842   26.5074 H   0  0  0  0  0  0
   34.3025   -4.1993   18.3873 H   0  0  0  0  0  0
   34.0718   -2.4648   18.1762 H   0  0  0  0  0  0
   30.9045   -2.0865   18.8994 H   0  0  0  0  0  0
   30.3453   -3.7187   19.2548 H   0  0  0  0  0  0
   29.7621    0.0938   24.9957 H   0  0  0  0  0  0
   31.3211    0.3161   25.7819 H   0  0  0  0  0  0
   30.9681   -3.2181   26.6743 H   0  0  0  0  0  0
   31.4765   -2.1475   28.0221 H   0  0  0  0  0  0
   32.0661   -4.7097   18.0212 H   0  0  0  0  0  0
   32.0336   -3.2033   17.1321 H   0  0  0  0  0  0
   29.0579   -3.4618   27.4650 H   0  0  0  0  0  0
   26.0860    0.4792   27.4642 H   0  0  0  0  0  0
   26.7475   -3.6908   28.1527 H   0  0  0  0  0  0
   25.2566   -1.7409   28.1575 H   0  0  0  0  0  0
   29.6601    2.6523   27.4124 H   0  0  0  0  0  0
   28.9528    1.7289   28.7301 H   0  0  0  0  0  0
   30.3288    1.0821   27.8268 H   0  0  0  0  0  0
  1  6  1  0  0  0
  1  7  1  0  0  0
  2  9  2  0  0  0
  3 18  1  0  0  0
  3 24  1  0  0  0
  4  9  1  0  0  0
  4 12  1  0  0  0
  4 13  1  0  0  0
  5 11  1  0  0  0
  5 16  1  0  0  0
  5 17  1  0  0  0
  6  9  1  0  0  0
  6 10  2  0  0  0
  7  8  2  0  0  0
  7 14  1  0  0  0
  8 10  1  0  0  0
  8 15  1  0  0  0
 10 25  1  0  0  0
 11 18  1  0  0  0
 11 20  2  0  0  0
 12 16  1  0  0  0
 12 26  1  0  0  0
 12 27  1  0  0  0
 13 17  1  0  0  0
 13 28  1  0  0  0
 13 29  1  0  0  0
 14 19  1  0  0  0
 14 30  1  0  0  0
 14 31  1  0  0  0
 15 19  1  0  0  0
 15 32  1  0  0  0
 15 33  1  0  0  0
 16 34  1  0  0  0
 16 35  1  0  0  0
 17 36  1  0  0  0
 17 37  1  0  0  0
 18 21  2  0  0  0
 19 38  1  0  0  0
 19 39  1  0  0  0
 20 22  1  0  0  0
 20 40  1  0  0  0
 21 23  1  0  0  0
 21 41  1  0  0  0
 22 23  2  0  0  0
 22 42  1  0  0  0
 23 43  1  0  0  0
 24 44  1  0  0  0
 24 45  1  0  0  0
 24 46  1  0  0  0
M  END
> <s_m_entry_id>
16903

> <s_m_entry_name>
dock_pv.69

> <s_m_Source_Path>
/home/csk/Desktop/cluster/DUD-E-result/esr1

> <s_m_Source_File>
dock_pv.maegz

> <i_m_Source_File_Index>
69

> <chembl_id>
CHEMBL1442697

> <chembl_pref_name>
None

> <i_lp_mmshare_version>
53161

> <r_lp_tautomer_probability>
1

> <s_lp_Force_Field>
OPLS_2005

> <r_lp_Energy>
68.98402

> <b_lp_Chiralities_Consistent>
1

> <s_lp_Variant>
CHEMBL206_lig135-1

> <s_i_glide_gridfile>
glide-grid_1sj0

> <i_i_glide_lignum>
162

> <i_i_glide_rotatable_bonds>
4

> <r_i_docking_score>
-7.06402757567316

> <r_i_glide_ligand_efficiency>
-0.294334482319715

> <r_i_glide_ligand_efficiency_sa>
-0.849007560405127

> <r_i_glide_ligand_efficiency_ln>
-1.69074594596233

> <r_i_glide_gscore>
-7.06402757567316

> <r_i_glide_lipo>
-2.88950056594882

> <r_i_glide_hbond>
0

> <r_i_glide_metal>
0

> <r_i_glide_rewards>
-2.53108797256992

> <r_i_glide_evdw>
-41.5575370788574

> <r_i_glide_ecoul>
-0.337604850530624

> <r_i_glide_erotb>
0.485078544368048

> <r_i_glide_esite>
0

> <r_i_glide_emodel>
-53.2377902106164

> <r_i_glide_energy>
-41.895141929388

> <r_i_glide_einternal>
9.30090808868408

> <i_i_glide_confnum>
57

> <i_i_glide_posenum>
161

> <r_i_glide_eff_state_penalty>
0

> <s_user_duplicate_titles>
CHEMBL206_lig135

> <i_f3d_flags>
0

> <s_m_subgroup_title>
dock_pv

> <s_m_subgroupid>
dock_pv

> <b_m_subgroup_collapsed>
1

$$$$
CHEMBL206_lig85
                    3D
 Schrodinger Suite 2021-1.
 39 42  0  0  1  0            999 V2000
   35.3743   -2.9428   21.8637 Cl  0  0  0  0  0  0
   29.8086   -2.8620   19.0640 Cl  0  0  0  0  0  0
   28.8644    0.6845   26.2650 S   0  0  0  0  0  0
   31.6602   -1.9615   23.9157 O   0  0  0  0  0  0
   30.9402    0.1909   27.9693 N   0  0  0  0  0  0
   31.6379   -0.6204   27.1140 N   0  0  0  0  0  0
   29.5142    1.6833   28.7635 N   0  0  0  0  0  0
   30.4942    1.4536   29.7284 N   0  0  0  0  0  0
   31.0222   -1.1265   26.1157 C   0  0  0  0  0  0
   29.7938    0.9147   27.7422 C   0  0  0  0  0  0
   31.8425   -1.9792   25.2663 C   0  0  0  0  0  0
   31.3161    0.5548   29.2430 C   0  0  0  0  0  0
   32.5810   -2.8070   23.3643 C   0  0  0  0  0  0
   32.6275   -2.9312   21.8795 C   0  0  0  0  0  0
   29.5107   -0.9898   25.8404 C   0  0  0  0  0  0
   32.8595   -2.8648   25.5839 C   0  0  0  0  0  0
   33.3078   -3.3885   24.3816 C   0  0  0  0  0  0
   33.8138   -2.9825   21.1232 C   0  0  0  0  0  0
   31.4083   -2.9428   21.2055 C   0  0  0  0  0  0
   32.5342   -0.0046   29.9647 C   0  0  0  0  0  0
   31.3515   -2.9421   19.8181 C   0  0  0  0  0  0
   33.7540   -3.0225   19.7260 C   0  0  0  0  0  0
   32.5238   -2.9892   19.0703 C   0  0  0  0  0  0
   33.8102    0.8505   29.8236 C   0  0  0  0  0  0
   34.2117    1.2049   28.3827 C   0  0  0  0  0  0
   29.2639   -1.2365   24.8088 H   0  0  0  0  0  0
   28.9628   -1.6456   26.5174 H   0  0  0  0  0  0
   33.2207   -3.1046   26.5728 H   0  0  0  0  0  0
   34.0599   -4.1419   24.2571 H   0  0  0  0  0  0
   30.4804   -2.9406   21.7457 H   0  0  0  0  0  0
   32.7477   -1.0165   29.6152 H   0  0  0  0  0  0
   32.3123   -0.1222   31.0264 H   0  0  0  0  0  0
   34.6652   -3.0617   19.1477 H   0  0  0  0  0  0
   32.4786   -3.0057   17.9911 H   0  0  0  0  0  0
   34.6396    0.2986   30.2635 H   0  0  0  0  0  0
   33.7139    1.7591   30.4181 H   0  0  0  0  0  0
   35.1553    1.7528   28.3662 H   0  0  0  0  0  0
   33.4625    1.8300   27.8969 H   0  0  0  0  0  0
   34.3427    0.3054   27.7806 H   0  0  0  0  0  0
  1 18  1  0  0  0
  2 21  1  0  0  0
  3 10  1  0  0  0
  3 15  1  0  0  0
  4 11  1  0  0  0
  4 13  1  0  0  0
  5  6  1  0  0  0
  5 10  1  0  0  0
  5 12  1  0  0  0
  6  9  2  0  0  0
  7  8  1  0  0  0
  7 10  2  0  0  0
  8 12  2  0  0  0
  9 11  1  0  0  0
  9 15  1  0  0  0
 11 16  2  0  0  0
 12 20  1  0  0  0
 13 14  1  0  0  0
 13 17  2  0  0  0
 14 18  1  0  0  0
 14 19  2  0  0  0
 15 26  1  0  0  0
 15 27  1  0  0  0
 16 17  1  0  0  0
 16 28  1  0  0  0
 17 29  1  0  0  0
 18 22  2  0  0  0
 19 21  1  0  0  0
 19 30  1  0  0  0
 20 24  1  0  0  0
 20 31  1  0  0  0
 20 32  1  0  0  0
 21 23  2  0  0  0
 22 23  1  0  0  0
 22 33  1  0  0  0
 23 34  1  0  0  0
 24 25  1  0  0  0
 24 35  1  0  0  0
 24 36  1  0  0  0
 25 37  1  0  0  0
 25 38  1  0  0  0
 25 39  1  0  0  0
M  END
> <s_m_entry_id>
16904

> <s_m_entry_name>
dock_pv.70

> <s_m_Source_Path>
/home/csk/Desktop/cluster/DUD-E-result/esr1

> <s_m_Source_File>
dock_pv.maegz

> <i_m_Source_File_Index>
70

> <chembl_id>
CHEMBL1401227

> <chembl_pref_name>
None

> <i_lp_mmshare_version>
53161

> <r_lp_tautomer_probability>
1

> <s_lp_Force_Field>
OPLS_2005

> <r_lp_Energy>
15.226931

> <b_lp_Chiralities_Consistent>
1

> <s_lp_Variant>
CHEMBL206_lig85-1

> <s_i_glide_gridfile>
glide-grid_1sj0

> <i_i_glide_lignum>
102

> <i_i_glide_rotatable_bonds>
4

> <r_i_docking_score>
-7.06236324504247

> <r_i_glide_ligand_efficiency>
-0.282494529801699

> <r_i_glide_ligand_efficiency_sa>
-0.826019015201987

> <r_i_glide_ligand_efficiency_ln>
-1.67399173102306

> <r_i_glide_gscore>
-7.06236324504247

> <r_i_glide_lipo>
-2.75046662490795

> <r_i_glide_hbond>
0

> <r_i_glide_metal>
0

> <r_i_glide_rewards>
-2.39272520813425

> <r_i_glide_evdw>
-43.3914375305176

> <r_i_glide_ecoul>
-0.856350719928741

> <r_i_glide_erotb>
0.378853072514913

> <r_i_glide_esite>
0

> <r_i_glide_emodel>
-59.6692892328608

> <r_i_glide_energy>
-44.2477882504463

> <r_i_glide_einternal>
3.28099536895752

> <i_i_glide_confnum>
12

> <i_i_glide_posenum>
172

> <r_i_glide_eff_state_penalty>
0

> <s_user_duplicate_titles>
CHEMBL206_lig85

> <i_f3d_flags>
0

> <s_m_subgroup_title>
dock_pv

> <s_m_subgroupid>
dock_pv

> <b_m_subgroup_collapsed>
1

$$$$
CHEMBL206_lig200
                    3D
 Schrodinger Suite 2021-1.
 38 40  0  0  1  0            999 V2000
   31.3935   -0.9927   25.2260 O   0  0  0  0  0  0
   30.7713   -2.1152   28.0642 O   0  0  0  0  0  0
   28.1170   -3.2861   27.8942 O   0  0  0  0  0  0
   31.5340   -1.3281   23.8638 N   0  0  0  0  0  0
   26.8601   -2.1422   26.4412 N   0  0  0  0  0  0
   32.4177   -2.2203   23.7036 C   0  0  0  0  0  0
   32.1769   -1.8690   26.0193 C   0  0  2  0  0  0
   30.0096   -0.9733   27.9476 C   0  0  0  0  0  0
   28.6452   -0.9627   27.5696 C   0  0  0  0  0  0
   32.8557   -2.7690   22.4153 C   0  0  0  0  0  0
   32.9982   -2.6651   25.0083 C   0  0  0  0  0  0
   31.1997   -2.7308   26.8469 C   0  0  0  0  0  0
   27.8678   -2.2340   27.3114 C   0  0  0  0  0  0
   30.6316    0.2198   28.3260 C   0  0  0  0  0  0
   27.9784    0.2741   27.5069 C   0  0  0  0  0  0
   34.2058   -3.0665   22.1993 C   0  0  0  0  0  0
   31.9347   -2.9420   21.3757 C   0  0  0  0  0  0
   29.9488    1.4318   28.2697 C   0  0  0  0  0  0
   28.6239    1.4573   27.8482 C   0  0  0  0  0  0
   34.6354   -3.4874   20.9442 C   0  0  0  0  0  0
   32.3695   -3.3423   20.1169 C   0  0  0  0  0  0
   33.7166   -3.6215   19.9076 C   0  0  0  0  0  0
   26.7262   -1.3005   25.9059 H   0  0  0  0  0  0
   26.2478   -2.9358   26.2626 H   0  0  0  0  0  0
   32.8302   -1.2910   26.6753 H   0  0  0  0  0  0
   34.0558   -2.4217   25.0688 H   0  0  0  0  0  0
   32.8816   -3.7418   25.1261 H   0  0  0  0  0  0
   31.6958   -3.6730   27.0641 H   0  0  0  0  0  0
   30.3366   -3.0143   26.2642 H   0  0  0  0  0  0
   31.6608    0.2030   28.6532 H   0  0  0  0  0  0
   26.9333    0.3360   27.2344 H   0  0  0  0  0  0
   34.9388   -2.9415   22.9826 H   0  0  0  0  0  0
   30.8832   -2.7412   21.5243 H   0  0  0  0  0  0
   30.4457    2.3453   28.5584 H   0  0  0  0  0  0
   28.0738    2.3822   27.8121 H   0  0  0  0  0  0
   35.6771   -3.7129   20.7732 H   0  0  0  0  0  0
   31.6571   -3.4740   19.3156 H   0  0  0  0  0  0
   34.0479   -3.9572   18.9360 H   0  0  0  0  0  0
  1  4  1  0  0  0
  1  7  1  0  0  0
  2  8  1  0  0  0
  2 12  1  0  0  0
  3 13  2  0  0  0
  4  6  2  0  0  0
  5 13  1  0  0  0
  5 23  1  0  0  0
  5 24  1  0  0  0
  6 10  1  0  0  0
  6 11  1  0  0  0
  7 11  1  0  0  0
  7 12  1  0  0  0
  7 25  1  0  0  0
  8  9  1  0  0  0
  8 14  2  0  0  0
  9 13  1  0  0  0
  9 15  2  0  0  0
 10 16  2  0  0  0
 10 17  1  0  0  0
 11 26  1  0  0  0
 11 27  1  0  0  0
 12 28  1  0  0  0
 12 29  1  0  0  0
 14 18  1  0  0  0
 14 30  1  0  0  0
 15 19  1  0  0  0
 15 31  1  0  0  0
 16 20  1  0  0  0
 16 32  1  0  0  0
 17 21  2  0  0  0
 17 33  1  0  0  0
 18 19  2  0  0  0
 18 34  1  0  0  0
 19 35  1  0  0  0
 20 22  2  0  0  0
 20 36  1  0  0  0
 21 22  1  0  0  0
 21 37  1  0  0  0
 22 38  1  0  0  0
M  END
> <s_m_entry_id>
16905

> <s_m_entry_name>
dock_pv.71

> <s_m_Source_Path>
/home/csk/Desktop/cluster/DUD-E-result/esr1

> <s_m_Source_File>
dock_pv.maegz

> <i_m_Source_File_Index>
71

> <chembl_id>
CHEMBL1326483

> <chembl_pref_name>
None

> <i_lp_mmshare_version>
53161

> <r_lp_tautomer_probability>
1

> <s_lp_Force_Field>
OPLS_2005

> <r_lp_Energy>
27.967558

> <b_lp_Chiralities_Consistent>
1

> <s_lp_Variant>
CHEMBL206_lig200-1

> <s_i_glide_gridfile>
glide-grid_1sj0

> <i_i_glide_lignum>
265

> <i_i_glide_rotatable_bonds>
5

> <r_i_docking_score>
-7.06193569440693

> <r_i_glide_ligand_efficiency>
-0.320997077018497

> <r_i_glide_ligand_efficiency_sa>
-0.899446433904502

> <r_i_glide_ligand_efficiency_ln>
-1.72619467407624

> <r_i_glide_gscore>
-7.06193569440693

> <r_i_glide_lipo>
-2.74730419394426

> <r_i_glide_hbond>
-0.156365003194126

> <r_i_glide_metal>
0

> <r_i_glide_rewards>
-2.54755022596262

> <r_i_glide_evdw>
-37.6251602172852

> <r_i_glide_ecoul>
-3.20404720306396

> <r_i_glide_erotb>
0.83448346992636

> <r_i_glide_esite>
-0.0833346499084224

> <r_i_glide_emodel>
-53.2280584333072

> <r_i_glide_energy>
-40.8292074203491

> <r_i_glide_einternal>
9.18524932861328

> <i_i_glide_confnum>
44

> <i_i_glide_posenum>
339

> <r_i_glide_eff_state_penalty>
0

> <s_user_duplicate_titles>
CHEMBL206_lig200

> <i_f3d_flags>
0

> <s_m_subgroup_title>
dock_pv

> <s_m_subgroupid>
dock_pv

> <b_m_subgroup_collapsed>
1

$$$$
CHEMBL206_lig301
                    3D
 Schrodinger Suite 2021-1.
 44 48  0  0  1  0            999 V2000
   28.9002   -0.1049   25.4669 S   0  0  0  0  0  0
   34.3105   -3.3413   24.7014 O   0  0  0  0  0  0
   31.9800   -2.2218   26.0471 N   0  0  0  0  0  0
   33.5666   -2.9224   22.6414 N   0  0  0  0  0  0
   32.2339   -2.2593   24.6558 C   0  0  0  0  0  0
   30.7572   -1.6870   26.2888 C   0  0  0  0  0  0
   30.3251   -1.0702   25.1366 C   0  0  0  0  0  0
   33.4005   -2.9015   24.0020 C   0  0  0  0  0  0
   31.2527   -1.4316   24.0918 C   0  0  0  0  0  0
   32.6802   -2.9433   21.5472 C   0  0  0  0  0  0
   33.3807   -2.7233   20.3567 C   0  0  0  0  0  0
   29.9229   -1.4883   27.4290 C   0  0  0  0  0  0
   32.8633   -2.3628   27.1950 C   0  0  0  0  0  0
   34.9234   -3.0039   22.0886 C   0  0  0  0  0  0
   28.8595   -0.6804   27.1193 C   0  0  0  0  0  0
   34.8293   -2.4989   20.6570 C   0  0  0  0  0  0
   33.2874   -1.0113   27.8157 C   0  0  0  0  0  0
   31.3481   -3.3305   21.4781 C   0  0  0  0  0  0
   32.7036   -2.6620   19.1365 C   0  0  0  0  0  0
   30.6649   -3.3175   20.2603 C   0  0  0  0  0  0
   31.3382   -2.9471   19.0934 C   0  0  0  0  0  0
   33.0275    0.2267   27.1906 C   0  0  0  0  0  0
   34.0565   -1.0273   28.9815 C   0  0  0  0  0  0
   33.6022    1.3976   27.6681 C   0  0  0  0  0  0
   34.6582    0.1395   29.4333 C   0  0  0  0  0  0
   34.4418    1.3404   28.7715 C   0  0  0  0  0  0
   31.2394   -1.1241   23.0633 H   0  0  0  0  0  0
   30.1151   -1.8865   28.4139 H   0  0  0  0  0  0
   32.3304   -2.9374   27.9443 H   0  0  0  0  0  0
   33.7094   -2.9617   26.9282 H   0  0  0  0  0  0
   35.7255   -2.5607   22.6806 H   0  0  0  0  0  0
   35.1537   -4.0686   22.0493 H   0  0  0  0  0  0
   28.0723   -0.3508   27.7820 H   0  0  0  0  0  0
   35.5286   -3.0214   20.0056 H   0  0  0  0  0  0
   35.0804   -1.4394   20.6097 H   0  0  0  0  0  0
   30.8584   -3.6484   22.3663 H   0  0  0  0  0  0
   33.2259   -2.4274   18.2215 H   0  0  0  0  0  0
   29.6263   -3.6113   20.2213 H   0  0  0  0  0  0
   30.8135   -2.9244   18.1502 H   0  0  0  0  0  0
   32.4473    0.3003   26.2837 H   0  0  0  0  0  0
   34.2734   -1.9595   29.4831 H   0  0  0  0  0  0
   33.4371    2.3333   27.1558 H   0  0  0  0  0  0
   35.3399    0.0967   30.2623 H   0  0  0  0  0  0
   34.9360    2.2340   29.1111 H   0  0  0  0  0  0
  1  7  1  0  0  0
  1 15  1  0  0  0
  2  8  2  0  0  0
  3  5  1  0  0  0
  3  6  1  0  0  0
  3 13  1  0  0  0
  4  8  1  0  0  0
  4 10  1  0  0  0
  4 14  1  0  0  0
  5  8  1  0  0  0
  5  9  2  0  0  0
  6  7  2  0  0  0
  6 12  1  0  0  0
  7  9  1  0  0  0
  9 27  1  0  0  0
 10 11  1  0  0  0
 10 18  2  0  0  0
 11 16  1  0  0  0
 11 19  2  0  0  0
 12 15  2  0  0  0
 12 28  1  0  0  0
 13 17  1  0  0  0
 13 29  1  0  0  0
 13 30  1  0  0  0
 14 16  1  0  0  0
 14 31  1  0  0  0
 14 32  1  0  0  0
 15 33  1  0  0  0
 16 34  1  0  0  0
 16 35  1  0  0  0
 17 22  2  0  0  0
 17 23  1  0  0  0
 18 20  1  0  0  0
 18 36  1  0  0  0
 19 21  1  0  0  0
 19 37  1  0  0  0
 20 21  2  0  0  0
 20 38  1  0  0  0
 21 39  1  0  0  0
 22 24  1  0  0  0
 22 40  1  0  0  0
 23 25  2  0  0  0
 23 41  1  0  0  0
 24 26  2  0  0  0
 24 42  1  0  0  0
 25 26  1  0  0  0
 25 43  1  0  0  0
 26 44  1  0  0  0
M  END
> <s_m_entry_id>
16906

> <s_m_entry_name>
dock_pv.72

> <s_m_Source_Path>
/home/csk/Desktop/cluster/DUD-E-result/esr1

> <s_m_Source_File>
dock_pv.maegz

> <i_m_Source_File_Index>
72

> <chembl_id>
CHEMBL1324684

> <chembl_pref_name>
None

> <i_lp_mmshare_version>
53161

> <r_lp_tautomer_probability>
1

> <s_lp_Force_Field>
OPLS_2005

> <r_lp_Energy>
66.657837

> <b_lp_Chiralities_Consistent>
1

> <s_lp_Variant>
CHEMBL206_lig301-1

> <s_i_glide_gridfile>
glide-grid_1sj0

> <i_i_glide_lignum>
385

> <i_i_glide_rotatable_bonds>
4

> <r_i_docking_score>
-7.05786982479643

> <r_i_glide_ligand_efficiency>
-0.27145653172294

> <r_i_glide_ligand_efficiency_sa>
-0.804188907099335

> <r_i_glide_ligand_efficiency_ln>
-1.65751756959363

> <r_i_glide_gscore>
-7.05786982479643

> <r_i_glide_lipo>
-3.63328425687746

> <r_i_glide_hbond>
0

> <r_i_glide_metal>
0

> <r_i_glide_rewards>
-2.73478555207148

> <r_i_glide_evdw>
-27.8761978149414

> <r_i_glide_ecoul>
0.717833936214447

> <r_i_glide_erotb>
0.596334784467411

> <r_i_glide_esite>
0

> <r_i_glide_emodel>
-31.7808825621061

> <r_i_glide_energy>
-27.158363878727

> <r_i_glide_einternal>
12.1699810028076

> <i_i_glide_confnum>
7

> <i_i_glide_posenum>
3

> <r_i_glide_eff_state_penalty>
0

> <s_user_duplicate_titles>
CHEMBL206_lig301

> <i_f3d_flags>
0

> <s_m_subgroup_title>
dock_pv

> <s_m_subgroupid>
dock_pv

> <b_m_subgroup_collapsed>
1

$$$$
CHEMBL206_lig229
                    3D
 Schrodinger Suite 2021-1.
 43 45  0  0  1  0            999 V2000
   31.3572    0.5370   29.3513 O   0  0  0  0  0  0
   31.4783   -2.2779   26.1687 O   0  0  0  0  0  0
   32.2354   -1.9840   28.3014 O   0  0  0  0  0  0
   33.7225   -3.1303   19.9288 O   0  0  0  0  0  0
   32.5642   -1.7488   23.7512 O   0  0  0  0  0  0
   33.6338   -3.7417   23.6248 N   0  0  0  0  0  0
   30.2821   -0.7591   27.5573 C   0  0  0  0  0  0
   30.3183    0.3140   28.4785 C   0  0  0  0  0  0
   31.4080   -1.7437   27.4189 C   0  0  0  0  0  0
   29.1331   -0.9153   26.7630 C   0  0  0  0  0  0
   29.2590    1.2195   28.5408 C   0  0  0  0  0  0
   32.5756    0.9421   28.8621 C   0  0  0  0  0  0
   28.0688   -0.0239   26.8609 C   0  0  0  0  0  0
   28.1396    1.0583   27.7308 C   0  0  0  0  0  0
   32.5698   -3.1034   25.7468 C   0  0  0  0  0  0
   32.8980   -2.8154   24.2697 C   0  0  0  0  0  0
   33.7111    0.4114   29.4647 C   0  0  0  0  0  0
   32.6999    1.8251   27.7835 C   0  0  0  0  0  0
   33.1824   -3.3579   21.1553 C   0  0  0  0  0  0
   34.1849   -3.6193   22.2663 C   0  0  0  0  0  0
   31.7976   -3.2914   21.0592 C   0  0  0  0  0  0
   34.9628    0.7100   28.9516 C   0  0  0  0  0  0
   33.9563    2.1370   27.2783 C   0  0  0  0  0  0
   32.6996   -2.9173   19.0637 C   0  0  0  0  0  0
   31.4921   -2.9651   19.7351 C   0  0  0  0  0  0
   35.0848    1.5729   27.8636 C   0  0  0  0  0  0
   33.9049   -4.5711   24.1379 H   0  0  0  0  0  0
   29.0416   -1.7405   26.0701 H   0  0  0  0  0  0
   29.3029    2.0427   29.2392 H   0  0  0  0  0  0
   27.1866   -0.1838   26.2646 H   0  0  0  0  0  0
   27.3162    1.7562   27.7999 H   0  0  0  0  0  0
   32.2588   -4.1416   25.8614 H   0  0  0  0  0  0
   33.4770   -2.9809   26.3413 H   0  0  0  0  0  0
   33.6167   -0.2725   30.2966 H   0  0  0  0  0  0
   31.8225    2.2526   27.3296 H   0  0  0  0  0  0
   34.7187   -4.5417   22.0389 H   0  0  0  0  0  0
   34.9367   -2.8305   22.2794 H   0  0  0  0  0  0
   31.0920   -3.4457   21.8617 H   0  0  0  0  0  0
   35.8414    0.2612   29.3903 H   0  0  0  0  0  0
   34.0550    2.8002   26.4329 H   0  0  0  0  0  0
   32.9716   -2.7312   18.0357 H   0  0  0  0  0  0
   30.5093   -2.8233   19.3104 H   0  0  0  0  0  0
   36.0643    1.7962   27.4662 H   0  0  0  0  0  0
  1  8  1  0  0  0
  1 12  1  0  0  0
  2  9  1  0  0  0
  2 15  1  0  0  0
  3  9  2  0  0  0
  4 19  1  0  0  0
  4 24  1  0  0  0
  5 16  2  0  0  0
  6 16  1  0  0  0
  6 20  1  0  0  0
  6 27  1  0  0  0
  7  8  1  0  0  0
  7  9  1  0  0  0
  7 10  2  0  0  0
  8 11  2  0  0  0
 10 13  1  0  0  0
 10 28  1  0  0  0
 11 14  1  0  0  0
 11 29  1  0  0  0
 12 17  2  0  0  0
 12 18  1  0  0  0
 13 14  2  0  0  0
 13 30  1  0  0  0
 14 31  1  0  0  0
 15 16  1  0  0  0
 15 32  1  0  0  0
 15 33  1  0  0  0
 17 22  1  0  0  0
 17 34  1  0  0  0
 18 23  2  0  0  0
 18 35  1  0  0  0
 19 20  1  0  0  0
 19 21  2  0  0  0
 20 36  1  0  0  0
 20 37  1  0  0  0
 21 25  1  0  0  0
 21 38  1  0  0  0
 22 26  2  0  0  0
 22 39  1  0  0  0
 23 26  1  0  0  0
 23 40  1  0  0  0
 24 25  2  0  0  0
 24 41  1  0  0  0
 25 42  1  0  0  0
 26 43  1  0  0  0
M  END
> <s_m_entry_id>
16907

> <s_m_entry_name>
dock_pv.73

> <s_m_Source_Path>
/home/csk/Desktop/cluster/DUD-E-result/esr1

> <s_m_Source_File>
dock_pv.maegz

> <i_m_Source_File_Index>
73

> <chembl_id>
CHEMBL1548834

> <chembl_pref_name>
None

> <i_lp_mmshare_version>
53161

> <r_lp_tautomer_probability>
1

> <s_lp_Force_Field>
OPLS_2005

> <r_lp_Energy>
13.4087

> <b_lp_Chiralities_Consistent>
1

> <s_lp_Variant>
CHEMBL206_lig229-1

> <s_i_glide_gridfile>
glide-grid_1sj0

> <i_i_glide_lignum>
300

> <i_i_glide_rotatable_bonds>
9

> <r_i_docking_score>
-7.0120081968558

> <r_i_glide_ligand_efficiency>
-0.269692622955992

> <r_i_glide_ligand_efficiency_sa>
-0.798963334317898

> <r_i_glide_ligand_efficiency_ln>
-1.64674711675605

> <r_i_glide_gscore>
-7.0120081968558

> <r_i_glide_lipo>
-3.29169107722056

> <r_i_glide_hbond>
-0.148297672211003

> <r_i_glide_metal>
0

> <r_i_glide_rewards>
-2.27020108793994

> <r_i_glide_evdw>
-45.8339385986328

> <r_i_glide_ecoul>
-1.64039790630341

> <r_i_glide_erotb>
1.23593825639286

> <r_i_glide_esite>
0

> <r_i_glide_emodel>
-65.1330667837651

> <r_i_glide_energy>
-47.4743365049362

> <r_i_glide_einternal>
5.05064582824707

> <i_i_glide_confnum>
35

> <i_i_glide_posenum>
258

> <r_i_glide_eff_state_penalty>
0

> <s_user_duplicate_titles>
CHEMBL206_lig229

> <i_f3d_flags>
0

> <s_m_subgroup_title>
dock_pv

> <s_m_subgroupid>
dock_pv

> <b_m_subgroup_collapsed>
1

$$$$
CHEMBL206_lig251
                    3D
 Schrodinger Suite 2021-1.
 40 42  0  0  1  0            999 V2000
   32.5746   -2.1426   26.5570 S   0  0  0  0  0  0
   27.5923   -1.6238   27.0538 S   0  0  0  0  0  0
   34.0599   -3.3419   24.2217 O   0  0  0  0  0  0
   31.0458   -3.0860   21.4641 O   0  0  0  0  0  0
   33.2117    0.0545   28.9021 O   0  0  0  0  0  0
   30.5044   -1.3420   25.2490 N   0  0  0  0  0  0
   32.0946   -2.2634   23.8002 N   0  0  0  0  0  0
   31.2882   -1.1792   28.7853 N   0  0  0  0  0  0
   30.2382   -1.0829   26.5168 C   0  0  0  0  0  0
   31.2709   -1.3634   27.4132 C   0  0  0  0  0  0
   31.6713   -1.9090   25.0781 C   0  0  0  0  0  0
   28.9534   -0.5558   26.8754 C   0  0  0  0  0  0
   33.2105   -2.9279   23.4323 C   0  0  0  0  0  0
   33.4176   -3.1083   21.9393 C   0  0  0  0  0  0
   28.6089    0.7634   27.1393 C   0  0  0  0  0  0
   32.3519   -3.1830   21.0078 C   0  0  0  0  0  0
   32.2343   -0.4717   29.4358 C   0  0  0  0  0  0
   26.5698   -0.2913   27.4640 C   0  0  0  0  0  0
   27.2597    0.9123   27.4640 C   0  0  0  0  0  0
   34.7378   -3.1892   21.4651 C   0  0  0  0  0  0
   32.6544   -3.3420   19.6426 C   0  0  0  0  0  0
   35.0127   -3.3409   20.1103 C   0  0  0  0  0  0
   33.9698   -3.4216   19.1981 C   0  0  0  0  0  0
   32.0400   -0.3060   30.9391 C   0  0  0  0  0  0
   29.9572   -3.1524   20.5423 C   0  0  0  0  0  0
   31.4406   -2.0935   23.0480 H   0  0  0  0  0  0
   30.4549   -1.4398   29.2887 H   0  0  0  0  0  0
   29.3095    1.5843   27.0901 H   0  0  0  0  0  0
   25.5229   -0.4567   27.6676 H   0  0  0  0  0  0
   26.7961    1.8579   27.6937 H   0  0  0  0  0  0
   35.5721   -3.1304   22.1506 H   0  0  0  0  0  0
   31.8752   -3.4285   18.9019 H   0  0  0  0  0  0
   36.0351   -3.4109   19.7691 H   0  0  0  0  0  0
   34.1784   -3.5539   18.1465 H   0  0  0  0  0  0
   31.7731    0.7252   31.1683 H   0  0  0  0  0  0
   31.2603   -0.9606   31.3250 H   0  0  0  0  0  0
   32.9651   -0.5416   31.4628 H   0  0  0  0  0  0
   29.0251   -2.9417   21.0640 H   0  0  0  0  0  0
   30.0441   -2.4145   19.7443 H   0  0  0  0  0  0
   29.8644   -4.1418   20.0974 H   0  0  0  0  0  0
  1 10  1  0  0  0
  1 11  1  0  0  0
  2 12  1  0  0  0
  2 18  1  0  0  0
  3 13  2  0  0  0
  4 16  1  0  0  0
  4 25  1  0  0  0
  5 17  2  0  0  0
  6  9  1  0  0  0
  6 11  2  0  0  0
  7 11  1  0  0  0
  7 13  1  0  0  0
  7 26  1  0  0  0
  8 10  1  0  0  0
  8 17  1  0  0  0
  8 27  1  0  0  0
  9 10  2  0  0  0
  9 12  1  0  0  0
 12 15  2  0  0  0
 13 14  1  0  0  0
 14 16  1  0  0  0
 14 20  2  0  0  0
 15 19  1  0  0  0
 15 28  1  0  0  0
 16 21  2  0  0  0
 17 24  1  0  0  0
 18 19  2  0  0  0
 18 29  1  0  0  0
 19 30  1  0  0  0
 20 22  1  0  0  0
 20 31  1  0  0  0
 21 23  1  0  0  0
 21 32  1  0  0  0
 22 23  2  0  0  0
 22 33  1  0  0  0
 23 34  1  0  0  0
 24 35  1  0  0  0
 24 36  1  0  0  0
 24 37  1  0  0  0
 25 38  1  0  0  0
 25 39  1  0  0  0
 25 40  1  0  0  0
M  END
> <s_m_entry_id>
16908

> <s_m_entry_name>
dock_pv.74

> <s_m_Source_Path>
/home/csk/Desktop/cluster/DUD-E-result/esr1

> <s_m_Source_File>
dock_pv.maegz

> <i_m_Source_File_Index>
74

> <chembl_id>
CHEMBL1531555

> <chembl_pref_name>
None

> <i_lp_mmshare_version>
53161

> <r_lp_tautomer_probability>
0.999000488399163

> <s_lp_Force_Field>
OPLS_2005

> <r_lp_Energy>
20.436603

> <b_lp_Chiralities_Consistent>
1

> <s_lp_Variant>
CHEMBL206_lig251-1

> <s_i_glide_gridfile>
glide-grid_1sj0

> <i_i_glide_lignum>
324

> <i_i_glide_rotatable_bonds>
7

> <r_i_docking_score>
-6.98721926176379

> <r_i_glide_ligand_efficiency>
-0.279488770470552

> <r_i_glide_ligand_efficiency_sa>
-0.817230121610343

> <r_i_glide_ligand_efficiency_ln>
-1.65618035510255

> <r_i_glide_gscore>
-6.98721926176379

> <r_i_glide_lipo>
-2.97496087266891

> <r_i_glide_hbond>
0

> <r_i_glide_metal>
0

> <r_i_glide_rewards>
-2.18717768317123

> <r_i_glide_evdw>
-51.1039009094238

> <r_i_glide_ecoul>
0.248561039566994

> <r_i_glide_erotb>
0.692830183612492

> <r_i_glide_esite>
0

> <r_i_glide_emodel>
-68.2012345256075

> <r_i_glide_energy>
-50.8553398698568

> <r_i_glide_einternal>
5.99284791946411

> <i_i_glide_confnum>
10

> <i_i_glide_posenum>
376

> <r_i_glide_eff_state_penalty>
0

> <s_user_duplicate_titles>
CHEMBL206_lig251

> <i_f3d_flags>
0

> <s_m_subgroup_title>
dock_pv

> <s_m_subgroupid>
dock_pv

> <b_m_subgroup_collapsed>
1

$$$$
CHEMBL206_lig316
                    3D
 Schrodinger Suite 2021-1.
 48 51  0  0  1  0            999 V2000
   29.6960   -1.3420   26.4450 S   0  0  0  0  0  0
   30.4326    0.7657   28.1414 N   0  0  0  0  0  0
   29.8873    1.8580   28.6863 N   0  0  0  0  0  0
   28.3316    0.7532   27.4640 N   0  0  0  0  0  0
   31.2600   -1.7917   23.0640 N   0  0  0  0  0  0
   28.5756    1.8580   28.2640 N   0  0  0  0  0  0
   32.4952   -2.1136   25.0783 N   0  0  0  0  0  0
   33.0498   -3.3634   23.0731 N   0  0  0  0  0  0
   31.7941   -2.9420   21.1035 N   0  0  0  0  0  0
   34.0600   -3.7420   25.0640 N   0  0  0  0  0  0
   29.4722    0.1150   27.3898 C   0  0  0  0  0  0
   31.7905    0.4539   28.3636 C   0  0  0  0  0  0
   31.5155   -1.5386   24.3639 C   0  0  0  0  0  0
   32.0600   -2.7016   22.4539 C   0  0  0  0  0  0
   30.6124   -0.5584   25.0813 C   0  0  0  0  0  0
   33.1824   -3.0168   24.3606 C   0  0  0  0  0  0
   32.7751    1.4263   28.1472 C   0  0  0  0  0  0
   32.1467   -0.8214   28.8152 C   0  0  0  0  0  0
   32.5925   -3.3508   20.0215 C   0  0  0  0  0  0
   34.1129    1.1234   28.3874 C   0  0  0  0  0  0
   33.4851   -1.1158   29.0640 C   0  0  0  0  0  0
   31.9983   -3.3420   18.7578 C   0  0  0  0  0  0
   33.9308   -3.7420   20.1438 C   0  0  0  0  0  0
   34.4600   -0.1420   28.8523 C   0  0  0  0  0  0
   34.0545   -4.1332   17.7568 C   0  0  0  0  0  0
   32.7181   -3.7371   17.6331 C   0  0  0  0  0  0
   34.6520   -4.1339   19.0191 C   0  0  0  0  0  0
   34.8911   -4.5893   16.5596 C   0  0  0  0  0  0
   34.2667   -4.3919   15.1657 C   0  0  0  0  0  0
   30.9580   -2.4660   20.8083 H   0  0  0  0  0  0
   34.0241   -3.5953   26.0576 H   0  0  0  0  0  0
   34.3341   -4.6410   24.6804 H   0  0  0  0  0  0
   31.2298    0.2580   25.4503 H   0  0  0  0  0  0
   29.8867   -0.1418   24.3837 H   0  0  0  0  0  0
   32.5104    2.4134   27.7973 H   0  0  0  0  0  0
   31.3940   -1.5784   28.9858 H   0  0  0  0  0  0
   34.8809    1.8660   28.2227 H   0  0  0  0  0  0
   33.7690   -2.0945   29.4236 H   0  0  0  0  0  0
   30.9640   -3.0526   18.6427 H   0  0  0  0  0  0
   34.4325   -3.7646   21.0967 H   0  0  0  0  0  0
   35.4984   -0.3716   29.0465 H   0  0  0  0  0  0
   32.2182   -3.7420   16.6771 H   0  0  0  0  0  0
   35.6786   -4.4495   19.1366 H   0  0  0  0  0  0
   35.1238   -5.6461   16.6984 H   0  0  0  0  0  0
   35.8434   -4.0575   16.5884 H   0  0  0  0  0  0
   34.9419   -4.7439   14.3849 H   0  0  0  0  0  0
   34.0600   -3.3409   14.9661 H   0  0  0  0  0  0
   33.3345   -4.9471   15.0640 H   0  0  0  0  0  0
  1 11  1  0  0  0
  1 15  1  0  0  0
  2  3  1  0  0  0
  2 11  1  0  0  0
  2 12  1  0  0  0
  3  6  2  0  0  0
  4  6  1  0  0  0
  4 11  2  0  0  0
  5 13  2  0  0  0
  5 14  1  0  0  0
  7 13  1  0  0  0
  7 16  2  0  0  0
  8 14  2  0  0  0
  8 16  1  0  0  0
  9 14  1  0  0  0
  9 19  1  0  0  0
  9 30  1  0  0  0
 10 16  1  0  0  0
 10 31  1  0  0  0
 10 32  1  0  0  0
 12 17  2  0  0  0
 12 18  1  0  0  0
 13 15  1  0  0  0
 15 33  1  0  0  0
 15 34  1  0  0  0
 17 20  1  0  0  0
 17 35  1  0  0  0
 18 21  2  0  0  0
 18 36  1  0  0  0
 19 22  2  0  0  0
 19 23  1  0  0  0
 20 24  2  0  0  0
 20 37  1  0  0  0
 21 24  1  0  0  0
 21 38  1  0  0  0
 22 26  1  0  0  0
 22 39  1  0  0  0
 23 27  2  0  0  0
 23 40  1  0  0  0
 24 41  1  0  0  0
 25 26  2  0  0  0
 25 27  1  0  0  0
 25 28  1  0  0  0
 26 42  1  0  0  0
 27 43  1  0  0  0
 28 29  1  0  0  0
 28 44  1  0  0  0
 28 45  1  0  0  0
 29 46  1  0  0  0
 29 47  1  0  0  0
 29 48  1  0  0  0
M  END
> <s_m_entry_id>
16909

> <s_m_entry_name>
dock_pv.75

> <s_m_Source_Path>
/home/csk/Desktop/cluster/DUD-E-result/esr1

> <s_m_Source_File>
dock_pv.maegz

> <i_m_Source_File_Index>
75

> <chembl_id>
CHEMBL1550294

> <chembl_pref_name>
None

> <i_lp_mmshare_version>
53161

> <r_lp_tautomer_probability>
0.99999997749453

> <s_lp_Force_Field>
OPLS_2005

> <r_lp_Energy>
9.711069

> <b_lp_Chiralities_Consistent>
1

> <s_lp_Variant>
CHEMBL206_lig316-1

> <s_i_glide_gridfile>
glide-grid_1sj0

> <i_i_glide_lignum>
403

> <i_i_glide_rotatable_bonds>
7

> <r_i_docking_score>
-6.97608993584976

> <r_i_glide_ligand_efficiency>
-0.24055482537413

> <r_i_glide_ligand_efficiency_sa>
-0.739060636667315

> <r_i_glide_ligand_efficiency_ln>
-1.59734769693203

> <r_i_glide_gscore>
-6.97608993584976

> <r_i_glide_lipo>
-2.20924763846122

> <r_i_glide_hbond>
-0.226880282969796

> <r_i_glide_metal>
0

> <r_i_glide_rewards>
-2.88701678815007

> <r_i_glide_evdw>
-38.2884902954102

> <r_i_glide_ecoul>
-2.67928838729858

> <r_i_glide_erotb>
0.71720454356559

> <r_i_glide_esite>
-0.0538319969689761

> <r_i_glide_emodel>
-51.2109613949778

> <r_i_glide_energy>
-40.9677786827087

> <r_i_glide_einternal>
6.78939151763916

> <i_i_glide_confnum>
6

> <i_i_glide_posenum>
5

> <r_i_glide_eff_state_penalty>
0

> <s_user_duplicate_titles>
CHEMBL206_lig316

> <i_f3d_flags>
0

> <s_m_subgroup_title>
dock_pv

> <s_m_subgroupid>
dock_pv

> <b_m_subgroup_collapsed>
1

$$$$
CHEMBL206_lig294
                    3D
 Schrodinger Suite 2021-1.
 40 43  0  0  1  0            999 V2000
   27.2600   -4.5420   27.1629 Cl  0  0  0  0  0  0
   29.3831    0.0598   25.4640 S   0  0  0  0  0  0
   33.1765   -2.5715   27.3697 O   0  0  0  0  0  0
   29.2600    1.7057   29.0658 O   0  0  0  0  0  0
   32.6422   -2.9565   22.8180 N   0  0  0  0  0  0
   31.0768   -1.3787   23.9525 N   0  0  0  0  0  0
   33.6600   -3.7418   23.2307 N   0  0  0  0  0  0
   31.5100   -1.2098   26.3387 N   0  0  0  0  0  0
   32.0935   -2.2591   23.9012 C   0  0  0  0  0  0
   32.8405   -2.6722   25.0331 C   0  0  0  0  0  0
   32.4967   -2.1233   26.2757 C   0  0  0  0  0  0
   30.8235   -0.9211   25.2123 C   0  0  0  0  0  0
   33.7819   -3.5945   24.5205 C   0  0  0  0  0  0
   32.2975   -2.9947   21.4503 C   0  0  0  0  0  0
   30.9961   -3.3232   21.0641 C   0  0  0  0  0  0
   33.2709   -2.7284   20.4772 C   0  0  0  0  0  0
   29.7702    1.2847   26.7751 C   0  0  0  0  0  0
   29.1798    0.9042   28.1402 C   0  0  0  0  0  0
   28.5720   -0.4394   28.2523 C   0  0  0  0  0  0
   30.6436   -3.3054   19.7160 C   0  0  0  0  0  0
   32.9208   -2.7252   19.1283 C   0  0  0  0  0  0
   31.6053   -2.9958   18.7552 C   0  0  0  0  0  0
   29.4184   -1.5236   28.4919 C   0  0  0  0  0  0
   27.2407   -0.6326   27.8635 C   0  0  0  0  0  0
   27.6978   -2.9819   27.6921 C   0  0  0  0  0  0
   28.9791   -2.7996   28.1868 C   0  0  0  0  0  0
   26.8058   -1.9204   27.5678 C   0  0  0  0  0  0
   33.8092   -3.2502   27.1352 H   0  0  0  0  0  0
   34.5332   -4.1419   25.0640 H   0  0  0  0  0  0
   30.2619   -3.6039   21.7971 H   0  0  0  0  0  0
   34.2886   -2.5033   20.7629 H   0  0  0  0  0  0
   29.3854    2.2579   26.4795 H   0  0  0  0  0  0
   30.8512    1.3776   26.8768 H   0  0  0  0  0  0
   29.6368   -3.5592   19.4188 H   0  0  0  0  0  0
   33.6637   -2.5065   18.3754 H   0  0  0  0  0  0
   31.3333   -2.9946   17.7102 H   0  0  0  0  0  0
   30.4478   -1.3808   28.7925 H   0  0  0  0  0  0
   26.5860    0.2053   27.6650 H   0  0  0  0  0  0
   29.6520   -3.6391   28.2645 H   0  0  0  0  0  0
   25.8144   -2.0902   27.1708 H   0  0  0  0  0  0
  1 25  1  0  0  0
  2 12  1  0  0  0
  2 17  1  0  0  0
  3 11  1  0  0  0
  3 28  1  0  0  0
  4 18  2  0  0  0
  5  7  1  0  0  0
  5  9  1  0  0  0
  5 14  1  0  0  0
  6  9  1  0  0  0
  6 12  2  0  0  0
  7 13  2  0  0  0
  8 11  2  0  0  0
  8 12  1  0  0  0
  9 10  2  0  0  0
 10 11  1  0  0  0
 10 13  1  0  0  0
 13 29  1  0  0  0
 14 15  2  0  0  0
 14 16  1  0  0  0
 15 20  1  0  0  0
 15 30  1  0  0  0
 16 21  2  0  0  0
 16 31  1  0  0  0
 17 18  1  0  0  0
 17 32  1  0  0  0
 17 33  1  0  0  0
 18 19  1  0  0  0
 19 23  2  0  0  0
 19 24  1  0  0  0
 20 22  2  0  0  0
 20 34  1  0  0  0
 21 22  1  0  0  0
 21 35  1  0  0  0
 22 36  1  0  0  0
 23 26  1  0  0  0
 23 37  1  0  0  0
 24 27  2  0  0  0
 24 38  1  0  0  0
 25 26  2  0  0  0
 25 27  1  0  0  0
 26 39  1  0  0  0
 27 40  1  0  0  0
M  END
> <s_m_entry_id>
16910

> <s_m_entry_name>
dock_pv.76

> <s_m_Source_Path>
/home/csk/Desktop/cluster/DUD-E-result/esr1

> <s_m_Source_File>
dock_pv.maegz

> <i_m_Source_File_Index>
76

> <chembl_id>
CHEMBL1521144

> <chembl_pref_name>
None

> <i_lp_mmshare_version>
53161

> <r_lp_tautomer_probability>
0.99990000499975

> <s_lp_Force_Field>
OPLS_2005

> <r_lp_Energy>
15.475818

> <b_lp_Chiralities_Consistent>
1

> <s_lp_Variant>
CHEMBL206_lig294-1

> <s_i_glide_gridfile>
glide-grid_1sj0

> <i_i_glide_lignum>
375

> <i_i_glide_rotatable_bonds>
6

> <r_i_docking_score>
-6.96350862026729

> <r_i_glide_ligand_efficiency>
-0.257907726676566

> <r_i_glide_ligand_efficiency_sa>
-0.773723179179677

> <r_i_glide_ligand_efficiency_ln>
-1.62099000438632

> <r_i_glide_gscore>
-6.96350862026729

> <r_i_glide_lipo>
-2.83175738461986

> <r_i_glide_hbond>
0

> <r_i_glide_metal>
0

> <r_i_glide_rewards>
-2.77776975961968

> <r_i_glide_evdw>
-38.5841217041016

> <r_i_glide_ecoul>
0.521372318267822

> <r_i_glide_erotb>
0.497018761437164

> <r_i_glide_esite>
0

> <r_i_glide_emodel>
-32.8130569909894

> <r_i_glide_energy>
-38.0627493858337

> <r_i_glide_einternal>
11.8895702362061

> <i_i_glide_confnum>
4

> <i_i_glide_posenum>
36

> <r_i_glide_eff_state_penalty>
0

> <s_user_duplicate_titles>
CHEMBL206_lig294

> <i_f3d_flags>
0

> <s_m_subgroup_title>
dock_pv

> <s_m_subgroupid>
dock_pv

> <b_m_subgroup_collapsed>
1

$$$$
CHEMBL206_lig109
                    3D
 Schrodinger Suite 2021-1.
 35 37  0  0  1  0            999 V2000
   31.6594   -1.4437   24.7272 S   0  0  0  0  0  0
   35.1896   -2.3054   20.0943 S   0  0  0  0  0  0
   31.4592    1.4211   30.4916 O   0  0  0  0  0  0
   31.6621   -2.9398   22.0564 O   0  0  0  0  0  0
   32.3756   -2.4787   26.9607 N   0  0  0  0  0  0
   32.9274   -3.2946   25.9814 N   0  0  0  0  0  0
   33.1807   -3.5289   23.6603 N   0  0  0  0  0  0
   31.6760   -1.4831   26.4683 C   0  0  0  0  0  0
   30.9942   -0.4405   27.2910 C   0  0  0  0  0  0
   32.6375   -2.8967   24.7696 C   0  0  0  0  0  0
   31.5614   -0.0342   28.5067 C   0  0  0  0  0  0
   29.7891    0.1387   26.8759 C   0  0  0  0  0  0
   30.9480    0.9494   29.2969 C   0  0  0  0  0  0
   32.7030   -3.5035   22.3996 C   0  0  0  0  0  0
   33.8267   -3.3991   20.1367 C   0  0  0  0  0  0
   33.5302   -4.2546   21.3522 C   0  0  0  0  0  0
   29.1604    1.1012   27.6620 C   0  0  0  0  0  0
   29.7427    1.5015   28.8649 C   0  0  0  0  0  0
   33.1172   -3.3055   18.9416 C   0  0  0  0  0  0
   34.7729   -1.7519   18.5088 C   0  0  0  0  0  0
   33.6394   -2.3819   18.0310 C   0  0  0  0  0  0
   32.7239    0.9433   30.9437 C   0  0  0  0  0  0
   33.9460   -4.1584   23.8467 H   0  0  0  0  0  0
   32.4924   -0.4783   28.8209 H   0  0  0  0  0  0
   29.3298   -0.1623   25.9454 H   0  0  0  0  0  0
   32.9625   -5.1412   21.0653 H   0  0  0  0  0  0
   34.4574   -4.6322   21.7849 H   0  0  0  0  0  0
   28.2294    1.5405   27.3349 H   0  0  0  0  0  0
   29.2562    2.2580   29.4633 H   0  0  0  0  0  0
   32.2293   -3.8940   18.7496 H   0  0  0  0  0  0
   35.3722   -1.0004   18.0150 H   0  0  0  0  0  0
   33.2028   -2.1850   17.0642 H   0  0  0  0  0  0
   32.9947    1.4560   31.8648 H   0  0  0  0  0  0
   32.6954   -0.1270   31.1544 H   0  0  0  0  0  0
   33.5133    1.1426   30.2181 H   0  0  0  0  0  0
  1  8  1  0  0  0
  1 10  1  0  0  0
  2 15  1  0  0  0
  2 20  1  0  0  0
  3 13  1  0  0  0
  3 22  1  0  0  0
  4 14  2  0  0  0
  5  6  1  0  0  0
  5  8  2  0  0  0
  6 10  2  0  0  0
  7 10  1  0  0  0
  7 14  1  0  0  0
  7 23  1  0  0  0
  8  9  1  0  0  0
  9 11  2  0  0  0
  9 12  1  0  0  0
 11 13  1  0  0  0
 11 24  1  0  0  0
 12 17  2  0  0  0
 12 25  1  0  0  0
 13 18  2  0  0  0
 14 16  1  0  0  0
 15 16  1  0  0  0
 15 19  2  0  0  0
 16 26  1  0  0  0
 16 27  1  0  0  0
 17 18  1  0  0  0
 17 28  1  0  0  0
 18 29  1  0  0  0
 19 21  1  0  0  0
 19 30  1  0  0  0
 20 21  2  0  0  0
 20 31  1  0  0  0
 21 32  1  0  0  0
 22 33  1  0  0  0
 22 34  1  0  0  0
 22 35  1  0  0  0
M  END
> <s_m_entry_id>
16911

> <s_m_entry_name>
dock_pv.77

> <s_m_Source_Path>
/home/csk/Desktop/cluster/DUD-E-result/esr1

> <s_m_Source_File>
dock_pv.maegz

> <i_m_Source_File_Index>
77

> <chembl_id>
CHEMBL1449110

> <chembl_pref_name>
None

> <i_lp_mmshare_version>
53161

> <r_lp_tautomer_probability>
1

> <s_lp_Force_Field>
OPLS_2005

> <r_lp_Energy>
14.674386

> <b_lp_Chiralities_Consistent>
1

> <s_lp_Variant>
CHEMBL206_lig109-1

> <s_i_glide_gridfile>
glide-grid_1sj0

> <i_i_glide_lignum>
130

> <i_i_glide_rotatable_bonds>
6

> <r_i_docking_score>
-6.94218497390179

> <r_i_glide_ligand_efficiency>
-0.315553862450081

> <r_i_glide_ligand_efficiency_sa>
-0.884194332614321

> <r_i_glide_ligand_efficiency_ln>
-1.69692322997112

> <r_i_glide_gscore>
-6.94218497390179

> <r_i_glide_lipo>
-3.14028351325947

> <r_i_glide_hbond>
0

> <r_i_glide_metal>
0

> <r_i_glide_rewards>
-2.00442126731271

> <r_i_glide_evdw>
-45.3439483642578

> <r_i_glide_ecoul>
-1.43804776668549

> <r_i_glide_erotb>
0.6854243898861

> <r_i_glide_esite>
0

> <r_i_glide_emodel>
-63.9122535638924

> <r_i_glide_energy>
-46.7819961309433

> <r_i_glide_einternal>
4.61390924453735

> <i_i_glide_confnum>
1

> <i_i_glide_posenum>
1

> <r_i_glide_eff_state_penalty>
0

> <s_user_duplicate_titles>
CHEMBL206_lig109

> <i_f3d_flags>
0

> <s_m_subgroup_title>
dock_pv

> <s_m_subgroupid>
dock_pv

> <b_m_subgroup_collapsed>
1

$$$$
CHEMBL206_lig157
                    3D
 Schrodinger Suite 2021-1.
 30 32  0  0  1  0            999 V2000
   34.1375   -1.3919   29.4643 F   0  0  0  0  0  0
   31.9179    0.1663   29.5237 O   0  0  0  0  0  0
   29.9503    1.2860   29.3722 N   0  0  0  0  0  0
   28.8601    1.6750   28.7095 N   0  0  0  0  0  0
   30.5743   -0.2002   27.5235 C   0  0  0  0  0  0
   30.7629    0.3554   28.8220 C   0  0  0  0  0  0
   29.4340    0.2579   26.8088 C   0  0  0  0  0  0
   28.5687    1.1324   27.5116 C   0  0  0  0  0  0
   33.0525    0.6506   28.9235 C   0  0  0  0  0  0
   31.4675   -1.1124   26.8965 C   0  0  0  0  0  0
   29.2615   -0.1411   25.4648 C   0  0  0  0  0  0
   34.1812   -0.1587   28.9202 C   0  0  0  0  0  0
   31.2833   -1.4621   25.5627 C   0  0  0  0  0  0
   33.0555    1.8512   28.1920 C   0  0  0  0  0  0
   30.2090   -0.9480   24.8469 C   0  0  0  0  0  0
   35.3240    0.2625   28.2641 C   0  0  0  0  0  0
   27.1924    1.4589   26.9997 C   0  0  0  0  0  0
   34.1782    2.2282   27.4692 C   0  0  0  0  0  0
   35.3289    1.4580   27.5427 C   0  0  0  0  0  0
   32.3135   -1.5015   27.4420 H   0  0  0  0  0  0
   28.4457    0.2589   24.8922 H   0  0  0  0  0  0
   31.9849   -2.1231   25.0742 H   0  0  0  0  0  0
   32.1712    2.4680   28.1491 H   0  0  0  0  0  0
   30.0928   -1.2115   23.8059 H   0  0  0  0  0  0
   36.2103   -0.3556   28.2751 H   0  0  0  0  0  0
   26.7005    0.5470   26.6641 H   0  0  0  0  0  0
   26.5478    1.8580   27.7832 H   0  0  0  0  0  0
   27.2602    2.1769   26.1859 H   0  0  0  0  0  0
   34.1530    3.1023   26.8511 H   0  0  0  0  0  0
   36.2244    1.7648   27.0222 H   0  0  0  0  0  0
  1 12  1  0  0  0
  2  6  1  0  0  0
  2  9  1  0  0  0
  3  4  1  0  0  0
  3  6  2  0  0  0
  4  8  2  0  0  0
  5  6  1  0  0  0
  5  7  1  0  0  0
  5 10  2  0  0  0
  7  8  1  0  0  0
  7 11  2  0  0  0
  8 17  1  0  0  0
  9 12  1  0  0  0
  9 14  2  0  0  0
 10 13  1  0  0  0
 10 20  1  0  0  0
 11 15  1  0  0  0
 11 21  1  0  0  0
 12 16  2  0  0  0
 13 15  2  0  0  0
 13 22  1  0  0  0
 14 18  1  0  0  0
 14 23  1  0  0  0
 15 24  1  0  0  0
 16 19  1  0  0  0
 16 25  1  0  0  0
 17 26  1  0  0  0
 17 27  1  0  0  0
 17 28  1  0  0  0
 18 19  2  0  0  0
 18 29  1  0  0  0
 19 30  1  0  0  0
M  END
> <s_m_entry_id>
16912

> <s_m_entry_name>
dock_pv.78

> <s_m_Source_Path>
/home/csk/Desktop/cluster/DUD-E-result/esr1

> <s_m_Source_File>
dock_pv.maegz

> <i_m_Source_File_Index>
78

> <chembl_id>
CHEMBL1482875

> <chembl_pref_name>
None

> <i_lp_mmshare_version>
53161

> <r_lp_tautomer_probability>
1

> <s_lp_Force_Field>
OPLS_2005

> <r_lp_Energy>
24.080374

> <b_lp_Chiralities_Consistent>
1

> <s_lp_Variant>
CHEMBL206_lig157-1

> <s_i_glide_gridfile>
glide-grid_1sj0

> <i_i_glide_lignum>
210

> <i_i_glide_rotatable_bonds>
2

> <r_i_docking_score>
-6.933088286334

> <r_i_glide_ligand_efficiency>
-0.364899383491263

> <r_i_glide_ligand_efficiency_sa>
-0.973698115570042

> <r_i_glide_ligand_efficiency_ln>
-1.75768678966841

> <r_i_glide_gscore>
-6.933088286334

> <r_i_glide_lipo>
-3.36655624294891

> <r_i_glide_hbond>
0

> <r_i_glide_metal>
0

> <r_i_glide_rewards>
-2.71758486841436

> <r_i_glide_evdw>
-25.3697319030762

> <r_i_glide_ecoul>
-0.82973575592041

> <r_i_glide_erotb>
0.543999783571151

> <r_i_glide_esite>
0

> <r_i_glide_emodel>
-27.3292276143918

> <r_i_glide_energy>
-26.1994676589966

> <r_i_glide_einternal>
7.37328958511353

> <i_i_glide_confnum>
1

> <i_i_glide_posenum>
8

> <r_i_glide_eff_state_penalty>
0

> <s_user_duplicate_titles>
CHEMBL206_lig157

> <i_f3d_flags>
0

> <s_m_subgroup_title>
dock_pv

> <s_m_subgroupid>
dock_pv

> <b_m_subgroup_collapsed>
1

$$$$
CHEMBL206_lig327
                    3D
 Schrodinger Suite 2021-1.
 62 63  0  0  1  0            999 V2000
   34.4555   -3.5067   20.0630 O   0  0  0  0  0  0
   35.8520   -3.2339   19.9315 C   0  0  0  0  0  0
   36.1679   -1.7155   19.9692 C   0  0  0  0  0  0
   37.5366   -1.3498   19.5845 N   0  0  0  0  0  0
   38.5733   -1.9487   20.4211 C   0  0  0  0  0  0
   37.8127   -1.5723   18.1644 C   0  0  0  0  0  0
   34.4238   -3.0672   22.4633 C   0  0  0  0  0  0
   33.7275   -2.6778   23.6057 C   0  0  0  0  0  0
   32.3766   -2.3393   23.5555 C   0  0  0  0  0  0
   31.7282   -2.5492   22.3265 C   0  0  0  0  0  0
   32.4000   -2.9549   21.1615 C   0  0  0  0  0  0
   33.7839   -3.1714   21.2254 C   0  0  0  0  0  0
   31.6506   -1.7903   24.7564 C   0  0  0  0  0  0
   30.4591   -1.0757   24.5905 C   0  0  0  0  0  0
   29.6614   -0.7284   25.6734 C   0  0  0  0  0  0
   30.0694   -1.0170   26.9790 C   0  0  0  0  0  0
   31.3641   -1.5216   27.1914 C   0  0  0  0  0  0
   32.1112   -1.9545   26.0769 C   0  0  0  0  0  0
   29.2457   -0.8199   28.0791 O   0  0  0  0  0  0
   27.8205   -0.6987   27.9302 C   0  0  0  0  0  0
   27.1500   -1.9750   27.3804 C   0  0  0  0  0  0
   25.8457   -1.7417   27.0638 O   0  0  0  0  0  0
   27.7102   -3.0582   27.2525 O   0  0  0  0  0  0
   31.6461   -3.1791   19.8312 C   0  0  0  0  0  0
   31.9982   -2.1675   18.7130 C   0  0  0  0  0  0
   30.1109   -3.3422   19.9621 C   0  0  0  0  0  0
   31.9180   -1.5939   28.6346 C   0  0  0  0  0  0
   32.0428   -0.1876   29.2637 C   0  0  0  0  0  0
   33.2734   -2.3138   28.7887 C   0  0  0  0  0  0
   36.4282   -3.7420   20.6979 H   0  0  0  0  0  0
   36.1598   -3.6720   18.9814 H   0  0  0  0  0  0
   35.4621   -1.1778   19.3311 H   0  0  0  0  0  0
   35.9890   -1.3294   20.9739 H   0  0  0  0  0  0
   39.5482   -1.5250   20.1763 H   0  0  0  0  0  0
   38.3855   -1.7422   21.4738 H   0  0  0  0  0  0
   38.6351   -3.0288   20.2877 H   0  0  0  0  0  0
   38.7767   -1.1400   17.8932 H   0  0  0  0  0  0
   37.8364   -2.6329   17.9096 H   0  0  0  0  0  0
   37.0561   -1.0856   17.5432 H   0  0  0  0  0  0
   35.4727   -3.2970   22.5534 H   0  0  0  0  0  0
   34.2778   -2.6039   24.5252 H   0  0  0  0  0  0
   30.6692   -2.3926   22.2639 H   0  0  0  0  0  0
   30.0824   -0.8485   23.6069 H   0  0  0  0  0  0
   28.7058   -0.2673   25.4723 H   0  0  0  0  0  0
   33.0601   -2.4366   26.2414 H   0  0  0  0  0  0
   27.5586    0.1782   27.3364 H   0  0  0  0  0  0
   27.4169   -0.5423   28.9261 H   0  0  0  0  0  0
   25.4487   -2.4927   26.5850 H   0  0  0  0  0  0
   32.0222   -4.1417   19.4822 H   0  0  0  0  0  0
   32.9956   -1.7468   18.8308 H   0  0  0  0  0  0
   31.9674   -2.6531   17.7389 H   0  0  0  0  0  0
   31.2906   -1.3419   18.6639 H   0  0  0  0  0  0
   29.8589   -4.0589   20.7437 H   0  0  0  0  0  0
   29.6108   -2.4028   20.1905 H   0  0  0  0  0  0
   29.6777   -3.7252   19.0387 H   0  0  0  0  0  0
   31.1802   -2.1427   29.2187 H   0  0  0  0  0  0
   31.0951    0.3486   29.2789 H   0  0  0  0  0  0
   32.3851   -0.2501   30.2968 H   0  0  0  0  0  0
   32.7575    0.4283   28.7195 H   0  0  0  0  0  0
   33.2606   -3.3251   28.3774 H   0  0  0  0  0  0
   34.0533   -1.7431   28.2860 H   0  0  0  0  0  0
   33.5832   -2.3901   29.8354 H   0  0  0  0  0  0
  1  2  1  0  0  0
  1 12  1  0  0  0
  2  3  1  0  0  0
  2 30  1  0  0  0
  2 31  1  0  0  0
  3  4  1  0  0  0
  3 32  1  0  0  0
  3 33  1  0  0  0
  4  5  1  0  0  0
  4  6  1  0  0  0
  5 34  1  0  0  0
  5 35  1  0  0  0
  5 36  1  0  0  0
  6 37  1  0  0  0
  6 38  1  0  0  0
  6 39  1  0  0  0
  7  8  2  0  0  0
  7 12  1  0  0  0
  7 40  1  0  0  0
  8  9  1  0  0  0
  8 41  1  0  0  0
  9 10  2  0  0  0
  9 13  1  0  0  0
 10 11  1  0  0  0
 10 42  1  0  0  0
 11 12  2  0  0  0
 11 24  1  0  0  0
 13 14  2  0  0  0
 13 18  1  0  0  0
 14 15  1  0  0  0
 14 43  1  0  0  0
 15 16  2  0  0  0
 15 44  1  0  0  0
 16 17  1  0  0  0
 16 19  1  0  0  0
 17 18  2  0  0  0
 17 27  1  0  0  0
 18 45  1  0  0  0
 19 20  1  0  0  0
 20 21  1  0  0  0
 20 46  1  0  0  0
 20 47  1  0  0  0
 21 22  1  0  0  0
 21 23  2  0  0  0
 22 48  1  0  0  0
 24 25  1  0  0  0
 24 26  1  0  0  0
 24 49  1  0  0  0
 25 50  1  0  0  0
 25 51  1  0  0  0
 25 52  1  0  0  0
 26 53  1  0  0  0
 26 54  1  0  0  0
 26 55  1  0  0  0
 27 28  1  0  0  0
 27 29  1  0  0  0
 27 56  1  0  0  0
 28 57  1  0  0  0
 28 58  1  0  0  0
 28 59  1  0  0  0
 29 60  1  0  0  0
 29 61  1  0  0  0
 29 62  1  0  0  0
M  END
> <s_m_entry_id>
16913

> <s_m_entry_name>
dock_pv.79

> <s_m_Source_Path>
/home/csk/Desktop/cluster/DUD-E-result/esr1

> <s_m_Source_File>
dock_pv.maegz

> <i_m_Source_File_Index>
79

> <chembl_id>
CHEMBL2165351

> <chembl_pref_name>
None

> <i_lp_mmshare_version>
53161

> <r_lp_tautomer_probability>
1

> <s_lp_Force_Field>
OPLS_2005

> <r_lp_Energy>
29.054359

> <b_lp_Chiralities_Consistent>
1

> <s_lp_Variant>
CHEMBL206_lig327-1

> <s_i_glide_gridfile>
glide-grid_1sj0

> <i_i_glide_lignum>
419

> <i_i_glide_rotatable_bonds>
11

> <r_i_docking_score>
-6.92293473453403

> <r_i_glide_ligand_efficiency>
-0.238721887397725

> <r_i_glide_ligand_efficiency_sa>
-0.733429270488289

> <r_i_glide_ligand_efficiency_ln>
-1.58517650373034

> <r_i_glide_gscore>
-6.92293473453403

> <r_i_glide_lipo>
-3.96081393225601

> <r_i_glide_hbond>
0

> <r_i_glide_metal>
0

> <r_i_glide_rewards>
-1.37502688031172

> <r_i_glide_evdw>
-38.1122856140137

> <r_i_glide_ecoul>
-3.60548520088196

> <r_i_glide_erotb>
0.859343138866682

> <r_i_glide_esite>
0

> <r_i_glide_emodel>
-48.6032807991379

> <r_i_glide_energy>
-41.7177708148956

> <r_i_glide_einternal>
10.84681224823

> <i_i_glide_confnum>
1

> <i_i_glide_posenum>
8

> <r_i_glide_eff_state_penalty>
0

> <s_user_duplicate_titles>
CHEMBL206_lig327

> <i_f3d_flags>
0

> <s_m_subgroup_title>
dock_pv

> <s_m_subgroupid>
dock_pv

> <b_m_subgroup_collapsed>
1

$$$$
CHEMBL206_lig151
                    3D
 Schrodinger Suite 2021-1.
 47 49  0  0  1  0            999 V2000
   31.6296   -0.2034   28.2314 S   0  0  0  0  0  0
   35.3399   -2.3738   20.1323 S   0  0  0  0  0  0
   32.0759   -0.9410   29.4196 O   0  0  0  0  0  0
   32.1233    1.1518   27.9562 O   0  0  0  0  0  0
   31.6598   -2.9421   21.8638 O   0  0  0  0  0  0
   29.8593   -0.1680   28.2642 N   0  0  1  0  0  0
   33.1107   -3.5481   23.5097 N   0  0  0  0  0  0
   32.0333   -1.2124   26.8105 C   0  0  0  0  0  0
   31.7733   -0.7243   25.5316 C   0  0  0  0  0  0
   32.5837   -2.4838   26.9809 C   0  0  0  0  0  0
   29.1140    0.9957   27.7165 C   0  0  0  0  0  0
   29.1223   -1.4532   28.3321 C   0  0  0  0  0  0
   32.6598   -2.7625   24.5824 C   0  0  0  0  0  0
   32.0712   -1.4995   24.4171 C   0  0  0  0  0  0
   32.9022   -3.2516   25.8655 C   0  0  0  0  0  0
   28.3980    0.6522   26.3928 C   0  0  0  0  0  0
   28.5049   -1.8098   26.9739 C   0  0  0  0  0  0
   27.5887   -0.6698   26.4718 C   0  0  0  0  0  0
   32.6767   -3.5254   22.2354 C   0  0  0  0  0  0
   33.9269   -3.3968   20.0546 C   0  0  0  0  0  0
   33.5282   -4.2875   21.2158 C   0  0  0  0  0  0
   33.2766   -3.2024   18.8357 C   0  0  0  0  0  0
   26.3023   -0.5280   27.3127 C   0  0  0  0  0  0
   35.0247   -1.7140   18.5637 C   0  0  0  0  0  0
   33.8835   -2.2578   18.0020 C   0  0  0  0  0  0
   33.8060   -4.2413   23.7406 H   0  0  0  0  0  0
   31.3528    0.2579   25.4004 H   0  0  0  0  0  0
   32.7926   -2.8687   27.9672 H   0  0  0  0  0  0
   28.4157    1.3380   28.4790 H   0  0  0  0  0  0
   29.8057    1.8219   27.5552 H   0  0  0  0  0  0
   29.7993   -2.2383   28.6729 H   0  0  0  0  0  0
   28.3328   -1.3487   29.0643 H   0  0  0  0  0  0
   31.8923   -1.0840   23.4368 H   0  0  0  0  0  0
   33.3527   -4.2213   26.0076 H   0  0  0  0  0  0
   27.7502    1.4873   26.1262 H   0  0  0  0  0  0
   29.1277    0.5810   25.5878 H   0  0  0  0  0  0
   29.3044   -2.0056   26.2606 H   0  0  0  0  0  0
   27.9383   -2.7376   27.0636 H   0  0  0  0  0  0
   27.2891   -0.9434   25.4641 H   0  0  0  0  0  0
   32.9388   -5.1373   20.8732 H   0  0  0  0  0  0
   34.4127   -4.7169   21.6857 H   0  0  0  0  0  0
   32.3690   -3.7280   18.5733 H   0  0  0  0  0  0
   26.5084   -0.2777   28.3508 H   0  0  0  0  0  0
   25.6588    0.2569   26.9158 H   0  0  0  0  0  0
   25.7265   -1.4543   27.3013 H   0  0  0  0  0  0
   35.6806   -0.9661   18.1404 H   0  0  0  0  0  0
   33.4986   -1.9813   17.0312 H   0  0  0  0  0  0
  1  3  2  0  0  0
  1  4  2  0  0  0
  1  6  1  0  0  0
  1  8  1  0  0  0
  2 20  1  0  0  0
  2 24  1  0  0  0
  5 19  2  0  0  0
  6 11  1  0  0  0
  6 12  1  0  0  0
  7 13  1  0  0  0
  7 19  1  0  0  0
  7 26  1  0  0  0
  8  9  2  0  0  0
  8 10  1  0  0  0
  9 14  1  0  0  0
  9 27  1  0  0  0
 10 15  2  0  0  0
 10 28  1  0  0  0
 11 16  1  0  0  0
 11 29  1  0  0  0
 11 30  1  0  0  0
 12 17  1  0  0  0
 12 31  1  0  0  0
 12 32  1  0  0  0
 13 14  2  0  0  0
 13 15  1  0  0  0
 14 33  1  0  0  0
 15 34  1  0  0  0
 16 18  1  0  0  0
 16 35  1  0  0  0
 16 36  1  0  0  0
 17 18  1  0  0  0
 17 37  1  0  0  0
 17 38  1  0  0  0
 18 23  1  0  0  0
 18 39  1  0  0  0
 19 21  1  0  0  0
 20 21  1  0  0  0
 20 22  2  0  0  0
 21 40  1  0  0  0
 21 41  1  0  0  0
 22 25  1  0  0  0
 22 42  1  0  0  0
 23 43  1  0  0  0
 23 44  1  0  0  0
 23 45  1  0  0  0
 24 25  2  0  0  0
 24 46  1  0  0  0
 25 47  1  0  0  0
M  END
> <s_m_entry_id>
16914

> <s_m_entry_name>
dock_pv.80

> <s_m_Source_Path>
/home/csk/Desktop/cluster/DUD-E-result/esr1

> <s_m_Source_File>
dock_pv.maegz

> <i_m_Source_File_Index>
80

> <chembl_id>
CHEMBL1455258

> <chembl_pref_name>
None

> <i_lp_mmshare_version>
53161

> <r_lp_tautomer_probability>
1

> <s_lp_Force_Field>
OPLS_2005

> <r_lp_Energy>
8.701975

> <b_lp_Chiralities_Consistent>
1

> <s_lp_Variant>
CHEMBL206_lig151-1

> <s_i_glide_gridfile>
glide-grid_1sj0

> <i_i_glide_lignum>
192

> <i_i_glide_rotatable_bonds>
6

> <r_i_docking_score>
-6.90045349514533

> <r_i_glide_ligand_efficiency>
-0.276018139805813

> <r_i_glide_ligand_efficiency_sa>
-0.807081935994751

> <r_i_glide_ligand_efficiency_ln>
-1.63561426825377

> <r_i_glide_gscore>
-6.90045349514533

> <r_i_glide_lipo>
-3.86989774322599

> <r_i_glide_hbond>
0

> <r_i_glide_metal>
0

> <r_i_glide_rewards>
-1.28626829604367

> <r_i_glide_evdw>
-44.9088096618652

> <r_i_glide_ecoul>
-1.16792178153992

> <r_i_glide_erotb>
0.676341294448577

> <r_i_glide_esite>
0

> <r_i_glide_emodel>
-59.741205850197

> <r_i_glide_energy>
-46.0767314434052

> <r_i_glide_einternal>
4.99817800521851

> <i_i_glide_confnum>
2

> <i_i_glide_posenum>
162

> <r_i_glide_eff_state_penalty>
0

> <s_user_duplicate_titles>
CHEMBL206_lig151

> <i_f3d_flags>
0

> <s_m_subgroup_title>
dock_pv

> <s_m_subgroupid>
dock_pv

> <b_m_subgroup_collapsed>
1

$$$$
CHEMBL206_lig302
                    3D
 Schrodinger Suite 2021-1.
 47 50  0  0  1  0            999 V2000
   33.2606   -4.0913   21.2783 S   0  0  0  0  0  0
   33.1931   -0.4462   29.0666 S   0  0  0  0  0  0
   38.1693   -1.3528   17.8535 F   0  0  0  0  0  0
   34.7330   -3.5199   19.1379 O   0  0  0  0  0  0
   34.0600   -3.3421   24.0215 O   0  0  0  0  0  0
   31.1229   -1.6384   26.6359 N   0  0  0  0  0  0
   36.3431   -2.1864   19.8696 N   0  0  0  0  0  0
   35.5484   -2.5420   20.9581 N   0  0  0  0  0  0
   32.1380   -2.1641   24.6960 C   0  0  0  0  0  0
   32.1363   -2.4051   26.0726 C   0  0  0  0  0  0
   30.5121   -0.8952   25.6427 C   0  0  0  0  0  0
   31.1345   -1.2211   24.4526 C   0  0  0  0  0  0
   33.0175   -2.7778   23.7023 C   0  0  0  0  0  0
   35.8226   -2.7772   18.8160 C   0  0  0  0  0  0
   36.2547   -2.7225   17.3806 C   0  0  0  0  0  0
   34.6195   -3.3264   20.4723 C   0  0  0  0  0  0
   30.7672   -1.5735   28.0558 C   0  0  0  0  0  0
   32.6328   -2.6631   22.2264 C   0  0  0  0  0  0
   37.3954   -2.0165   16.9639 C   0  0  0  0  0  0
   31.4628   -0.4718   28.8309 C   0  0  0  0  0  0
   33.0125   -3.3364   26.8986 C   0  0  0  0  0  0
   35.4926   -3.3971   16.4140 C   0  0  0  0  0  0
   29.3675    0.0612   25.9183 C   0  0  0  0  0  0
   37.7566   -1.9913   15.6152 C   0  0  0  0  0  0
   30.8953    0.6242   29.4793 C   0  0  0  0  0  0
   35.8578   -3.3721   15.0677 C   0  0  0  0  0  0
   36.9914   -2.6696   14.6675 C   0  0  0  0  0  0
   33.1056    0.9594   30.0639 C   0  0  0  0  0  0
   31.8051    1.4030   30.1967 C   0  0  0  0  0  0
   30.8742   -0.8040   23.4916 H   0  0  0  0  0  0
   30.9589   -2.5419   28.4998 H   0  0  0  0  0  0
   29.6838   -1.4799   28.1264 H   0  0  0  0  0  0
   31.5519   -2.6083   22.1049 H   0  0  0  0  0  0
   33.0764   -1.7420   21.8627 H   0  0  0  0  0  0
   33.6600   -3.9539   26.2860 H   0  0  0  0  0  0
   33.6525   -2.8062   27.5981 H   0  0  0  0  0  0
   32.4599   -4.0685   27.4627 H   0  0  0  0  0  0
   34.6083   -3.9485   16.7007 H   0  0  0  0  0  0
   28.9843    0.5171   25.0071 H   0  0  0  0  0  0
   28.5203   -0.4411   26.3854 H   0  0  0  0  0  0
   29.6689    0.8747   26.5788 H   0  0  0  0  0  0
   38.6346   -1.4434   15.3077 H   0  0  0  0  0  0
   29.8349    0.8301   29.4645 H   0  0  0  0  0  0
   35.2629   -3.8988   14.3350 H   0  0  0  0  0  0
   37.2753   -2.6544   13.6252 H   0  0  0  0  0  0
   34.0020    1.3798   30.4961 H   0  0  0  0  0  0
   31.5261    2.2581   30.7894 H   0  0  0  0  0  0
  1 16  1  0  0  0
  1 18  1  0  0  0
  2 20  1  0  0  0
  2 28  1  0  0  0
  3 19  1  0  0  0
  4 14  1  0  0  0
  4 16  1  0  0  0
  5 13  2  0  0  0
  6 10  1  0  0  0
  6 11  1  0  0  0
  6 17  1  0  0  0
  7  8  1  0  0  0
  7 14  2  0  0  0
  8 16  2  0  0  0
  9 10  2  0  0  0
  9 12  1  0  0  0
  9 13  1  0  0  0
 10 21  1  0  0  0
 11 12  2  0  0  0
 11 23  1  0  0  0
 12 30  1  0  0  0
 13 18  1  0  0  0
 14 15  1  0  0  0
 15 19  1  0  0  0
 15 22  2  0  0  0
 17 20  1  0  0  0
 17 31  1  0  0  0
 17 32  1  0  0  0
 18 33  1  0  0  0
 18 34  1  0  0  0
 19 24  2  0  0  0
 20 25  2  0  0  0
 21 35  1  0  0  0
 21 36  1  0  0  0
 21 37  1  0  0  0
 22 26  1  0  0  0
 22 38  1  0  0  0
 23 39  1  0  0  0
 23 40  1  0  0  0
 23 41  1  0  0  0
 24 27  1  0  0  0
 24 42  1  0  0  0
 25 29  1  0  0  0
 25 43  1  0  0  0
 26 27  2  0  0  0
 26 44  1  0  0  0
 27 45  1  0  0  0
 28 29  2  0  0  0
 28 46  1  0  0  0
 29 47  1  0  0  0
M  END
> <s_m_entry_id>
16915

> <s_m_entry_name>
dock_pv.81

> <s_m_Source_Path>
/home/csk/Desktop/cluster/DUD-E-result/esr1

> <s_m_Source_File>
dock_pv.maegz

> <i_m_Source_File_Index>
81

> <chembl_id>
CHEMBL1561092

> <chembl_pref_name>
None

> <i_lp_mmshare_version>
53161

> <r_lp_tautomer_probability>
0.99990000499975

> <s_lp_Force_Field>
OPLS_2005

> <r_lp_Energy>
19.760385

> <b_lp_Chiralities_Consistent>
1

> <s_lp_Variant>
CHEMBL206_lig302-1

> <s_i_glide_gridfile>
glide-grid_1sj0

> <i_i_glide_lignum>
386

> <i_i_glide_rotatable_bonds>
7

> <r_i_docking_score>
-6.85271629574885

> <r_i_glide_ligand_efficiency>
-0.236300561922374

> <r_i_glide_ligand_efficiency_sa>
-0.725990191498255

> <r_i_glide_ligand_efficiency_ln>
-1.5690982618345

> <r_i_glide_gscore>
-6.85271629574885

> <r_i_glide_lipo>
-3.8705856883503

> <r_i_glide_hbond>
0

> <r_i_glide_metal>
0

> <r_i_glide_rewards>
-1.72281435707024

> <r_i_glide_evdw>
-45.9762153625488

> <r_i_glide_ecoul>
1.86025297641754

> <r_i_glide_erotb>
0.760456571336504

> <r_i_glide_esite>
0

> <r_i_glide_emodel>
-55.9070864668876

> <r_i_glide_energy>
-44.1159623861313

> <r_i_glide_einternal>
5.9797682762146

> <i_i_glide_confnum>
18

> <i_i_glide_posenum>
279

> <r_i_glide_eff_state_penalty>
0

> <s_user_duplicate_titles>
CHEMBL206_lig302

> <i_f3d_flags>
0

> <s_m_subgroup_title>
dock_pv

> <s_m_subgroupid>
dock_pv

> <b_m_subgroup_collapsed>
1

$$$$
CHEMBL206_lig93
                    3D
 Schrodinger Suite 2021-1.
 43 45  0  0  1  0            999 V2000
   24.8597   -0.5424   26.6594 Br  0  0  0  0  0  0
   32.0899   -2.5421   21.9184 O   0  0  0  0  0  0
   30.2308   -3.3209   20.1025 O   0  5  0  0  0  0
   30.8600   -2.3708   18.2640 O   0  0  0  0  0  0
   35.2689   -4.1791   16.6586 O   0  5  0  0  0  0
   36.9213   -4.0834   18.0445 O   0  0  0  0  0  0
   29.2584    2.2008   28.6978 O   0  0  0  0  0  0
   31.1001   -2.9426   19.3215 N   0  3  0  0  0  0
   35.7252   -3.9855   17.7825 N   0  3  0  0  0  0
   31.0676    1.1408   27.9327 N   0  0  0  0  0  0
   31.8125    0.2247   27.2345 N   0  0  0  0  0  0
   28.4042   -2.3796   27.8209 N   0  0  0  0  0  0
   32.5238   -3.1529   19.6536 C   0  0  0  0  0  0
   33.0024   -2.9410   20.9558 C   0  0  0  0  0  0
   34.7919   -3.6108   18.8715 C   0  0  0  0  0  0
   33.4159   -3.5058   18.6329 C   0  0  0  0  0  0
   34.3849   -3.0118   21.1866 C   0  0  0  0  0  0
   32.3635   -2.4595   23.2638 C   0  0  0  0  0  0
   35.2649   -3.3422   20.1600 C   0  0  0  0  0  0
   31.8171   -1.3952   23.9839 C   0  0  0  0  0  0
   32.0066   -1.2830   25.3659 C   0  0  0  0  0  0
   33.0713   -3.4474   23.9485 C   0  0  0  0  0  0
   28.8174    0.0205   27.8764 C   0  0  0  0  0  0
   29.7307    1.1915   28.1821 C   0  0  0  0  0  0
   32.7420   -2.2718   26.0283 C   0  0  0  0  0  0
   33.2597   -3.3483   25.3222 C   0  0  0  0  0  0
   31.3988   -0.1781   26.0925 C   0  0  0  0  0  0
   27.4976    0.2469   27.4640 C   0  0  0  0  0  0
   26.6504   -0.8341   27.2188 C   0  0  0  0  0  0
   29.2105   -1.3157   28.0708 C   0  0  0  0  0  0
   27.1418   -2.1275   27.3905 C   0  0  0  0  0  0
   31.6302    1.7562   28.5012 H   0  0  0  0  0  0
   33.0288   -3.6850   17.6380 H   0  0  0  0  0  0
   34.8000   -2.7867   22.1551 H   0  0  0  0  0  0
   36.3223   -3.3984   20.3760 H   0  0  0  0  0  0
   31.2342   -0.6532   23.4587 H   0  0  0  0  0  0
   33.4413   -4.3163   23.4240 H   0  0  0  0  0  0
   32.8911   -2.2304   27.0971 H   0  0  0  0  0  0
   33.7664   -4.1417   25.8452 H   0  0  0  0  0  0
   30.5382    0.2600   25.5946 H   0  0  0  0  0  0
   27.1231    1.2535   27.3324 H   0  0  0  0  0  0
   30.1965   -1.5647   28.4359 H   0  0  0  0  0  0
   26.5152   -2.9842   27.1798 H   0  0  0  0  0  0
  1 29  1  0  0  0
  2 14  1  0  0  0
  2 18  1  0  0  0
  3  8  1  0  0  0
  4  8  2  0  0  0
  5  9  1  0  0  0
  6  9  2  0  0  0
  7 24  2  0  0  0
  8 13  1  0  0  0
  9 15  1  0  0  0
 10 11  1  0  0  0
 10 24  1  0  0  0
 10 32  1  0  0  0
 11 27  2  0  0  0
 12 30  1  0  0  0
 12 31  2  0  0  0
 13 14  1  0  0  0
 13 16  2  0  0  0
 14 17  2  0  0  0
 15 16  1  0  0  0
 15 19  2  0  0  0
 16 33  1  0  0  0
 17 19  1  0  0  0
 17 34  1  0  0  0
 18 20  1  0  0  0
 18 22  2  0  0  0
 19 35  1  0  0  0
 20 21  2  0  0  0
 20 36  1  0  0  0
 21 25  1  0  0  0
 21 27  1  0  0  0
 22 26  1  0  0  0
 22 37  1  0  0  0
 23 24  1  0  0  0
 23 28  1  0  0  0
 23 30  2  0  0  0
 25 26  2  0  0  0
 25 38  1  0  0  0
 26 39  1  0  0  0
 27 40  1  0  0  0
 28 29  2  0  0  0
 28 41  1  0  0  0
 29 31  1  0  0  0
 30 42  1  0  0  0
 31 43  1  0  0  0
M  CHG  4   3  -1   5  -1   8   1   9   1
M  END
> <s_m_entry_id>
16916

> <s_m_entry_name>
dock_pv.82

> <s_m_Source_Path>
/home/csk/Desktop/cluster/DUD-E-result/esr1

> <s_m_Source_File>
dock_pv.maegz

> <i_m_Source_File_Index>
82

> <chembl_id>
CHEMBL1732228

> <chembl_pref_name>
None

> <i_lp_mmshare_version>
53161

> <r_lp_tautomer_probability>
1

> <s_lp_Force_Field>
OPLS_2005

> <r_lp_Energy>
24.749044

> <b_lp_Chiralities_Consistent>
1

> <s_lp_Variant>
CHEMBL206_lig93-1

> <s_i_glide_gridfile>
glide-grid_1sj0

> <i_i_glide_lignum>
111

> <i_i_glide_rotatable_bonds>
8

> <r_i_docking_score>
-6.84582814216733

> <r_i_glide_ligand_efficiency>
-0.220833165876365

> <r_i_glide_ligand_efficiency_sa>
-0.693721033896277

> <r_i_glide_ligand_efficiency_ln>
-1.54394404549533

> <r_i_glide_gscore>
-6.84582814216733

> <r_i_glide_lipo>
-3.18916852217855

> <r_i_glide_hbond>
0

> <r_i_glide_metal>
0

> <r_i_glide_rewards>
-1.26579135074132

> <r_i_glide_evdw>
-52.3935089111328

> <r_i_glide_ecoul>
-0.346501231193542

> <r_i_glide_erotb>
0.429756294077943

> <r_i_glide_esite>
-0.148973933089722

> <r_i_glide_emodel>
-68.4916743797841

> <r_i_glide_energy>
-52.7400101423264

> <r_i_glide_einternal>
11.1149005889893

> <i_i_glide_confnum>
6

> <i_i_glide_posenum>
69

> <r_i_glide_eff_state_penalty>
0

> <s_user_duplicate_titles>
CHEMBL206_lig93

> <i_f3d_flags>
0

> <s_m_subgroup_title>
dock_pv

> <s_m_subgroupid>
dock_pv

> <b_m_subgroup_collapsed>
1

$$$$
CHEMBL206_lig158
                    3D
 Schrodinger Suite 2021-1.
 45 47  0  0  1  0            999 V2000
   32.4904   -2.4562   26.6788 O   0  0  0  0  0  0
   32.4193    0.5729   26.8599 O   0  0  0  0  0  0
   31.3103   -3.3420   20.1831 O   0  0  0  0  0  0
   26.8778    0.1339   27.5160 O   0  0  0  0  0  0
   34.0599   -3.7419   23.0226 N   0  0  0  0  0  0
   33.6358   -3.5216   24.2703 N   0  0  0  0  0  0
   30.9688   -1.3373   25.3767 N   0  0  0  0  0  0
   33.3307   -2.9653   22.2608 C   0  0  0  0  0  0
   32.6016   -2.6293   24.3550 C   0  0  0  0  0  0
   33.5961   -2.8581   20.7968 C   0  0  0  0  0  0
   32.0186   -2.1563   25.5796 C   0  0  0  0  0  0
   32.3841   -2.2737   23.0284 C   0  0  0  0  0  0
   30.3474   -0.5248   26.3318 C   0  0  0  0  0  0
   32.5894   -3.0021   19.8300 C   0  0  0  0  0  0
   31.0542    0.4510   27.0644 C   0  0  0  0  0  0
   34.8990   -2.5564   20.3813 C   0  0  0  0  0  0
   28.9616   -0.6503   26.4625 C   0  0  0  0  0  0
   28.2448    0.1918   27.3244 C   0  0  0  0  0  0
   32.8845   -2.8218   18.4773 C   0  0  0  0  0  0
   30.3270    1.2886   27.9248 C   0  0  0  0  0  0
   34.1812   -2.4954   18.0743 C   0  0  0  0  0  0
   35.1900   -2.3731   19.0309 C   0  0  0  0  0  0
   28.9438    1.1658   28.0373 C   0  0  0  0  0  0
   34.4914   -2.2854   16.6055 C   0  0  0  0  0  0
   33.1698    1.5193   27.6126 C   0  0  0  0  0  0
   26.1373   -0.9419   26.9456 C   0  0  0  0  0  0
   31.1830   -4.3035   20.1141 H   0  0  0  0  0  0
   34.0467   -3.9942   25.0631 H   0  0  0  0  0  0
   30.6134   -1.2699   24.4368 H   0  0  0  0  0  0
   31.6641   -1.5639   22.6563 H   0  0  0  0  0  0
   35.6874   -2.4410   21.1111 H   0  0  0  0  0  0
   28.4479   -1.4004   25.8800 H   0  0  0  0  0  0
   32.1009   -2.9312   17.7416 H   0  0  0  0  0  0
   30.8158    2.0599   28.4991 H   0  0  0  0  0  0
   36.1985   -2.1270   18.7336 H   0  0  0  0  0  0
   28.4107    1.8384   28.6904 H   0  0  0  0  0  0
   34.0629   -1.3427   16.2650 H   0  0  0  0  0  0
   35.5656   -2.2778   16.4131 H   0  0  0  0  0  0
   34.0608   -3.0904   16.0090 H   0  0  0  0  0  0
   34.2230    1.4340   27.3438 H   0  0  0  0  0  0
   32.8585    2.5416   27.3966 H   0  0  0  0  0  0
   33.0888    1.3358   28.6848 H   0  0  0  0  0  0
   25.0878   -0.8374   27.2176 H   0  0  0  0  0  0
   26.4818   -1.9085   27.3169 H   0  0  0  0  0  0
   26.1885   -0.9437   25.8578 H   0  0  0  0  0  0
  1 11  2  0  0  0
  2 15  1  0  0  0
  2 25  1  0  0  0
  3 14  1  0  0  0
  3 27  1  0  0  0
  4 18  1  0  0  0
  4 26  1  0  0  0
  5  8  2  0  0  0
  5  6  1  0  0  0
  6 28  1  0  0  0
  6  9  1  0  0  0
  7 11  1  0  0  0
  7 13  1  0  0  0
  7 29  1  0  0  0
  8 10  1  0  0  0
  8 12  1  0  0  0
  9 11  1  0  0  0
  9 12  2  0  0  0
 10 14  1  0  0  0
 10 16  2  0  0  0
 12 30  1  0  0  0
 13 15  1  0  0  0
 13 17  2  0  0  0
 14 19  2  0  0  0
 15 20  2  0  0  0
 16 22  1  0  0  0
 16 31  1  0  0  0
 17 18  1  0  0  0
 17 32  1  0  0  0
 18 23  2  0  0  0
 19 21  1  0  0  0
 19 33  1  0  0  0
 20 23  1  0  0  0
 20 34  1  0  0  0
 21 22  2  0  0  0
 21 24  1  0  0  0
 22 35  1  0  0  0
 23 36  1  0  0  0
 24 37  1  0  0  0
 24 38  1  0  0  0
 24 39  1  0  0  0
 25 40  1  0  0  0
 25 41  1  0  0  0
 25 42  1  0  0  0
 26 43  1  0  0  0
 26 44  1  0  0  0
 26 45  1  0  0  0
M  END
> <s_m_entry_id>
16917

> <s_m_entry_name>
dock_pv.83

> <s_m_Source_Path>
/home/csk/Desktop/cluster/DUD-E-result/esr1

> <s_m_Source_File>
dock_pv.maegz

> <i_m_Source_File_Index>
83

> <chembl_id>
CHEMBL1544241

> <chembl_pref_name>
None

> <i_lp_mmshare_version>
53161

> <r_lp_tautomer_probability>
0.499999999999341

> <s_lp_Force_Field>
OPLS_2005

> <r_lp_Energy>
32.963174

> <b_lp_Chiralities_Consistent>
1

> <s_lp_Variant>
CHEMBL206_lig158-2

> <s_i_glide_gridfile>
glide-grid_1sj0

> <i_i_glide_lignum>
212

> <i_i_glide_rotatable_bonds>
7

> <r_i_docking_score>
-6.82912896374425

> <r_i_glide_ligand_efficiency>
-0.262658806297856

> <r_i_glide_ligand_efficiency_sa>
-0.778125680144901

> <r_i_glide_ligand_efficiency_ln>
-1.60379852893551

> <r_i_glide_gscore>
-6.82912896374425

> <r_i_glide_lipo>
-3.1139876626326

> <r_i_glide_hbond>
-0.166404818844574

> <r_i_glide_metal>
0

> <r_i_glide_rewards>
-1.42820961771511

> <r_i_glide_evdw>
-43.7998657226562

> <r_i_glide_ecoul>
-3.61490058898926

> <r_i_glide_erotb>
0.611701509929237

> <r_i_glide_esite>
0

> <r_i_glide_emodel>
-60.5932217953841

> <r_i_glide_energy>
-47.4147663116455

> <r_i_glide_einternal>
11.5112524032593

> <i_i_glide_confnum>
12

> <i_i_glide_posenum>
278

> <r_i_glide_eff_state_penalty>
0

> <s_user_duplicate_titles>
CHEMBL206_lig158

> <i_f3d_flags>
0

> <s_m_subgroup_title>
dock_pv

> <s_m_subgroupid>
dock_pv

> <b_m_subgroup_collapsed>
1

$$$$
CHEMBL206_lig249
                    3D
 Schrodinger Suite 2021-1.
 39 42  0  0  1  0            999 V2000
   33.2520   -2.9399   25.7534 S   0  0  0  0  0  0
   29.9656    1.1029   27.4769 O   0  0  0  0  0  0
   32.0193    1.8578   27.9247 O   0  0  0  0  0  0
   25.4810   -0.5420   27.0646 O   0  0  0  0  0  0
   32.5262   -3.1412   22.0092 N   0  0  0  0  0  0
   32.0660   -3.0515   23.2791 N   0  0  0  0  0  0
   34.3148   -2.9420   23.3100 N   0  0  0  0  0  0
   34.6492   -3.0817   20.9088 N   0  0  0  0  0  0
   33.9144   -3.0528   22.0271 C   0  0  0  0  0  0
   33.1832   -2.9725   23.9871 C   0  0  0  0  0  0
   29.5702   -1.2645   27.0609 C   0  0  0  0  0  0
   31.8339   -3.2981   20.8348 C   0  0  0  0  0  0
   31.0234   -1.4281   26.8142 C   0  0  0  0  0  0
   29.0956    0.0361   27.2928 C   0  0  0  0  0  0
   33.9688   -3.2318   19.7389 C   0  0  0  0  0  0
   32.5777   -3.3419   19.6543 C   0  0  0  0  0  0
   31.5109   -2.7858   26.2876 C   0  0  0  0  0  0
   31.8457   -0.3976   27.1072 C   0  0  0  0  0  0
   31.3420    0.9104   27.5374 C   0  0  0  0  0  0
   28.6572   -2.3223   27.0817 C   0  0  0  0  0  0
   27.7214    0.2914   27.3325 C   0  0  0  0  0  0
   26.8230   -0.7674   27.1772 C   0  0  0  0  0  0
   27.2894   -2.0759   27.1111 C   0  0  0  0  0  0
   30.3248   -3.4427   20.8444 C   0  0  0  0  0  0
   34.8330   -3.2862   18.4965 C   0  0  0  0  0  0
   25.0488   -1.2857   26.6327 H   0  0  0  0  0  0
   32.0870   -3.4842   18.7026 H   0  0  0  0  0  0
   30.8639   -3.0880   25.4722 H   0  0  0  0  0  0
   31.3633   -3.5274   27.0640 H   0  0  0  0  0  0
   32.9091   -0.5086   26.9786 H   0  0  0  0  0  0
   28.9942   -3.3421   27.0640 H   0  0  0  0  0  0
   27.3536    1.3007   27.4454 H   0  0  0  0  0  0
   26.5991   -2.9055   27.0642 H   0  0  0  0  0  0
   29.9320   -3.6265   19.8440 H   0  0  0  0  0  0
   30.0600   -4.2983   21.4636 H   0  0  0  0  0  0
   29.8409   -2.5564   21.2482 H   0  0  0  0  0  0
   34.2370   -3.4418   17.5971 H   0  0  0  0  0  0
   35.5486   -4.1058   18.5734 H   0  0  0  0  0  0
   35.3876   -2.3545   18.3807 H   0  0  0  0  0  0
  1 10  1  0  0  0
  1 17  1  0  0  0
  2 14  1  0  0  0
  2 19  1  0  0  0
  3 19  2  0  0  0
  4 22  1  0  0  0
  4 26  1  0  0  0
  5  6  1  0  0  0
  5  9  1  0  0  0
  5 12  1  0  0  0
  6 10  2  0  0  0
  7  9  2  0  0  0
  7 10  1  0  0  0
  8  9  1  0  0  0
  8 15  2  0  0  0
 11 13  1  0  0  0
 11 14  1  0  0  0
 11 20  2  0  0  0
 12 16  2  0  0  0
 12 24  1  0  0  0
 13 17  1  0  0  0
 13 18  2  0  0  0
 14 21  2  0  0  0
 15 16  1  0  0  0
 15 25  1  0  0  0
 16 27  1  0  0  0
 17 28  1  0  0  0
 17 29  1  0  0  0
 18 19  1  0  0  0
 18 30  1  0  0  0
 20 23  1  0  0  0
 20 31  1  0  0  0
 21 22  1  0  0  0
 21 32  1  0  0  0
 22 23  2  0  0  0
 23 33  1  0  0  0
 24 34  1  0  0  0
 24 35  1  0  0  0
 24 36  1  0  0  0
 25 37  1  0  0  0
 25 38  1  0  0  0
 25 39  1  0  0  0
M  END
> <s_m_entry_id>
16918

> <s_m_entry_name>
dock_pv.84

> <s_m_Source_Path>
/home/csk/Desktop/cluster/DUD-E-result/esr1

> <s_m_Source_File>
dock_pv.maegz

> <i_m_Source_File_Index>
84

> <chembl_id>
CHEMBL1511067

> <chembl_pref_name>
None

> <i_lp_mmshare_version>
53161

> <r_lp_tautomer_probability>
1

> <s_lp_Force_Field>
OPLS_2005

> <r_lp_Energy>
13.621842

> <b_lp_Chiralities_Consistent>
1

> <s_lp_Variant>
CHEMBL206_lig249-1

> <s_i_glide_gridfile>
glide-grid_1sj0

> <i_i_glide_lignum>
322

> <i_i_glide_rotatable_bonds>
4

> <r_i_docking_score>
-6.82630794779054

> <r_i_glide_ligand_efficiency>
-0.273052317911622

> <r_i_glide_ligand_efficiency_sa>
-0.79840982017706

> <r_i_glide_ligand_efficiency_ln>
-1.61803955156793

> <r_i_glide_gscore>
-6.82630794779054

> <r_i_glide_lipo>
-2.41960100346513

> <r_i_glide_hbond>
0

> <r_i_glide_metal>
0

> <r_i_glide_rewards>
-2.19304529071146

> <r_i_glide_evdw>
-43.2825622558594

> <r_i_glide_ecoul>
-3.37320160865784

> <r_i_glide_erotb>
0.456446700477699

> <r_i_glide_esite>
0

> <r_i_glide_emodel>
-62.2675755029807

> <r_i_glide_energy>
-46.6557638645172

> <r_i_glide_einternal>
3.62221121788025

> <i_i_glide_confnum>
5

> <i_i_glide_posenum>
3

> <r_i_glide_eff_state_penalty>
0

> <s_user_duplicate_titles>
CHEMBL206_lig249

> <i_f3d_flags>
0

> <s_m_subgroup_title>
dock_pv

> <s_m_subgroupid>
dock_pv

> <b_m_subgroup_collapsed>
1

$$$$
CHEMBL206_lig191
                    3D
 Schrodinger Suite 2021-1.
 32 33  0  0  1  0            999 V2000
   27.6600   -3.6933   27.7806 C   0  0  0  0  0  0
   26.6147   -2.8804   27.5135 O   0  0  0  0  0  0
   27.1116   -1.6193   27.4025 C   0  0  0  0  0  0
   28.4901   -1.5992   27.6344 C   0  0  0  0  0  0
   28.8160   -2.9420   27.8640 C   0  0  0  0  0  0
   26.2035   -0.5436   27.1525 C   0  0  0  0  0  0
   25.0537   -0.9420   26.5332 O   0  0  0  0  0  0
   26.4600    0.6155   27.4640 O   0  0  0  0  0  0
   29.4309   -0.4011   27.6356 C   0  0  0  0  0  0
   29.9732   -0.1986   26.3283 O   0  0  0  0  0  0
   30.9503   -1.0617   25.8773 C   0  0  0  0  0  0
   30.9924   -1.3420   24.5092 C   0  0  0  0  0  0
   31.9406   -2.2302   23.9845 C   0  0  0  0  0  0
   32.9081   -2.7798   24.8368 C   0  0  0  0  0  0
   32.8610   -2.5105   26.2044 C   0  0  0  0  0  0
   31.8945   -1.6591   26.7226 C   0  0  0  0  0  0
   34.0396   -3.6296   24.2931 C   0  0  0  0  0  0
   31.8596   -2.6608   22.5231 C   0  0  0  0  0  0
   27.4409   -4.7468   27.8707 H   0  0  0  0  0  0
   29.8035   -3.3295   28.0506 H   0  0  0  0  0  0
   25.0502   -1.8759   26.2640 H   0  0  0  0  0  0
   28.8912    0.5112   27.8811 H   0  0  0  0  0  0
   30.1900   -0.4484   28.4148 H   0  0  0  0  0  0
   30.2456   -0.9040   23.8640 H   0  0  0  0  0  0
   33.5943   -2.9385   26.8712 H   0  0  0  0  0  0
   31.9156   -1.4595   27.7813 H   0  0  0  0  0  0
   34.5529   -3.0878   23.4978 H   0  0  0  0  0  0
   34.7715   -3.8637   25.0640 H   0  0  0  0  0  0
   33.6600   -4.5538   23.8640 H   0  0  0  0  0  0
   32.0602   -3.7283   22.4310 H   0  0  0  0  0  0
   30.8600   -2.5420   22.1081 H   0  0  0  0  0  0
   32.5908   -2.1420   21.9067 H   0  0  0  0  0  0
  1  5  2  0  0  0
  1  2  1  0  0  0
  1 19  1  0  0  0
  2  3  1  0  0  0
  3  6  1  0  0  0
  3  4  2  0  0  0
  4  9  1  0  0  0
  4  5  1  0  0  0
  5 20  1  0  0  0
  6  7  1  0  0  0
  6  8  2  0  0  0
  7 21  1  0  0  0
  9 10  1  0  0  0
  9 22  1  0  0  0
  9 23  1  0  0  0
 10 11  1  0  0  0
 11 12  2  0  0  0
 11 16  1  0  0  0
 12 13  1  0  0  0
 12 24  1  0  0  0
 13 14  2  0  0  0
 13 18  1  0  0  0
 14 15  1  0  0  0
 14 17  1  0  0  0
 15 16  2  0  0  0
 15 25  1  0  0  0
 16 26  1  0  0  0
 17 27  1  0  0  0
 17 28  1  0  0  0
 17 29  1  0  0  0
 18 30  1  0  0  0
 18 31  1  0  0  0
 18 32  1  0  0  0
M  END
> <s_m_entry_id>
16919

> <s_m_entry_name>
dock_pv.85

> <s_m_Source_Path>
/home/csk/Desktop/cluster/DUD-E-result/esr1

> <s_m_Source_File>
dock_pv.maegz

> <i_m_Source_File_Index>
85

> <chembl_id>
CHEMBL447111

> <chembl_pref_name>
None

> <i_lp_mmshare_version>
53161

> <r_lp_tautomer_probability>
1

> <s_lp_Force_Field>
OPLS_2005

> <r_lp_Energy>
12.570266

> <b_lp_Chiralities_Consistent>
1

> <s_lp_Variant>
CHEMBL206_lig191-1

> <s_i_glide_gridfile>
glide-grid_1sj0

> <i_i_glide_lignum>
254

> <i_i_glide_rotatable_bonds>
5

> <r_i_docking_score>
-6.81530899127236

> <r_i_glide_ligand_efficiency>
-0.378628277292909

> <r_i_glide_ligand_efficiency_sa>
-0.992286798363504

> <r_i_glide_ligand_efficiency_ln>
-1.75184003365219

> <r_i_glide_gscore>
-6.81530899127236

> <r_i_glide_lipo>
-3.30235174145598

> <r_i_glide_hbond>
0

> <r_i_glide_metal>
0

> <r_i_glide_rewards>
-2.2790877310425

> <r_i_glide_evdw>
-32.8246955871582

> <r_i_glide_ecoul>
-2.64764165878296

> <r_i_glide_erotb>
0.80451150940148

> <r_i_glide_esite>
0

> <r_i_glide_emodel>
-45.5292090122579

> <r_i_glide_energy>
-35.4723372459412

> <r_i_glide_einternal>
6.81418180465698

> <i_i_glide_confnum>
20

> <i_i_glide_posenum>
179

> <r_i_glide_eff_state_penalty>
0

> <s_user_duplicate_titles>
CHEMBL206_lig191

> <i_f3d_flags>
0

> <s_m_subgroup_title>
dock_pv

> <s_m_subgroupid>
dock_pv

> <b_m_subgroup_collapsed>
1

$$$$
CHEMBL206_lig317
                    3D
 Schrodinger Suite 2021-1.
 41 43  0  0  1  0            999 V2000
   34.1067    1.4582   27.5198 S   0  0  0  0  0  0
   35.8527   -2.8838   20.2371 O   0  5  0  0  0  0
   35.2696   -2.9423   22.2947 O   0  0  0  0  0  0
   31.8776   -0.1890   27.0929 N   0  0  0  0  0  0
   31.0744   -0.1879   29.1743 N   0  0  0  0  0  0
   32.3219    0.4032   29.1994 N   0  0  0  0  0  0
   31.9420   -0.2621   25.7108 N   0  0  0  0  0  0
   34.9884   -2.9207   21.1103 N   0  3  0  0  0  0
   30.7869   -0.4131   27.9165 C   0  0  0  0  0  0
   29.3818   -0.5758   27.4820 C   0  0  0  0  0  0
   32.7296    0.4795   27.9591 C   0  0  0  0  0  0
   28.5956    0.5585   27.6839 C   0  0  0  0  0  0
   28.8200   -1.7406   26.9611 C   0  0  0  0  0  0
   32.4873   -2.8706   21.6479 C   0  0  0  0  0  0
   33.5586   -2.9402   20.7135 C   0  0  0  0  0  0
   32.1241   -1.4244   25.2121 C   0  0  0  0  0  0
   27.2352    0.5143   27.4502 C   0  0  0  0  0  0
   27.4498   -1.7721   26.6891 C   0  0  0  0  0  0
   26.6502   -0.6574   26.9679 C   0  0  0  0  0  0
   32.6205   -2.6819   23.1197 C   0  0  0  0  0  0
   32.1023   -1.6230   23.7881 C   0  0  0  0  0  0
   31.1810   -2.9420   21.1601 C   0  0  0  0  0  0
   33.2543   -3.0005   19.3400 C   0  0  0  0  0  0
   31.9412   -2.9919   18.8815 C   0  0  0  0  0  0
   30.8989   -2.9621   19.7961 C   0  0  0  0  0  0
   25.1467   -0.7054   26.7384 C   0  0  0  0  0  0
   34.8757    0.4402   27.0684 H   0  0  0  0  0  0
   29.0277    1.4714   28.0657 H   0  0  0  0  0  0
   29.4321   -2.6130   26.7798 H   0  0  0  0  0  0
   32.2871   -2.3286   25.7921 H   0  0  0  0  0  0
   26.6779    1.4132   27.6476 H   0  0  0  0  0  0
   27.0125   -2.6686   26.2834 H   0  0  0  0  0  0
   33.1369   -3.4635   23.6594 H   0  0  0  0  0  0
   31.6006   -0.8376   23.2449 H   0  0  0  0  0  0
   30.3673   -2.9259   21.8593 H   0  0  0  0  0  0
   34.0426   -3.0482   18.6028 H   0  0  0  0  0  0
   31.7325   -3.0339   17.8227 H   0  0  0  0  0  0
   29.8736   -2.9877   19.4543 H   0  0  0  0  0  0
   24.6311   -0.0810   27.4628 H   0  0  0  0  0  0
   24.8726   -0.2996   25.7730 H   0  0  0  0  0  0
   24.7349   -1.7126   26.8157 H   0  0  0  0  0  0
  1 11  1  0  0  0
  1 27  1  0  0  0
  2  8  1  0  0  0
  3  8  2  0  0  0
  4  7  1  0  0  0
  4  9  1  0  0  0
  4 11  1  0  0  0
  5  6  1  0  0  0
  5  9  2  0  0  0
  6 11  2  0  0  0
  7 16  2  0  0  0
  8 15  1  0  0  0
  9 10  1  0  0  0
 10 12  2  0  0  0
 10 13  1  0  0  0
 12 17  1  0  0  0
 12 28  1  0  0  0
 13 18  2  0  0  0
 13 29  1  0  0  0
 14 15  1  0  0  0
 14 20  1  0  0  0
 14 22  2  0  0  0
 15 23  2  0  0  0
 16 21  1  0  0  0
 16 30  1  0  0  0
 17 19  2  0  0  0
 17 31  1  0  0  0
 18 19  1  0  0  0
 18 32  1  0  0  0
 19 26  1  0  0  0
 20 21  2  0  0  0
 20 33  1  0  0  0
 21 34  1  0  0  0
 22 25  1  0  0  0
 22 35  1  0  0  0
 23 24  1  0  0  0
 23 36  1  0  0  0
 24 25  2  0  0  0
 24 37  1  0  0  0
 25 38  1  0  0  0
 26 39  1  0  0  0
 26 40  1  0  0  0
 26 41  1  0  0  0
M  CHG  2   2  -1   8   1
M  END
> <s_m_entry_id>
16920

> <s_m_entry_name>
dock_pv.86

> <s_m_Source_Path>
/home/csk/Desktop/cluster/DUD-E-result/esr1

> <s_m_Source_File>
dock_pv.maegz

> <i_m_Source_File_Index>
86

> <chembl_id>
CHEMBL3189771

> <chembl_pref_name>
None

> <i_lp_mmshare_version>
53161

> <r_lp_tautomer_probability>
1

> <s_lp_Force_Field>
OPLS_2005

> <r_lp_Energy>
31.777576

> <b_lp_Chiralities_Consistent>
1

> <s_lp_Variant>
CHEMBL206_lig317-1

> <s_i_glide_gridfile>
glide-grid_1sj0

> <i_i_glide_lignum>
404

> <i_i_glide_rotatable_bonds>
6

> <r_i_docking_score>
-6.81346394291377

> <r_i_glide_ligand_efficiency>
-0.262056305496683

> <r_i_glide_ligand_efficiency_sa>
-0.776340773892154

> <r_i_glide_ligand_efficiency_ln>
-1.6001196501946

> <r_i_glide_gscore>
-6.81346394291377

> <r_i_glide_lipo>
-1.90913077851926

> <r_i_glide_hbond>
0

> <r_i_glide_metal>
0

> <r_i_glide_rewards>
-3.17829757693383

> <r_i_glide_evdw>
-41.3599815368652

> <r_i_glide_ecoul>
-1.56190121173859

> <r_i_glide_erotb>
0.576248671143369

> <r_i_glide_esite>
0

> <r_i_glide_emodel>
-43.6360901327832

> <r_i_glide_energy>
-42.9218827486038

> <r_i_glide_einternal>
3.64877820014954

> <i_i_glide_confnum>
35

> <i_i_glide_posenum>
355

> <r_i_glide_eff_state_penalty>
0

> <s_user_duplicate_titles>
CHEMBL206_lig317

> <i_f3d_flags>
0

> <s_m_subgroup_title>
dock_pv

> <s_m_subgroupid>
dock_pv

> <b_m_subgroup_collapsed>
1

$$$$
301921
                    3D
 Schrodinger Suite 2021-1.
 70 74  0  0  1  0            999 V2000
   36.2880   -0.8490   17.2979 C   0  0  0  0  0  0
   35.6326   -0.7865   18.6897 C   0  0  2  0  0  0
   36.5758   -1.1569   19.8477 C   0  0  0  0  0  0
   35.8571   -2.2756   20.6066 C   0  0  0  0  0  0
   34.4487   -2.1418   20.2499 N   0  0  1  0  0  0
   34.4735   -1.7792   18.8401 C   0  0  0  0  0  0
   33.5194   -3.2299   20.6206 C   0  0  1  0  0  0
   33.8382   -4.5715   19.9251 C   0  0  0  0  0  0
   33.4167   -3.3690   22.1589 C   0  0  0  0  0  0
   32.7665   -2.2057   22.6655 O   0  0  0  0  0  0
   32.3486   -2.1831   23.9744 C   0  0  0  0  0  0
   31.2788   -1.3412   24.2545 C   0  0  0  0  0  0
   30.7946   -1.2236   25.5451 C   0  0  0  0  0  0
   31.4105   -1.9023   26.5998 C   0  0  0  0  0  0
   32.4698   -2.7732   26.3142 C   0  0  0  0  0  0
   32.9352   -2.9219   25.0080 C   0  0  0  0  0  0
   30.9620   -1.7056   28.0602 C   0  0  1  0  0  0
   30.8251   -0.2524   28.5907 C   0  0  2  0  0  0
   29.5535    0.4892   28.0753 C   0  0  1  0  0  0
   28.3973   -0.4894   27.8643 C   0  0  0  0  0  0
   27.1264   -0.0580   27.4630 C   0  0  0  0  0  0
   26.0841   -0.9648   27.2917 C   0  0  0  0  0  0
   26.2940   -2.3144   27.5436 C   0  0  0  0  0  0
   27.5592   -2.7848   27.8600 C   0  0  0  0  0  0
   28.6016   -1.8791   28.0044 C   0  0  0  0  0  0
   29.7940   -2.4449   28.3863 O   0  0  0  0  0  0
   24.8599   -0.5416   26.8626 O   0  0  0  0  0  0
   29.1876    1.7020   28.9514 C   0  0  0  0  0  0
   32.1445    0.4992   28.4435 C   0  0  0  0  0  0
   33.1828    0.2278   29.3421 C   0  0  0  0  0  0
   34.4290    0.8111   29.1525 C   0  0  0  0  0  0
   34.6106    1.6737   28.0771 C   0  0  0  0  0  0
   33.5879    1.9706   27.1949 C   0  0  0  0  0  0
   32.3553    1.3765   27.3778 C   0  0  0  0  0  0
   35.8089    2.2580   27.8639 O   0  0  0  0  0  0
   35.2595    0.2276   18.8439 H   0  0  0  0  0  0
   32.5310   -2.9266   20.2720 H   0  0  0  0  0  0
   31.7529   -2.1443   28.6677 H   0  0  0  0  0  0
   30.6875   -0.3521   29.6687 H   0  0  0  0  0  0
   29.7244    0.9001   27.0872 H   0  0  0  0  0  0
   36.6796   -1.8448   17.0863 H   0  0  0  0  0  0
   37.1126   -0.1413   17.2113 H   0  0  0  0  0  0
   35.5668   -0.6048   16.5162 H   0  0  0  0  0  0
   37.5560   -1.4889   19.5028 H   0  0  0  0  0  0
   36.7379   -0.3006   20.5058 H   0  0  0  0  0  0
   36.2701   -3.2585   20.3805 H   0  0  0  0  0  0
   35.9669   -2.1608   21.6842 H   0  0  0  0  0  0
   33.5129   -1.3690   18.5282 H   0  0  0  0  0  0
   34.6000   -2.6582   18.2063 H   0  0  0  0  0  0
   33.2600   -5.3873   20.3512 H   0  0  0  0  0  0
   33.5987   -4.5404   18.8619 H   0  0  0  0  0  0
   34.8721   -4.8697   20.0241 H   0  0  0  0  0  0
   32.8162   -4.2468   22.4090 H   0  0  0  0  0  0
   34.3975   -3.5115   22.6155 H   0  0  0  0  0  0
   30.8110   -0.7789   23.4639 H   0  0  0  0  0  0
   29.9361   -0.5968   25.6893 H   0  0  0  0  0  0
   32.9510   -3.3289   27.1053 H   0  0  0  0  0  0
   33.7659   -3.5842   24.8174 H   0  0  0  0  0  0
   26.9451    0.9889   27.2786 H   0  0  0  0  0  0
   25.4775   -3.0147   27.4640 H   0  0  0  0  0  0
   27.7242   -3.8407   28.0138 H   0  0  0  0  0  0
   24.8231    0.4023   26.6644 H   0  0  0  0  0  0
   28.3706    2.2680   28.5092 H   0  0  0  0  0  0
   28.8681    1.4116   29.9499 H   0  0  0  0  0  0
   30.0331    2.3829   29.0585 H   0  0  0  0  0  0
   33.0374   -0.4584   30.1643 H   0  0  0  0  0  0
   35.2409    0.5915   29.8305 H   0  0  0  0  0  0
   33.7556    2.6408   26.3646 H   0  0  0  0  0  0
   31.5861    1.5963   26.6640 H   0  0  0  0  0  0
   36.5439    1.8590   28.3572 H   0  0  0  0  0  0
  1  2  1  0  0  0
  1 41  1  0  0  0
  1 42  1  0  0  0
  1 43  1  0  0  0
  2 36  1  0  0  0
  2  6  1  0  0  0
  2  3  1  0  0  0
  3  4  1  0  0  0
  3 44  1  0  0  0
  3 45  1  0  0  0
  4  5  1  0  0  0
  4 46  1  0  0  0
  4 47  1  0  0  0
  5  6  1  0  0  0
  5  7  1  0  0  0
  6 48  1  0  0  0
  6 49  1  0  0  0
  7 37  1  0  0  0
  7  8  1  0  0  0
  7  9  1  0  0  0
  8 50  1  0  0  0
  8 51  1  0  0  0
  8 52  1  0  0  0
  9 10  1  0  0  0
  9 53  1  0  0  0
  9 54  1  0  0  0
 10 11  1  0  0  0
 11 16  1  0  0  0
 11 12  2  0  0  0
 12 13  1  0  0  0
 12 55  1  0  0  0
 13 14  2  0  0  0
 13 56  1  0  0  0
 14 15  1  0  0  0
 14 17  1  0  0  0
 15 16  2  0  0  0
 15 57  1  0  0  0
 16 58  1  0  0  0
 17 38  1  0  0  0
 17 26  1  0  0  0
 17 18  1  0  0  0
 18 39  1  0  0  0
 18 19  1  0  0  0
 18 29  1  0  0  0
 19 40  1  0  0  0
 19 20  1  0  0  0
 19 28  1  0  0  0
 20 25  2  0  0  0
 20 21  1  0  0  0
 21 22  2  0  0  0
 21 59  1  0  0  0
 22 23  1  0  0  0
 22 27  1  0  0  0
 23 24  2  0  0  0
 23 60  1  0  0  0
 24 25  1  0  0  0
 24 61  1  0  0  0
 25 26  1  0  0  0
 27 62  1  0  0  0
 28 63  1  0  0  0
 28 64  1  0  0  0
 28 65  1  0  0  0
 29 34  1  0  0  0
 29 30  2  0  0  0
 30 31  1  0  0  0
 30 66  1  0  0  0
 31 32  2  0  0  0
 31 67  1  0  0  0
 32 33  1  0  0  0
 32 35  1  0  0  0
 33 34  2  0  0  0
 33 68  1  0  0  0
 34 69  1  0  0  0
 35 70  1  0  0  0
M  END
> <s_m_entry_id>
17074

> <s_m_entry_name>
ligand_docking-pose.1

> <s_m_Source_Path>
/home/csk/Desktop/cluster/DUD-E-result/esr1

> <s_m_Source_File>
ligand_docking-pose.sdf

> <i_m_Source_File_Index>
1

> <i_lp_mmshare_version>
53161

> <i_f3d_flags>
0

> <r_lp_tautomer_probability>
0.999999999997365

> <s_lp_Force_Field>
OPLS_2005

> <r_lp_Energy>
53.182188

> <b_lp_Chiralities_Consistent>
1

> <s_lp_Variant>
301921-1

> <s_i_glide_gridfile>
glide-grid_1sj0

> <i_i_glide_lignum>
1579

> <i_i_glide_rotatable_bonds>
8

> <r_i_docking_score>
-11.3582840546782

> <r_i_glide_ligand_efficiency>
-0.324522401562235

> <r_i_glide_ligand_efficiency_sa>
-1.06153429339368

> <r_i_glide_ligand_efficiency_ln>
-2.49339543353457

> <r_i_glide_gscore>
-11.3582840546782

> <r_i_glide_lipo>
-6.35109569917228

> <r_i_glide_hbond>
-0.670124397188248

> <r_i_glide_metal>
0

> <r_i_glide_rewards>
-0.993188265006079

> <r_i_glide_evdw>
-52.1801605224609

> <r_i_glide_ecoul>
-8.50656414031982

> <r_i_glide_erotb>
0.541116953859389

> <r_i_glide_esite>
0

> <r_i_glide_emodel>
-85.8667994500355

> <r_i_glide_energy>
-60.6867246627808

> <r_i_glide_einternal>
19.0447216033936

> <i_i_glide_confnum>
9

> <i_i_glide_posenum>
58

> <r_i_glide_eff_state_penalty>
0

> <s_user_duplicate_titles>
301921

> <s_m_subgroup_title>
dock_pv

> <s_m_subgroupid>
dock_pv1

> <b_m_subgroup_collapsed>
0

$$$$
301882
                    3D
 Schrodinger Suite 2021-1.
 67 71  0  0  1  0            999 V2000
   29.2865    1.7739   28.9172 C   0  0  0  0  0  0
   29.5596    0.5759   27.9784 C   0  0  2  0  0  0
   28.3549   -0.3409   27.7792 C   0  0  0  0  0  0
   27.0898    0.1746   27.4640 C   0  0  0  0  0  0
   25.9848   -0.6603   27.3428 C   0  0  0  0  0  0
   26.1307   -2.0306   27.5178 C   0  0  0  0  0  0
   27.3861   -2.5814   27.7421 C   0  0  0  0  0  0
   28.4902   -1.7435   27.8662 C   0  0  0  0  0  0
   29.6607   -2.3865   28.2032 O   0  0  0  0  0  0
   30.8722   -1.6880   27.9220 C   0  0  2  0  0  0
   30.8057   -0.2299   28.4540 C   0  0  1  0  0  0
   32.1495    0.4866   28.3274 C   0  0  0  0  0  0
   33.1985    0.1202   29.1793 C   0  0  0  0  0  0
   34.4491    0.7071   29.0305 C   0  0  0  0  0  0
   34.6284    1.6617   28.0355 C   0  0  0  0  0  0
   33.6001    2.0440   27.1932 C   0  0  0  0  0  0
   32.3597    1.4561   27.3413 C   0  0  0  0  0  0
   35.8271    2.2580   27.8640 O   0  0  0  0  0  0
   31.3982   -1.9260   26.4932 C   0  0  0  0  0  0
   30.9926   -1.1428   25.4090 C   0  0  0  0  0  0
   31.5547   -1.3416   24.1527 C   0  0  0  0  0  0
   32.4881   -2.3523   23.9386 C   0  0  0  0  0  0
   32.8804   -3.1566   25.0136 C   0  0  0  0  0  0
   32.3388   -2.9419   26.2783 C   0  0  0  0  0  0
   33.0095   -2.4546   22.6667 O   0  0  0  0  0  0
   33.3393   -3.7422   22.1376 C   0  0  0  0  0  0
   34.1440   -3.6102   20.8129 C   0  0  2  0  0  0
   35.5831   -3.1292   21.1032 C   0  0  0  0  0  0
   33.4935   -2.6885   19.8609 N   0  0  0  0  0  0
   34.1664   -2.5181   18.5793 C   0  0  0  0  0  0
   33.1667   -1.7544   17.7201 C   0  0  0  0  0  0
   31.8026   -2.2182   18.2337 C   0  0  0  0  0  0
   32.1405   -3.0710   19.4622 C   0  0  0  0  0  0
   24.7498   -0.1420   27.0640 O   0  0  0  0  0  0
   29.7193    0.9918   26.9891 H   0  0  0  0  0  0
   31.6118   -2.1627   28.5653 H   0  0  0  0  0  0
   30.6747   -0.3441   29.5318 H   0  0  0  0  0  0
   34.1981   -4.5991   20.3518 H   0  0  0  0  0  0
   28.3745    2.3102   28.6617 H   0  0  0  0  0  0
   29.2111    1.4587   29.9579 H   0  0  0  0  0  0
   30.0991    2.4979   28.8648 H   0  0  0  0  0  0
   26.9559    1.2374   27.3336 H   0  0  0  0  0  0
   25.2689   -2.6774   27.4641 H   0  0  0  0  0  0
   27.4959   -3.6504   27.8512 H   0  0  0  0  0  0
   33.0532   -0.6308   29.9423 H   0  0  0  0  0  0
   35.2659    0.4211   29.6766 H   0  0  0  0  0  0
   33.7679    2.7828   26.4239 H   0  0  0  0  0  0
   31.5840    1.7559   26.6640 H   0  0  0  0  0  0
   36.5575    1.8580   28.3620 H   0  0  0  0  0  0
   30.2520   -0.3715   25.5160 H   0  0  0  0  0  0
   31.2603   -0.7079   23.3321 H   0  0  0  0  0  0
   33.6216   -3.9315   24.8946 H   0  0  0  0  0  0
   32.6684   -3.5666   27.0949 H   0  0  0  0  0  0
   32.4215   -4.3086   21.9700 H   0  0  0  0  0  0
   33.9317   -4.3327   22.8349 H   0  0  0  0  0  0
   36.0584   -3.7420   21.8639 H   0  0  0  0  0  0
   36.2206   -3.1862   20.2214 H   0  0  0  0  0  0
   35.5966   -2.1029   21.4641 H   0  0  0  0  0  0
   34.4766   -3.4718   18.1466 H   0  0  0  0  0  0
   35.0850   -1.9492   18.7258 H   0  0  0  0  0  0
   33.3133   -1.9696   16.6641 H   0  0  0  0  0  0
   33.3031   -0.6809   17.8496 H   0  0  0  0  0  0
   31.1734   -1.3672   18.4968 H   0  0  0  0  0  0
   31.2698   -2.8079   17.4867 H   0  0  0  0  0  0
   31.4512   -2.8906   20.2889 H   0  0  0  0  0  0
   32.0611   -4.1402   19.2554 H   0  0  0  0  0  0
   24.6913    0.8307   27.0640 H   0  0  0  0  0  0
  1  2  1  0  0  0
  1 39  1  0  0  0
  1 40  1  0  0  0
  1 41  1  0  0  0
  2 35  1  0  0  0
  2 11  1  0  0  0
  2  3  1  0  0  0
  3  8  2  0  0  0
  3  4  1  0  0  0
  4  5  2  0  0  0
  4 42  1  0  0  0
  5  6  1  0  0  0
  5 34  1  0  0  0
  6  7  2  0  0  0
  6 43  1  0  0  0
  7  8  1  0  0  0
  7 44  1  0  0  0
  8  9  1  0  0  0
  9 10  1  0  0  0
 10 36  1  0  0  0
 10 11  1  0  0  0
 10 19  1  0  0  0
 11 37  1  0  0  0
 11 12  1  0  0  0
 12 17  1  0  0  0
 12 13  2  0  0  0
 13 14  1  0  0  0
 13 45  1  0  0  0
 14 15  2  0  0  0
 14 46  1  0  0  0
 15 16  1  0  0  0
 15 18  1  0  0  0
 16 17  2  0  0  0
 16 47  1  0  0  0
 17 48  1  0  0  0
 18 49  1  0  0  0
 19 24  1  0  0  0
 19 20  2  0  0  0
 20 21  1  0  0  0
 20 50  1  0  0  0
 21 22  2  0  0  0
 21 51  1  0  0  0
 22 23  1  0  0  0
 22 25  1  0  0  0
 23 24  2  0  0  0
 23 52  1  0  0  0
 24 53  1  0  0  0
 25 26  1  0  0  0
 26 27  1  0  0  0
 26 54  1  0  0  0
 26 55  1  0  0  0
 27 38  1  0  0  0
 27 28  1  0  0  0
 27 29  1  0  0  0
 28 56  1  0  0  0
 28 57  1  0  0  0
 28 58  1  0  0  0
 29 33  1  0  0  0
 29 30  1  0  0  0
 30 31  1  0  0  0
 30 59  1  0  0  0
 30 60  1  0  0  0
 31 32  1  0  0  0
 31 61  1  0  0  0
 31 62  1  0  0  0
 32 33  1  0  0  0
 32 63  1  0  0  0
 32 64  1  0  0  0
 33 65  1  0  0  0
 33 66  1  0  0  0
 34 67  1  0  0  0
M  END
> <s_m_entry_id>
17075

> <s_m_entry_name>
ligand_docking-pose.2

> <s_m_Source_Path>
/home/csk/Desktop/cluster/DUD-E-result/esr1

> <s_m_Source_File>
ligand_docking-pose.sdf

> <i_m_Source_File_Index>
2

> <i_lp_mmshare_version>
53161

> <i_f3d_flags>
0

> <r_lp_tautomer_probability>
0.999999999997365

> <s_lp_Force_Field>
OPLS_2005

> <r_lp_Energy>
50.622384

> <b_lp_Chiralities_Consistent>
1

> <s_lp_Variant>
301882-1

> <s_i_glide_gridfile>
glide-grid_1sj0

> <i_i_glide_lignum>
1555

> <i_i_glide_rotatable_bonds>
8

> <r_i_docking_score>
-11.2508357310412

> <r_i_glide_ligand_efficiency>
-0.330906933265919

> <r_i_glide_ligand_efficiency_sa>
-1.07201000487271

> <r_i_glide_ligand_efficiency_ln>
-2.48562518824002

> <r_i_glide_gscore>
-11.2508357310412

> <r_i_glide_lipo>
-6.02834323042302

> <r_i_glide_hbond>
-0.635749418321653

> <r_i_glide_metal>
0

> <r_i_glide_rewards>
-0.935009372254266

> <r_i_glide_evdw>
-47.8755187988281

> <r_i_glide_ecoul>
-11.5619964599609

> <r_i_glide_erotb>
0.476341698893245

> <r_i_glide_esite>
0

> <r_i_glide_emodel>
-92.5056106089701

> <r_i_glide_energy>
-59.4375152587891

> <r_i_glide_einternal>
9.55350780487061

> <i_i_glide_confnum>
3

> <i_i_glide_posenum>
99

> <r_i_glide_eff_state_penalty>
0

> <s_user_duplicate_titles>
301882

> <s_m_subgroup_title>
dock_pv

> <s_m_subgroupid>
dock_pv1

> <b_m_subgroup_collapsed>
0

$$$$
202826
                    3D
 Schrodinger Suite 2021-1.
 53 57  0  0  1  0            999 V2000
   30.8561   -1.1800   25.6818 C   0  0  0  0  0  0
   31.2739   -1.5103   24.3933 C   0  0  0  0  0  0
   32.2862   -2.4560   24.1925 C   0  0  0  0  0  0
   32.8783   -3.0547   25.3095 C   0  0  0  0  0  0
   32.4590   -2.7289   26.5945 C   0  0  0  0  0  0
   31.4428   -1.7897   26.7969 C   0  0  0  0  0  0
   30.9966   -1.4899   28.2452 C   0  0  1  0  0  0
   30.8924   -0.0266   28.7326 C   0  0  2  0  0  0
   29.4223    0.8852   28.1363 S   0  0  0  0  0  0
   28.3039   -0.4586   27.8532 C   0  0  0  0  0  0
   27.0220   -0.1780   27.3752 C   0  0  0  0  0  0
   26.1060   -1.2090   27.1751 C   0  0  0  0  0  0
   26.4597   -2.5226   27.4795 C   0  0  0  0  0  0
   27.7544   -2.8298   27.8649 C   0  0  0  0  0  0
   28.6628   -1.8008   28.0788 C   0  0  0  0  0  0
   29.8452   -2.2049   28.6414 O   0  0  0  0  0  0
   24.8667   -0.9420   26.6639 O   0  0  0  0  0  0
   32.2054    0.7032   28.5216 C   0  0  0  0  0  0
   32.4108    1.4579   27.3664 C   0  0  0  0  0  0
   33.6580    1.9946   27.0980 C   0  0  0  0  0  0
   34.6913    1.7643   27.9916 C   0  0  0  0  0  0
   34.5001    1.0408   29.1658 C   0  0  0  0  0  0
   33.2456    0.5113   29.4348 C   0  0  0  0  0  0
   35.9143    2.2580   27.6917 O   0  0  0  0  0  0
   32.7349   -2.7939   22.8187 C   0  0  0  0  0  0
   34.0494   -2.9452   22.5518 C   0  0  0  0  0  0
   34.5778   -3.3693   21.1903 C   0  0  0  0  0  0
   33.5839   -3.8714   20.2422 N   0  0  2  0  0  0
   32.2991   -3.1837   20.3539 C   0  0  0  0  0  0
   31.7227   -3.2929   21.7874 C   0  0  0  0  0  0
   31.7773   -1.9327   28.8684 H   0  0  0  0  0  0
   30.7406   -0.0513   29.8129 H   0  0  0  0  0  0
   30.0671   -0.4564   25.7929 H   0  0  0  0  0  0
   30.8098   -1.0252   23.5479 H   0  0  0  0  0  0
   33.6577   -3.7930   25.1851 H   0  0  0  0  0  0
   32.9247   -3.2237   27.4341 H   0  0  0  0  0  0
   26.7311    0.8398   27.1603 H   0  0  0  0  0  0
   25.7308   -3.3193   27.4635 H   0  0  0  0  0  0
   28.0257   -3.8507   28.0896 H   0  0  0  0  0  0
   24.5400   -1.7020   26.1587 H   0  0  0  0  0  0
   31.6100    1.6029   26.6641 H   0  0  0  0  0  0
   33.8313    2.5582   26.1937 H   0  0  0  0  0  0
   35.3139    0.8823   29.8588 H   0  0  0  0  0  0
   33.0986   -0.0819   30.3268 H   0  0  0  0  0  0
   36.6257    1.8675   28.2240 H   0  0  0  0  0  0
   34.7694   -2.6932   23.3154 H   0  0  0  0  0  0
   35.3316   -4.1405   21.3362 H   0  0  0  0  0  0
   35.1403   -2.5390   20.7600 H   0  0  0  0  0  0
   33.4132   -4.8557   20.4200 H   0  0  0  0  0  0
   32.4045   -2.1427   20.0486 H   0  0  0  0  0  0
   31.6048   -3.6334   19.6437 H   0  0  0  0  0  0
   30.7776   -2.7604   21.8631 H   0  0  0  0  0  0
   31.4959   -4.3408   21.9880 H   0  0  0  0  0  0
  1  6  1  0  0  0
  1  2  2  0  0  0
  1 33  1  0  0  0
  2  3  1  0  0  0
  2 34  1  0  0  0
  3  4  2  0  0  0
  3 25  1  0  0  0
  4  5  1  0  0  0
  4 35  1  0  0  0
  5  6  2  0  0  0
  5 36  1  0  0  0
  6  7  1  0  0  0
  7 31  1  0  0  0
  7 16  1  0  0  0
  7  8  1  0  0  0
  8 32  1  0  0  0
  8  9  1  0  0  0
  8 18  1  0  0  0
  9 10  1  0  0  0
 10 15  2  0  0  0
 10 11  1  0  0  0
 11 12  2  0  0  0
 11 37  1  0  0  0
 12 13  1  0  0  0
 12 17  1  0  0  0
 13 14  2  0  0  0
 13 38  1  0  0  0
 14 15  1  0  0  0
 14 39  1  0  0  0
 15 16  1  0  0  0
 17 40  1  0  0  0
 18 23  1  0  0  0
 18 19  2  0  0  0
 19 20  1  0  0  0
 19 41  1  0  0  0
 20 21  2  0  0  0
 20 42  1  0  0  0
 21 22  1  0  0  0
 21 24  1  0  0  0
 22 23  2  0  0  0
 22 43  1  0  0  0
 23 44  1  0  0  0
 24 45  1  0  0  0
 25 30  1  0  0  0
 25 26  2  0  0  0
 26 27  1  0  0  0
 26 46  1  0  0  0
 27 28  1  0  0  0
 27 47  1  0  0  0
 27 48  1  0  0  0
 28 29  1  0  0  0
 28 49  1  0  0  0
 29 30  1  0  0  0
 29 50  1  0  0  0
 29 51  1  0  0  0
 30 52  1  0  0  0
 30 53  1  0  0  0
M  END
> <s_m_entry_id>
17076

> <s_m_entry_name>
ligand_docking-pose.3

> <s_m_Source_Path>
/home/csk/Desktop/cluster/DUD-E-result/esr1

> <s_m_Source_File>
ligand_docking-pose.sdf

> <i_m_Source_File_Index>
3

> <i_lp_mmshare_version>
53161

> <i_f3d_flags>
0

> <r_lp_tautomer_probability>
0.999999999997365

> <s_lp_Force_Field>
OPLS_2005

> <r_lp_Energy>
29.050981

> <b_lp_Chiralities_Consistent>
1

> <s_lp_Variant>
202826-1

> <s_i_glide_gridfile>
glide-grid_1sj0

> <i_i_glide_lignum>
550

> <i_i_glide_rotatable_bonds>
5

> <r_i_docking_score>
-11.2238926750699

> <r_i_glide_ligand_efficiency>
-0.374129755835664

> <r_i_glide_ligand_efficiency_sa>
-1.16250813745918

> <r_i_glide_ligand_efficiency_ln>
-2.55019070988157

> <r_i_glide_gscore>
-11.2238926750699

> <r_i_glide_lipo>
-5.62313652604546

> <r_i_glide_hbond>
-0.589303110988429

> <r_i_glide_metal>
0

> <r_i_glide_rewards>
-1.46235668181818

> <r_i_glide_evdw>
-50.6354446411133

> <r_i_glide_ecoul>
-8.36956596374512

> <r_i_glide_erotb>
0.238110770399582

> <r_i_glide_esite>
0

> <r_i_glide_emodel>
-77.4853455413561

> <r_i_glide_energy>
-59.0050106048584

> <r_i_glide_einternal>
9.62612819671631

> <i_i_glide_confnum>
9

> <i_i_glide_posenum>
105

> <r_i_glide_eff_state_penalty>
0

> <s_user_duplicate_titles>
202826

> <s_m_subgroup_title>
dock_pv

> <s_m_subgroupid>
dock_pv1

> <b_m_subgroup_collapsed>
0

$$$$
204429
                    3D
 Schrodinger Suite 2021-1.
 59 63  0  0  1  0            999 V2000
   33.0673    0.2342   29.2144 C   0  0  0  0  0  0
   34.3056    0.8521   29.1030 C   0  0  0  0  0  0
   34.5662    1.6425   27.9901 C   0  0  0  0  0  0
   33.6457    1.8227   26.9770 C   0  0  0  0  0  0
   32.4329    1.1762   27.0734 C   0  0  0  0  0  0
   32.1296    0.3958   28.1910 C   0  0  0  0  0  0
   30.8186   -0.3673   28.2378 C   0  0  2  0  0  0
   31.0039   -1.7693   27.6210 C   0  0  1  0  0  0
   29.5930   -2.8366   27.8640 S   0  0  0  0  0  0
   28.1520   -1.8842   27.6422 C   0  0  0  0  0  0
   26.9929   -2.6474   27.6171 C   0  0  0  0  0  0
   25.7657   -2.0344   27.5102 C   0  0  0  0  0  0
   25.6767   -0.6699   27.3563 C   0  0  0  0  0  0
   26.8149    0.1185   27.4640 C   0  0  0  0  0  0
   28.0678   -0.4750   27.6194 C   0  0  0  0  0  0
   29.4415    0.6269   27.5854 S   0  0  0  0  0  0
   24.4600   -0.1420   27.0640 O   0  0  0  0  0  0
   31.5531   -1.9298   26.2001 C   0  0  0  0  0  0
   31.1038   -1.1396   25.1420 C   0  0  0  0  0  0
   31.6008   -1.3452   23.8640 C   0  0  0  0  0  0
   32.4970   -2.3769   23.6011 C   0  0  0  0  0  0
   32.9545   -3.1715   24.6592 C   0  0  0  0  0  0
   32.4884   -2.9420   25.9496 C   0  0  0  0  0  0
   32.8588   -2.5420   22.2820 O   0  0  0  0  0  0
   33.6552   -3.6587   21.8952 C   0  0  0  0  0  0
   34.0442   -3.5096   20.4123 C   0  0  0  0  0  0
   34.8142   -2.2865   20.1616 N   0  0  0  0  0  0
   36.1512   -2.2757   20.7389 C   0  0  0  0  0  0
   36.8599   -1.1044   20.0576 C   0  0  0  0  0  0
   36.1208   -0.9420   18.7244 C   0  0  0  0  0  0
   35.0553   -2.0387   18.7492 C   0  0  0  0  0  0
   35.7547    2.2580   27.8640 O   0  0  0  0  0  0
   30.5680   -0.4879   29.2933 H   0  0  0  0  0  0
   31.7578   -2.2428   28.2515 H   0  0  0  0  0  0
   32.8562   -0.3916   30.0697 H   0  0  0  0  0  0
   35.0577    0.7174   29.8640 H   0  0  0  0  0  0
   33.8846    2.4249   26.1125 H   0  0  0  0  0  0
   31.7348    1.2638   26.2640 H   0  0  0  0  0  0
   27.0329   -3.7265   27.6731 H   0  0  0  0  0  0
   24.8766   -2.6402   27.4640 H   0  0  0  0  0  0
   26.7324    1.1909   27.3641 H   0  0  0  0  0  0
   24.4600    0.8349   27.0640 H   0  0  0  0  0  0
   30.3644   -0.3699   25.2842 H   0  0  0  0  0  0
   31.2601   -0.7138   23.0640 H   0  0  0  0  0  0
   33.6525   -3.9791   24.4998 H   0  0  0  0  0  0
   32.8350   -3.5796   26.7498 H   0  0  0  0  0  0
   33.0817   -4.5762   22.0330 H   0  0  0  0  0  0
   34.5548   -3.7396   22.5035 H   0  0  0  0  0  0
   33.1288   -3.4818   19.8185 H   0  0  0  0  0  0
   34.6020   -4.3877   20.0814 H   0  0  0  0  0  0
   36.6695   -3.2268   20.5996 H   0  0  0  0  0  0
   36.0752   -2.1420   21.8186 H   0  0  0  0  0  0
   37.9196   -1.3177   19.9133 H   0  0  0  0  0  0
   36.7873   -0.2003   20.6640 H   0  0  0  0  0  0
   35.6600    0.0434   18.6403 H   0  0  0  0  0  0
   36.7889   -1.0628   17.8710 H   0  0  0  0  0  0
   34.1202   -1.7260   18.2816 H   0  0  0  0  0  0
   35.3587   -2.9408   18.2135 H   0  0  0  0  0  0
   36.4437    1.8778   28.4261 H   0  0  0  0  0  0
  1  6  1  0  0  0
  1  2  2  0  0  0
  1 35  1  0  0  0
  2  3  1  0  0  0
  2 36  1  0  0  0
  3  4  2  0  0  0
  3 32  1  0  0  0
  4  5  1  0  0  0
  4 37  1  0  0  0
  5  6  2  0  0  0
  5 38  1  0  0  0
  6  7  1  0  0  0
  7 33  1  0  0  0
  7 16  1  0  0  0
  7  8  1  0  0  0
  8 34  1  0  0  0
  8  9  1  0  0  0
  8 18  1  0  0  0
  9 10  1  0  0  0
 10 15  2  0  0  0
 10 11  1  0  0  0
 11 12  2  0  0  0
 11 39  1  0  0  0
 12 13  1  0  0  0
 12 40  1  0  0  0
 13 14  2  0  0  0
 13 17  1  0  0  0
 14 15  1  0  0  0
 14 41  1  0  0  0
 15 16  1  0  0  0
 17 42  1  0  0  0
 18 23  1  0  0  0
 18 19  2  0  0  0
 19 20  1  0  0  0
 19 43  1  0  0  0
 20 21  2  0  0  0
 20 44  1  0  0  0
 21 22  1  0  0  0
 21 24  1  0  0  0
 22 23  2  0  0  0
 22 45  1  0  0  0
 23 46  1  0  0  0
 24 25  1  0  0  0
 25 26  1  0  0  0
 25 47  1  0  0  0
 25 48  1  0  0  0
 26 27  1  0  0  0
 26 49  1  0  0  0
 26 50  1  0  0  0
 27 31  1  0  0  0
 27 28  1  0  0  0
 28 29  1  0  0  0
 28 51  1  0  0  0
 28 52  1  0  0  0
 29 30  1  0  0  0
 29 53  1  0  0  0
 29 54  1  0  0  0
 30 31  1  0  0  0
 30 55  1  0  0  0
 30 56  1  0  0  0
 31 57  1  0  0  0
 31 58  1  0  0  0
 32 59  1  0  0  0
M  END
> <s_m_entry_id>
17077

> <s_m_entry_name>
ligand_docking-pose.4

> <s_m_Source_Path>
/home/csk/Desktop/cluster/DUD-E-result/esr1

> <s_m_Source_File>
ligand_docking-pose.sdf

> <i_m_Source_File_Index>
4

> <i_lp_mmshare_version>
53161

> <i_f3d_flags>
0

> <r_lp_tautomer_probability>
0.99999999999473

> <s_lp_Force_Field>
OPLS_2005

> <r_lp_Energy>
43.920755

> <b_lp_Chiralities_Consistent>
1

> <s_lp_Variant>
204429-1

> <s_i_glide_gridfile>
glide-grid_1sj0

> <i_i_glide_lignum>
560

> <i_i_glide_rotatable_bonds>
8

> <r_i_docking_score>
-11.1877578508149

> <r_i_glide_ligand_efficiency>
-0.349617432837965

> <r_i_glide_ligand_efficiency_sa>
-1.10996616006453

> <r_i_glide_ligand_efficiency_ln>
-2.50524394955843

> <r_i_glide_gscore>
-11.1877578508149

> <r_i_glide_lipo>
-6.01510541655701

> <r_i_glide_hbond>
-0.664093712016095

> <r_i_glide_metal>
0

> <r_i_glide_rewards>
-1.13399909323272

> <r_i_glide_evdw>
-40.4561958312988

> <r_i_glide_ecoul>
-12.112455368042

> <r_i_glide_erotb>
0.465118467762186

> <r_i_glide_esite>
0

> <r_i_glide_emodel>
-55.0908984500265

> <r_i_glide_energy>
-52.5686511993408

> <r_i_glide_einternal>
4.28433561325073

> <i_i_glide_confnum>
4

> <i_i_glide_posenum>
30

> <r_i_glide_eff_state_penalty>
0

> <s_user_duplicate_titles>
204429

> <s_m_subgroup_title>
dock_pv

> <s_m_subgroupid>
dock_pv1

> <b_m_subgroup_collapsed>
0

$$$$
104019
                    3D
 Schrodinger Suite 2021-1.
 62 66  0  0  1  0            999 V2000
   31.2391   -1.4262   25.1588 C   0  0  0  0  0  0
   31.6842   -1.6439   23.8637 C   0  0  0  0  0  0
   32.6324   -2.6259   23.5902 C   0  0  0  0  0  0
   33.1950   -3.3419   24.6554 C   0  0  0  0  0  0
   32.7579   -3.1245   25.9577 C   0  0  0  0  0  0
   31.7653   -2.1767   26.2110 C   0  0  0  0  0  0
   31.2539   -1.9622   27.6309 C   0  0  1  0  0  0
   31.1175   -0.4867   28.0194 C   0  0  0  0  0  0
   29.9035    0.0835   28.0889 C   0  0  0  0  0  0
   28.7049   -0.7062   27.9175 C   0  0  0  0  0  0
   27.4353   -0.1317   27.8641 C   0  0  0  0  0  0
   26.3170   -0.9617   27.8514 C   0  0  0  0  0  0
   26.4935   -2.3432   27.8594 C   0  0  0  0  0  0
   27.7468   -2.9201   27.8047 C   0  0  0  0  0  0
   28.8476   -2.0928   27.8270 C   0  0  0  0  0  0
   30.0600   -2.7292   27.8640 O   0  0  0  0  0  0
   25.4360   -3.1687   27.8640 O   0  0  0  0  0  0
   32.3240    0.3175   28.0983 C   0  0  0  0  0  0
   33.3787   -0.0670   28.9287 C   0  0  0  0  0  0
   34.5240    0.7109   28.9732 C   0  0  0  0  0  0
   34.5829    1.8568   28.1895 C   0  0  0  0  0  0
   33.5528    2.2360   27.3480 C   0  0  0  0  0  0
   32.4141    1.4588   27.3072 C   0  0  0  0  0  0
   35.6600    2.6580   28.2638 O   0  0  0  0  0  0
   32.9438   -2.8269   22.2608 O   0  0  0  0  0  0
   33.5653   -4.0511   21.8652 C   0  0  0  0  0  0
   33.9738   -4.0304   20.3785 C   0  0  0  0  0  0
   35.1971   -3.2460   20.1587 N   0  0  0  0  0  0
   34.9627   -1.7958   20.1545 C   0  0  0  0  0  0
   36.2929   -1.0241   20.1160 C   0  0  0  0  0  0
   37.1616   -1.4396   18.9167 C   0  0  0  0  0  0
   37.2942   -2.9722   18.8615 C   0  0  0  0  0  0
   35.9285   -3.6861   18.9645 C   0  0  0  0  0  0
   30.4742   -0.6843   25.3361 H   0  0  0  0  0  0
   31.2609   -1.0644   23.0640 H   0  0  0  0  0  0
   33.9463   -4.0990   24.4966 H   0  0  0  0  0  0
   33.1790   -3.7097   26.7629 H   0  0  0  0  0  0
   31.9969   -2.4009   28.2976 H   0  0  0  0  0  0
   29.8169    1.1411   28.2957 H   0  0  0  0  0  0
   27.3079    0.9414   27.8819 H   0  0  0  0  0  0
   25.3226   -0.5419   27.8468 H   0  0  0  0  0  0
   27.8668   -3.9931   27.7737 H   0  0  0  0  0  0
   25.2599   -3.3423   26.9088 H   0  0  0  0  0  0
   33.3148   -0.9544   29.5427 H   0  0  0  0  0  0
   35.3445    0.4349   29.6192 H   0  0  0  0  0  0
   33.6322    3.1252   26.7429 H   0  0  0  0  0  0
   31.5983    1.7464   26.6641 H   0  0  0  0  0  0
   36.4159    2.2080   28.6642 H   0  0  0  0  0  0
   32.8587   -4.8665   22.0321 H   0  0  0  0  0  0
   34.4588   -4.2628   22.4508 H   0  0  0  0  0  0
   33.1569   -3.6537   19.7598 H   0  0  0  0  0  0
   34.1333   -5.0656   20.0715 H   0  0  0  0  0  0
   34.4475   -1.5077   21.0637 H   0  0  0  0  0  0
   34.3049   -1.5206   19.3276 H   0  0  0  0  0  0
   36.8193   -1.1673   21.0622 H   0  0  0  0  0  0
   36.0707    0.0424   20.0646 H   0  0  0  0  0  0
   36.7050   -1.0791   17.9926 H   0  0  0  0  0  0
   38.1472   -0.9751   18.9790 H   0  0  0  0  0  0
   37.7753   -3.2571   17.9256 H   0  0  0  0  0  0
   37.9565   -3.3396   19.6468 H   0  0  0  0  0  0
   36.1082   -4.7596   19.0411 H   0  0  0  0  0  0
   35.3179   -3.5365   18.0719 H   0  0  0  0  0  0
  1  6  1  0  0  0
  1  2  2  0  0  0
  1 34  1  0  0  0
  2  3  1  0  0  0
  2 35  1  0  0  0
  3  4  2  0  0  0
  3 25  1  0  0  0
  4  5  1  0  0  0
  4 36  1  0  0  0
  5  6  2  0  0  0
  5 37  1  0  0  0
  6  7  1  0  0  0
  7 16  1  0  0  0
  7  8  1  0  0  0
  7 38  1  0  0  0
  8  9  2  0  0  0
  8 18  1  0  0  0
  9 10  1  0  0  0
  9 39  1  0  0  0
 10 15  2  0  0  0
 10 11  1  0  0  0
 11 12  2  0  0  0
 11 40  1  0  0  0
 12 13  1  0  0  0
 12 41  1  0  0  0
 13 14  2  0  0  0
 13 17  1  0  0  0
 14 15  1  0  0  0
 14 42  1  0  0  0
 15 16  1  0  0  0
 17 43  1  0  0  0
 18 23  1  0  0  0
 18 19  2  0  0  0
 19 20  1  0  0  0
 19 44  1  0  0  0
 20 21  2  0  0  0
 20 45  1  0  0  0
 21 22  1  0  0  0
 21 24  1  0  0  0
 22 23  2  0  0  0
 22 46  1  0  0  0
 23 47  1  0  0  0
 24 48  1  0  0  0
 25 26  1  0  0  0
 26 27  1  0  0  0
 26 49  1  0  0  0
 26 50  1  0  0  0
 27 28  1  0  0  0
 27 51  1  0  0  0
 27 52  1  0  0  0
 28 33  1  0  0  0
 28 29  1  0  0  0
 29 30  1  0  0  0
 29 53  1  0  0  0
 29 54  1  0  0  0
 30 31  1  0  0  0
 30 55  1  0  0  0
 30 56  1  0  0  0
 31 32  1  0  0  0
 31 57  1  0  0  0
 31 58  1  0  0  0
 32 33  1  0  0  0
 32 59  1  0  0  0
 32 60  1  0  0  0
 33 61  1  0  0  0
 33 62  1  0  0  0
M  END
> <s_m_entry_id>
17078

> <s_m_entry_name>
ligand_docking-pose.5

> <s_m_Source_Path>
/home/csk/Desktop/cluster/DUD-E-result/esr1

> <s_m_Source_File>
ligand_docking-pose.sdf

> <i_m_Source_File_Index>
5

> <i_lp_mmshare_version>
53161

> <i_f3d_flags>
0

> <r_lp_tautomer_probability>
1

> <s_lp_Force_Field>
OPLS_2005

> <r_lp_Energy>
46.347396

> <b_lp_Chiralities_Consistent>
1

> <s_lp_Variant>
104019-2

> <s_i_glide_gridfile>
glide-grid_1sj0

> <i_i_glide_lignum>
329

> <i_i_glide_rotatable_bonds>
8

> <r_i_docking_score>
-11.167422229223

> <r_i_glide_ligand_efficiency>
-0.338406734218879

> <r_i_glide_ligand_efficiency_sa>
-1.08545121624373

> <r_i_glide_ligand_efficiency_ln>
-2.48357688196145

> <r_i_glide_gscore>
-11.167422229223

> <r_i_glide_lipo>
-5.82189860343459

> <r_i_glide_hbond>
-0.45239289019236

> <r_i_glide_metal>
0

> <r_i_glide_rewards>
-1.26111462179557

> <r_i_glide_evdw>
-43.4006538391113

> <r_i_glide_ecoul>
-13.1341466903687

> <r_i_glide_erotb>
0.508138581710386

> <r_i_glide_esite>
0

> <r_i_glide_emodel>
-78.1324113928827

> <r_i_glide_energy>
-56.53480052948

> <r_i_glide_einternal>
10.9260501861572

> <i_i_glide_confnum>
4

> <i_i_glide_posenum>
13

> <r_i_glide_eff_state_penalty>
0

> <s_user_duplicate_titles>
104019

> <s_m_subgroup_title>
dock_pv

> <s_m_subgroupid>
dock_pv1

> <b_m_subgroup_collapsed>
0

$$$$
323565
                    3D
 Schrodinger Suite 2021-1.
 65 69  0  0  1  0            999 V2000
   32.0407   -2.5571   18.1233 C   0  0  0  0  0  0
   32.1037   -3.5268   19.3160 C   0  0  0  0  0  0
   32.9916   -3.0298   20.4917 C   0  0  1  0  0  0
   32.1975   -3.0986   21.8422 C   0  0  0  0  0  0
   32.9578   -2.6658   23.0340 N   0  0  0  0  0  0
   34.2542   -3.3422   23.0465 C   0  0  0  0  0  0
   35.0351   -3.1890   21.7285 C   0  0  0  0  0  0
   34.2760   -3.7421   20.6124 N   0  0  2  0  0  0
   35.0992   -3.6239   19.4067 C   0  0  0  0  0  0
   32.3351   -2.2897   24.2213 C   0  0  0  0  0  0
   32.6306   -2.9073   25.4462 C   0  0  0  0  0  0
   32.0426   -2.4629   26.6293 C   0  0  0  0  0  0
   31.1433   -1.3940   26.6095 C   0  0  0  0  0  0
   30.8441   -0.7776   25.3906 C   0  0  0  0  0  0
   31.4375   -1.2216   24.2135 C   0  0  0  0  0  0
   30.4934   -0.8917   27.9139 C   0  0  2  0  0  0
   28.9760   -0.7143   27.7151 C   0  0  0  0  0  0
   28.1370   -1.8107   27.4628 C   0  0  0  0  0  0
   26.7702   -1.6367   27.2466 C   0  0  0  0  0  0
   26.2319   -0.3549   27.2528 C   0  0  0  0  0  0
   27.0577    0.7400   27.4641 C   0  0  0  0  0  0
   28.4164    0.5755   27.7206 C   0  0  0  0  0  0
   29.2908    1.7619   28.0612 C   0  0  0  0  0  0
   30.3506    1.3321   29.0798 C   0  0  0  0  0  0
   31.2018    0.2489   28.5618 N   0  0  0  0  0  0
   32.5222    0.5590   28.2963 C   0  0  0  0  0  0
   32.8279    1.4655   27.2797 C   0  0  0  0  0  0
   34.1401    1.8598   27.0634 C   0  0  0  0  0  0
   35.1466    1.3340   27.8638 C   0  0  0  0  0  0
   34.8597    0.4026   28.8604 C   0  0  0  0  0  0
   33.5417    0.0113   29.0762 C   0  0  0  0  0  0
   24.8946   -0.1426   27.0639 O   0  0  0  0  0  0
   31.4263   -2.9692   17.3223 H   0  0  0  0  0  0
   33.0309   -2.3610   17.7120 H   0  0  0  0  0  0
   31.6034   -1.6013   18.4128 H   0  0  0  0  0  0
   31.0829   -3.7131   19.6539 H   0  0  0  0  0  0
   32.4584   -4.5047   18.9741 H   0  0  0  0  0  0
   33.2247   -1.9816   20.3031 H   0  0  0  0  0  0
   31.2847   -2.5113   21.7626 H   0  0  0  0  0  0
   31.9039   -4.1379   22.0040 H   0  0  0  0  0  0
   34.8603   -2.9537   23.8627 H   0  0  0  0  0  0
   34.0602   -4.4005   23.2360 H   0  0  0  0  0  0
   35.2814   -2.1423   21.5449 H   0  0  0  0  0  0
   35.9827   -3.7200   21.8223 H   0  0  0  0  0  0
   36.0548   -4.1335   19.5375 H   0  0  0  0  0  0
   34.6173   -4.0898   18.5476 H   0  0  0  0  0  0
   35.3028   -2.5816   19.1549 H   0  0  0  0  0  0
   33.3233   -3.7340   25.4913 H   0  0  0  0  0  0
   32.3014   -2.9414   27.5603 H   0  0  0  0  0  0
   30.1622    0.0596   25.3556 H   0  0  0  0  0  0
   31.2295   -0.7037   23.2929 H   0  0  0  0  0  0
   30.5970   -1.7151   28.6227 H   0  0  0  0  0  0
   28.5511   -2.8087   27.4340 H   0  0  0  0  0  0
   26.1333   -2.4912   27.0632 H   0  0  0  0  0  0
   26.6335    1.7328   27.4736 H   0  0  0  0  0  0
   28.6900    2.5574   28.5012 H   0  0  0  0  0  0
   29.7526    2.1666   27.1607 H   0  0  0  0  0  0
   29.8800    1.0508   30.0208 H   0  0  0  0  0  0
   30.9642    2.1970   29.3413 H   0  0  0  0  0  0
   32.0397    1.8641   26.6643 H   0  0  0  0  0  0
   34.3794    2.5627   26.2789 H   0  0  0  0  0  0
   36.1628    1.6451   27.6829 H   0  0  0  0  0  0
   35.6589   -0.0048   29.4637 H   0  0  0  0  0  0
   33.3110   -0.6942   29.8611 H   0  0  0  0  0  0
   24.6614    0.8038   27.0633 H   0  0  0  0  0  0
  1  2  1  0  0  0
  1 33  1  0  0  0
  1 34  1  0  0  0
  1 35  1  0  0  0
  2  3  1  0  0  0
  2 36  1  0  0  0
  2 37  1  0  0  0
  3  8  1  0  0  0
  3  4  1  0  0  0
  3 38  1  0  0  0
  4  5  1  0  0  0
  4 39  1  0  0  0
  4 40  1  0  0  0
  5  6  1  0  0  0
  5 10  1  0  0  0
  6  7  1  0  0  0
  6 41  1  0  0  0
  6 42  1  0  0  0
  7  8  1  0  0  0
  7 43  1  0  0  0
  7 44  1  0  0  0
  8  9  1  0  0  0
  9 45  1  0  0  0
  9 46  1  0  0  0
  9 47  1  0  0  0
 10 15  1  0  0  0
 10 11  2  0  0  0
 11 12  1  0  0  0
 11 48  1  0  0  0
 12 13  2  0  0  0
 12 49  1  0  0  0
 13 14  1  0  0  0
 13 16  1  0  0  0
 14 15  2  0  0  0
 14 50  1  0  0  0
 15 51  1  0  0  0
 16 25  1  0  0  0
 16 17  1  0  0  0
 16 52  1  0  0  0
 17 22  2  0  0  0
 17 18  1  0  0  0
 18 19  2  0  0  0
 18 53  1  0  0  0
 19 20  1  0  0  0
 19 54  1  0  0  0
 20 21  2  0  0  0
 20 32  1  0  0  0
 21 22  1  0  0  0
 21 55  1  0  0  0
 22 23  1  0  0  0
 23 24  1  0  0  0
 23 56  1  0  0  0
 23 57  1  0  0  0
 24 25  1  0  0  0
 24 58  1  0  0  0
 24 59  1  0  0  0
 25 26  1  0  0  0
 26 31  1  0  0  0
 26 27  2  0  0  0
 27 28  1  0  0  0
 27 60  1  0  0  0
 28 29  2  0  0  0
 28 61  1  0  0  0
 29 30  1  0  0  0
 29 62  1  0  0  0
 30 31  2  0  0  0
 30 63  1  0  0  0
 31 64  1  0  0  0
 32 65  1  0  0  0
M  END
> <s_m_entry_id>
17079

> <s_m_entry_name>
ligand_docking-pose.6

> <s_m_Source_Path>
/home/csk/Desktop/cluster/DUD-E-result/esr1

> <s_m_Source_File>
ligand_docking-pose.sdf

> <i_m_Source_File_Index>
6

> <i_lp_mmshare_version>
53161

> <i_f3d_flags>
0

> <r_lp_tautomer_probability>
0.999999999997365

> <s_lp_Force_Field>
OPLS_2005

> <r_lp_Energy>
56.796529

> <b_lp_Chiralities_Consistent>
1

> <s_lp_Variant>
323565-2

> <s_i_glide_gridfile>
glide-grid_1sj0

> <i_i_glide_lignum>
1183

> <i_i_glide_rotatable_bonds>
5

> <r_i_docking_score>
-11.0608506611943

> <r_i_glide_ligand_efficiency>
-0.345651583162322

> <r_i_glide_ligand_efficiency_sa>
-1.09737537218495

> <r_i_glide_ligand_efficiency_ln>
-2.47682597044305

> <r_i_glide_gscore>
-11.0608506611943

> <r_i_glide_lipo>
-5.85115748135381

> <r_i_glide_hbond>
-0.330948098794013

> <r_i_glide_metal>
0

> <r_i_glide_rewards>
-2.00003514475922

> <r_i_glide_evdw>
-50.4642562866211

> <r_i_glide_ecoul>
-4.54212331771851

> <r_i_glide_erotb>
0.325821375701561

> <r_i_glide_esite>
0

> <r_i_glide_emodel>
-59.5270878514089

> <r_i_glide_energy>
-55.0063796043396

> <r_i_glide_einternal>
7.10253858566284

> <i_i_glide_confnum>
4

> <i_i_glide_posenum>
115

> <r_i_glide_eff_state_penalty>
0

> <s_user_duplicate_titles>
323565

> <s_m_subgroup_title>
dock_pv

> <s_m_subgroupid>
dock_pv1

> <b_m_subgroup_collapsed>
0

$$$$
323347
                    3D
 Schrodinger Suite 2021-1.
 59 63  0  0  1  0            999 V2000
   34.6544   -3.9538   19.4064 C   0  0  0  0  0  0
   34.0122   -3.8791   20.7147 N   0  0  0  0  0  0
   32.7632   -3.1237   20.6274 C   0  0  0  0  0  0
   32.0586   -2.9934   22.0041 C   0  0  0  0  0  0
   32.9284   -2.6005   23.1322 N   0  0  0  0  0  0
   34.2068   -3.3194   23.0763 C   0  0  0  0  0  0
   34.8791   -3.2310   21.6906 C   0  0  0  0  0  0
   32.3577   -2.2056   24.3370 C   0  0  0  0  0  0
   31.4364   -1.1573   24.3376 C   0  0  0  0  0  0
   30.8537   -0.7237   25.5179 C   0  0  0  0  0  0
   31.1781   -1.3345   26.7321 C   0  0  0  0  0  0
   32.1070   -2.3791   26.7471 C   0  0  0  0  0  0
   32.6942   -2.8089   25.5579 C   0  0  0  0  0  0
   30.5151   -0.8417   28.0311 C   0  0  2  0  0  0
   29.0000   -0.6748   27.8028 C   0  0  0  0  0  0
   28.1775   -1.7784   27.5297 C   0  0  0  0  0  0
   26.8160   -1.6164   27.2762 C   0  0  0  0  0  0
   26.2704   -0.3382   27.2576 C   0  0  0  0  0  0
   27.0851    0.7663   27.4639 C   0  0  0  0  0  0
   28.4334    0.6117   27.7809 C   0  0  0  0  0  0
   29.2852    1.8046   28.1617 C   0  0  0  0  0  0
   30.3376    1.3739   29.1910 C   0  0  0  0  0  0
   31.2084    0.3128   28.6687 N   0  0  0  0  0  0
   32.5153    0.6526   28.3776 C   0  0  0  0  0  0
   32.7940    1.5070   27.3093 C   0  0  0  0  0  0
   34.0986    1.9024   27.0515 C   0  0  0  0  0  0
   35.1241    1.4351   27.8637 C   0  0  0  0  0  0
   34.8589    0.5640   28.9191 C   0  0  0  0  0  0
   33.5509    0.1699   29.1765 C   0  0  0  0  0  0
   24.9315   -0.1421   27.0638 O   0  0  0  0  0  0
   33.9979   -4.4461   18.6874 H   0  0  0  0  0  0
   35.5721   -4.5408   19.4631 H   0  0  0  0  0  0
   34.9063   -2.9653   19.0203 H   0  0  0  0  0  0
   32.9508   -2.1380   20.2023 H   0  0  0  0  0  0
   32.0888   -3.6352   19.9358 H   0  0  0  0  0  0
   31.6154   -3.9647   22.2312 H   0  0  0  0  0  0
   31.2588   -2.2645   21.8929 H   0  0  0  0  0  0
   34.0284   -4.3683   23.3060 H   0  0  0  0  0  0
   34.8790   -2.9430   23.8410 H   0  0  0  0  0  0
   35.8436   -3.7383   21.7122 H   0  0  0  0  0  0
   35.0705   -2.1862   21.4251 H   0  0  0  0  0  0
   31.1788   -0.6495   23.4245 H   0  0  0  0  0  0
   30.1505    0.0957   25.4844 H   0  0  0  0  0  0
   32.3848   -2.8534   27.6760 H   0  0  0  0  0  0
   33.4025   -3.6225   25.5922 H   0  0  0  0  0  0
   30.6200   -1.6613   28.7444 H   0  0  0  0  0  0
   28.5986   -2.7739   27.5159 H   0  0  0  0  0  0
   26.1895   -2.4773   27.0856 H   0  0  0  0  0  0
   26.6537    1.7553   27.4625 H   0  0  0  0  0  0
   28.6652    2.5838   28.6061 H   0  0  0  0  0  0
   29.7554    2.2332   27.2772 H   0  0  0  0  0  0
   29.8671    1.0592   30.1211 H   0  0  0  0  0  0
   30.9372    2.2419   29.4712 H   0  0  0  0  0  0
   31.9939    1.8586   26.6796 H   0  0  0  0  0  0
   34.3174    2.5590   26.2223 H   0  0  0  0  0  0
   36.1368    1.7440   27.6550 H   0  0  0  0  0  0
   35.6601    0.1977   29.5406 H   0  0  0  0  0  0
   33.3413   -0.4933   30.0035 H   0  0  0  0  0  0
   24.6895    0.8013   27.0572 H   0  0  0  0  0  0
  1  2  1  0  0  0
  1 31  1  0  0  0
  1 32  1  0  0  0
  1 33  1  0  0  0
  2  7  1  0  0  0
  2  3  1  0  0  0
  3  4  1  0  0  0
  3 34  1  0  0  0
  3 35  1  0  0  0
  4  5  1  0  0  0
  4 36  1  0  0  0
  4 37  1  0  0  0
  5  6  1  0  0  0
  5  8  1  0  0  0
  6  7  1  0  0  0
  6 38  1  0  0  0
  6 39  1  0  0  0
  7 40  1  0  0  0
  7 41  1  0  0  0
  8 13  1  0  0  0
  8  9  2  0  0  0
  9 10  1  0  0  0
  9 42  1  0  0  0
 10 11  2  0  0  0
 10 43  1  0  0  0
 11 12  1  0  0  0
 11 14  1  0  0  0
 12 13  2  0  0  0
 12 44  1  0  0  0
 13 45  1  0  0  0
 14 23  1  0  0  0
 14 15  1  0  0  0
 14 46  1  0  0  0
 15 20  2  0  0  0
 15 16  1  0  0  0
 16 17  2  0  0  0
 16 47  1  0  0  0
 17 18  1  0  0  0
 17 48  1  0  0  0
 18 19  2  0  0  0
 18 30  1  0  0  0
 19 20  1  0  0  0
 19 49  1  0  0  0
 20 21  1  0  0  0
 21 22  1  0  0  0
 21 50  1  0  0  0
 21 51  1  0  0  0
 22 23  1  0  0  0
 22 52  1  0  0  0
 22 53  1  0  0  0
 23 24  1  0  0  0
 24 29  1  0  0  0
 24 25  2  0  0  0
 25 26  1  0  0  0
 25 54  1  0  0  0
 26 27  2  0  0  0
 26 55  1  0  0  0
 27 28  1  0  0  0
 27 56  1  0  0  0
 28 29  2  0  0  0
 28 57  1  0  0  0
 29 58  1  0  0  0
 30 59  1  0  0  0
M  END
> <s_m_entry_id>
17080

> <s_m_entry_name>
ligand_docking-pose.7

> <s_m_Source_Path>
/home/csk/Desktop/cluster/DUD-E-result/esr1

> <s_m_Source_File>
ligand_docking-pose.sdf

> <i_m_Source_File_Index>
7

> <i_lp_mmshare_version>
53161

> <i_f3d_flags>
0

> <r_lp_tautomer_probability>
0.999999999997365

> <s_lp_Force_Field>
OPLS_2005

> <r_lp_Energy>
52.448782

> <b_lp_Chiralities_Consistent>
1

> <s_lp_Variant>
323347-1

> <s_i_glide_gridfile>
glide-grid_1sj0

> <i_i_glide_lignum>
1683

> <i_i_glide_rotatable_bonds>
4

> <r_i_docking_score>
-11.0484222714056

> <r_i_glide_ligand_efficiency>
-0.368280742380186

> <r_i_glide_ligand_efficiency_sa>
-1.14433389274316

> <r_i_glide_ligand_efficiency_ln>
-2.51032192226585

> <r_i_glide_gscore>
-11.0484222714056

> <r_i_glide_lipo>
-5.74148822182117

> <r_i_glide_hbond>
-0.326087957324354

> <r_i_glide_metal>
0

> <r_i_glide_rewards>
-2.2398778149401

> <r_i_glide_evdw>
-49.2493171691895

> <r_i_glide_ecoul>
-4.3118953704834

> <r_i_glide_erotb>
0.368281886712022

> <r_i_glide_esite>
0

> <r_i_glide_emodel>
-61.0190838465379

> <r_i_glide_energy>
-53.5612125396729

> <r_i_glide_einternal>
5.03372669219971

> <i_i_glide_confnum>
61

> <i_i_glide_posenum>
308

> <r_i_glide_eff_state_penalty>
0

> <s_user_duplicate_titles>
323347

> <s_m_subgroup_title>
dock_pv

> <s_m_subgroupid>
dock_pv1

> <b_m_subgroup_collapsed>
0

$$$$
323694
                    3D
 Schrodinger Suite 2021-1.
 70 75  0  0  1  0            999 V2000
   34.1540    2.1132   27.0985 C   0  0  0  0  0  0
   32.8286    1.7170   27.1861 C   0  0  0  0  0  0
   32.4582    0.6377   27.9862 C   0  0  0  0  0  0
   33.4190   -0.0543   28.7116 C   0  0  0  0  0  0
   34.7366    0.3743   28.6609 C   0  0  0  0  0  0
   35.1088    1.4539   27.8585 C   0  0  0  0  0  0
   35.6602   -0.2621   29.4161 O   0  0  0  0  0  0
   31.1260    0.3410   28.1235 N   0  0  0  0  0  0
   30.3224    1.2217   28.9633 C   0  0  0  0  0  0
   29.1714    1.7219   28.0959 C   0  0  0  0  0  0
   28.3294    0.5428   27.6579 C   0  0  0  0  0  0
   26.9643    0.7045   27.4644 C   0  0  0  0  0  0
   26.1456   -0.3768   27.1897 C   0  0  0  0  0  0
   26.7026   -1.6443   27.0628 C   0  0  0  0  0  0
   28.0830   -1.8133   27.1950 C   0  0  0  0  0  0
   28.9208   -0.7291   27.5022 C   0  0  0  0  0  0
   30.4544   -0.8947   27.6573 C   0  0  1  0  0  0
   31.0873   -1.4207   26.3550 C   0  0  0  0  0  0
   31.9613   -2.5158   26.3500 C   0  0  0  0  0  0
   32.5565   -2.9359   25.1549 C   0  0  0  0  0  0
   32.2717   -2.2702   23.9563 C   0  0  0  0  0  0
   31.4204   -1.1699   23.9786 C   0  0  0  0  0  0
   30.8267   -0.7502   25.1594 C   0  0  0  0  0  0
   32.7944   -2.6496   22.7309 N   0  0  0  0  0  0
   31.9141   -3.2962   21.7441 C   0  0  0  0  0  0
   32.4339   -3.1835   20.2925 C   0  0  0  0  0  0
   33.7969   -3.7126   20.1514 N   0  0  0  0  0  0
   34.6526   -2.9479   21.0667 C   0  0  0  0  0  0
   34.1765   -3.0957   22.5335 C   0  0  0  0  0  0
   34.2354   -3.6052   18.7489 C   0  0  0  0  0  0
   35.6925   -4.0273   18.4787 C   0  0  0  0  0  0
   35.7194   -4.3828   16.9948 C   0  0  0  0  0  0
   34.3871   -5.0923   16.7656 C   0  0  0  0  0  0
   33.3995   -4.4533   17.7575 C   0  0  0  0  0  0
   24.8029   -0.1506   27.0627 O   0  0  0  0  0  0
   34.4357    2.9354   26.4608 H   0  0  0  0  0  0
   32.0728    2.2578   26.6518 H   0  0  0  0  0  0
   33.1409   -0.8804   29.3490 H   0  0  0  0  0  0
   36.1330    1.7845   27.8056 H   0  0  0  0  0  0
   36.5249    0.1627   29.3239 H   0  0  0  0  0  0
   29.9837    0.7111   29.8621 H   0  0  0  0  0  0
   30.9083    2.0779   29.3046 H   0  0  0  0  0  0
   28.5761    2.4342   28.6658 H   0  0  0  0  0  0
   29.5512    2.2518   27.2213 H   0  0  0  0  0  0
   26.5297    1.6863   27.5822 H   0  0  0  0  0  0
   26.0725   -2.4947   26.8460 H   0  0  0  0  0  0
   28.5042   -2.8006   27.0690 H   0  0  0  0  0  0
   30.6179   -1.6567   28.4210 H   0  0  0  0  0  0
   32.1904   -3.0367   27.2660 H   0  0  0  0  0  0
   33.2293   -3.7822   25.1577 H   0  0  0  0  0  0
   31.2497   -0.6200   23.0676 H   0  0  0  0  0  0
   30.1778    0.1128   25.1489 H   0  0  0  0  0  0
   31.8286   -4.3563   21.9913 H   0  0  0  0  0  0
   30.9061   -2.8826   21.8011 H   0  0  0  0  0  0
   32.3882   -2.1430   19.9591 H   0  0  0  0  0  0
   31.7493   -3.7382   19.6492 H   0  0  0  0  0  0
   35.6776   -3.3099   21.0056 H   0  0  0  0  0  0
   34.6770   -1.8932   20.7824 H   0  0  0  0  0  0
   34.2315   -4.1535   22.7876 H   0  0  0  0  0  0
   34.8475   -2.5592   23.2044 H   0  0  0  0  0  0
   34.1493   -2.5531   18.4698 H   0  0  0  0  0  0
   35.9550   -4.9091   19.0656 H   0  0  0  0  0  0
   36.4060   -3.2314   18.6994 H   0  0  0  0  0  0
   36.5746   -5.0092   16.7366 H   0  0  0  0  0  0
   35.7753   -3.4765   16.3898 H   0  0  0  0  0  0
   34.4936   -6.1566   16.9851 H   0  0  0  0  0  0
   34.0490   -5.0058   15.7315 H   0  0  0  0  0  0
   32.6985   -3.8248   17.2047 H   0  0  0  0  0  0
   32.8535   -5.2563   18.2613 H   0  0  0  0  0  0
   24.5796    0.7992   27.0616 H   0  0  0  0  0  0
  1  6  1  0  0  0
  1  2  2  0  0  0
  1 36  1  0  0  0
  2  3  1  0  0  0
  2 37  1  0  0  0
  3  4  2  0  0  0
  3  8  1  0  0  0
  4  5  1  0  0  0
  4 38  1  0  0  0
  5  6  2  0  0  0
  5  7  1  0  0  0
  6 39  1  0  0  0
  7 40  1  0  0  0
  8 17  1  0  0  0
  8  9  1  0  0  0
  9 10  1  0  0  0
  9 41  1  0  0  0
  9 42  1  0  0  0
 10 11  1  0  0  0
 10 43  1  0  0  0
 10 44  1  0  0  0
 11 16  2  0  0  0
 11 12  1  0  0  0
 12 13  2  0  0  0
 12 45  1  0  0  0
 13 14  1  0  0  0
 13 35  1  0  0  0
 14 15  2  0  0  0
 14 46  1  0  0  0
 15 16  1  0  0  0
 15 47  1  0  0  0
 16 17  1  0  0  0
 17 18  1  0  0  0
 17 48  1  0  0  0
 18 23  1  0  0  0
 18 19  2  0  0  0
 19 20  1  0  0  0
 19 49  1  0  0  0
 20 21  2  0  0  0
 20 50  1  0  0  0
 21 22  1  0  0  0
 21 24  1  0  0  0
 22 23  2  0  0  0
 22 51  1  0  0  0
 23 52  1  0  0  0
 24 29  1  0  0  0
 24 25  1  0  0  0
 25 26  1  0  0  0
 25 53  1  0  0  0
 25 54  1  0  0  0
 26 27  1  0  0  0
 26 55  1  0  0  0
 26 56  1  0  0  0
 27 28  1  0  0  0
 27 30  1  0  0  0
 28 29  1  0  0  0
 28 57  1  0  0  0
 28 58  1  0  0  0
 29 59  1  0  0  0
 29 60  1  0  0  0
 30 34  1  0  0  0
 30 31  1  0  0  0
 30 61  1  0  0  0
 31 32  1  0  0  0
 31 62  1  0  0  0
 31 63  1  0  0  0
 32 33  1  0  0  0
 32 64  1  0  0  0
 32 65  1  0  0  0
 33 34  1  0  0  0
 33 66  1  0  0  0
 33 67  1  0  0  0
 34 68  1  0  0  0
 34 69  1  0  0  0
 35 70  1  0  0  0
M  END
> <s_m_entry_id>
17081

> <s_m_entry_name>
ligand_docking-pose.8

> <s_m_Source_Path>
/home/csk/Desktop/cluster/DUD-E-result/esr1

> <s_m_Source_File>
ligand_docking-pose.sdf

> <i_m_Source_File_Index>
8

> <i_lp_mmshare_version>
53161

> <i_f3d_flags>
0

> <r_lp_tautomer_probability>
0.99999999999473

> <s_lp_Force_Field>
OPLS_2005

> <r_lp_Energy>
70.841316

> <b_lp_Chiralities_Consistent>
1

> <s_lp_Variant>
323694-1

> <s_i_glide_gridfile>
glide-grid_1sj0

> <i_i_glide_lignum>
678

> <i_i_glide_rotatable_bonds>
6

> <r_i_docking_score>
-11.0138823698144

> <r_i_glide_ligand_efficiency>
-0.314682353423269

> <r_i_glide_ligand_efficiency_sa>
-1.02934684347382

> <r_i_glide_ligand_efficiency_ln>
-2.41779162012339

> <r_i_glide_gscore>
-11.0138823698144

> <r_i_glide_lipo>
-5.53950655322476

> <r_i_glide_hbond>
-0.630498511066305

> <r_i_glide_metal>
0

> <r_i_glide_rewards>
-1.4965497778148

> <r_i_glide_evdw>
-50.6090812683105

> <r_i_glide_ecoul>
-7.8881664276123

> <r_i_glide_erotb>
0.366351499848833

> <r_i_glide_esite>
0

> <r_i_glide_emodel>
-53.8870915318697

> <r_i_glide_energy>
-58.4972476959229

> <r_i_glide_einternal>
10.470796585083

> <i_i_glide_confnum>
1

> <i_i_glide_posenum>
12

> <r_i_glide_eff_state_penalty>
0

> <s_user_duplicate_titles>
323694

> <s_m_subgroup_title>
dock_pv

> <s_m_subgroupid>
dock_pv1

> <b_m_subgroup_collapsed>
0

$$$$
323515
                    3D
 Schrodinger Suite 2021-1.
 73 78  0  0  1  0            999 V2000
   34.1266    2.1683   27.1720 C   0  0  0  0  0  0
   32.8038    1.7590   27.2369 C   0  0  0  0  0  0
   32.4150    0.6721   28.0140 C   0  0  0  0  0  0
   33.3815   -0.0639   28.6951 C   0  0  0  0  0  0
   34.7143    0.3222   28.6098 C   0  0  0  0  0  0
   35.0870    1.4453   27.8685 C   0  0  0  0  0  0
   35.6600   -0.4137   29.2467 O   0  0  0  0  0  0
   31.0710    0.3741   28.0812 N   0  0  0  0  0  0
   30.2152    1.2093   28.9166 C   0  0  0  0  0  0
   28.9328    1.4998   28.1185 C   0  0  0  0  0  0
   28.2249    0.2077   27.7604 C   0  0  0  0  0  0
   26.8601    0.1986   27.4641 C   0  0  0  0  0  0
   26.2282   -0.9742   27.0763 C   0  0  0  0  0  0
   26.9371   -2.1711   27.0666 C   0  0  0  0  0  0
   28.2931   -2.1763   27.3759 C   0  0  0  0  0  0
   28.9681   -0.9877   27.6764 C   0  0  0  0  0  0
   30.5074   -0.9626   27.7976 C   0  0  1  0  0  0
   31.1097   -1.4997   26.4957 C   0  0  0  0  0  0
   30.7290   -0.9098   25.2887 C   0  0  0  0  0  0
   31.2824   -1.3421   24.0975 C   0  0  0  0  0  0
   32.2200   -2.3704   24.0824 C   0  0  0  0  0  0
   32.6209   -2.9461   25.2967 C   0  0  0  0  0  0
   32.0623   -2.5195   26.5008 C   0  0  0  0  0  0
   32.7526   -2.7551   22.8608 N   0  0  0  0  0  0
   31.8892   -3.2433   21.7677 C   0  0  0  0  0  0
   32.5470   -3.1913   20.3633 C   0  0  0  0  0  0
   33.8547   -3.8549   20.3575 N   0  0  0  0  0  0
   34.7065   -3.2176   21.3586 C   0  0  0  0  0  0
   34.0773   -3.3619   22.7585 C   0  0  0  0  0  0
   34.5070   -3.9299   19.0407 C   0  0  0  0  0  0
   33.8053   -4.9022   18.0608 C   0  0  0  0  0  0
   34.6157   -5.1150   16.7647 C   0  0  0  0  0  0
   34.9614   -3.7856   16.0670 C   0  0  0  0  0  0
   35.6179   -2.7765   17.0274 C   0  0  0  0  0  0
   34.7993   -2.5834   18.3201 C   0  0  0  0  0  0
   24.9268   -0.9423   26.6638 O   0  0  0  0  0  0
   34.4017    3.0305   26.5807 H   0  0  0  0  0  0
   32.0541    2.2578   26.6640 H   0  0  0  0  0  0
   33.1038   -0.9221   29.2886 H   0  0  0  0  0  0
   36.1166    1.7554   27.8053 H   0  0  0  0  0  0
   36.5288   -0.0042   29.1373 H   0  0  0  0  0  0
   30.7068    2.1590   29.1340 H   0  0  0  0  0  0
   30.0518    0.7165   29.8751 H   0  0  0  0  0  0
   29.1928    2.0322   27.2019 H   0  0  0  0  0  0
   28.2705    2.1657   28.6666 H   0  0  0  0  0  0
   26.2999    1.1214   27.4622 H   0  0  0  0  0  0
   26.4614   -3.0950   26.7734 H   0  0  0  0  0  0
   28.8429   -3.1056   27.3060 H   0  0  0  0  0  0
   30.7922   -1.6363   28.6074 H   0  0  0  0  0  0
   30.0142   -0.1002   25.2770 H   0  0  0  0  0  0
   31.0099   -0.8482   23.1835 H   0  0  0  0  0  0
   33.3579   -3.7347   25.3130 H   0  0  0  0  0  0
   32.3843   -2.9603   27.4329 H   0  0  0  0  0  0
   31.6388   -4.2871   21.9721 H   0  0  0  0  0  0
   30.9490   -2.6934   21.7449 H   0  0  0  0  0  0
   32.6391   -2.1535   20.0384 H   0  0  0  0  0  0
   31.8806   -3.6873   19.6575 H   0  0  0  0  0  0
   34.8593   -2.1643   21.1269 H   0  0  0  0  0  0
   35.6898   -3.6911   21.3623 H   0  0  0  0  0  0
   34.7473   -2.9190   23.4943 H   0  0  0  0  0  0
   33.9957   -4.4246   22.9925 H   0  0  0  0  0  0
   35.4841   -4.3852   19.2181 H   0  0  0  0  0  0
   33.6546   -5.8680   18.5474 H   0  0  0  0  0  0
   32.8088   -4.5375   17.8110 H   0  0  0  0  0  0
   35.5378   -5.6479   17.0031 H   0  0  0  0  0  0
   34.0604   -5.7604   16.0835 H   0  0  0  0  0  0
   35.6187   -3.9733   15.2176 H   0  0  0  0  0  0
   34.0551   -3.3450   15.6533 H   0  0  0  0  0  0
   36.6179   -3.1248   17.2873 H   0  0  0  0  0  0
   35.7534   -1.8196   16.5239 H   0  0  0  0  0  0
   33.8643   -2.0729   18.0892 H   0  0  0  0  0  0
   35.3542   -1.9126   18.9743 H   0  0  0  0  0  0
   24.6964   -1.7976   26.2584 H   0  0  0  0  0  0
  1  6  1  0  0  0
  1  2  2  0  0  0
  1 37  1  0  0  0
  2  3  1  0  0  0
  2 38  1  0  0  0
  3  4  2  0  0  0
  3  8  1  0  0  0
  4  5  1  0  0  0
  4 39  1  0  0  0
  5  6  2  0  0  0
  5  7  1  0  0  0
  6 40  1  0  0  0
  7 41  1  0  0  0
  8 17  1  0  0  0
  8  9  1  0  0  0
  9 10  1  0  0  0
  9 42  1  0  0  0
  9 43  1  0  0  0
 10 11  1  0  0  0
 10 44  1  0  0  0
 10 45  1  0  0  0
 11 16  2  0  0  0
 11 12  1  0  0  0
 12 13  2  0  0  0
 12 46  1  0  0  0
 13 14  1  0  0  0
 13 36  1  0  0  0
 14 15  2  0  0  0
 14 47  1  0  0  0
 15 16  1  0  0  0
 15 48  1  0  0  0
 16 17  1  0  0  0
 17 18  1  0  0  0
 17 49  1  0  0  0
 18 23  1  0  0  0
 18 19  2  0  0  0
 19 20  1  0  0  0
 19 50  1  0  0  0
 20 21  2  0  0  0
 20 51  1  0  0  0
 21 22  1  0  0  0
 21 24  1  0  0  0
 22 23  2  0  0  0
 22 52  1  0  0  0
 23 53  1  0  0  0
 24 29  1  0  0  0
 24 25  1  0  0  0
 25 26  1  0  0  0
 25 54  1  0  0  0
 25 55  1  0  0  0
 26 27  1  0  0  0
 26 56  1  0  0  0
 26 57  1  0  0  0
 27 28  1  0  0  0
 27 30  1  0  0  0
 28 29  1  0  0  0
 28 58  1  0  0  0
 28 59  1  0  0  0
 29 60  1  0  0  0
 29 61  1  0  0  0
 30 35  1  0  0  0
 30 31  1  0  0  0
 30 62  1  0  0  0
 31 32  1  0  0  0
 31 63  1  0  0  0
 31 64  1  0  0  0
 32 33  1  0  0  0
 32 65  1  0  0  0
 32 66  1  0  0  0
 33 34  1  0  0  0
 33 67  1  0  0  0
 33 68  1  0  0  0
 34 35  1  0  0  0
 34 69  1  0  0  0
 34 70  1  0  0  0
 35 71  1  0  0  0
 35 72  1  0  0  0
 36 73  1  0  0  0
M  END
> <s_m_entry_id>
17082

> <s_m_entry_name>
ligand_docking-pose.9

> <s_m_Source_Path>
/home/csk/Desktop/cluster/DUD-E-result/esr1

> <s_m_Source_File>
ligand_docking-pose.sdf

> <i_m_Source_File_Index>
9

> <i_lp_mmshare_version>
53161

> <i_f3d_flags>
0

> <r_lp_tautomer_probability>
0.99999999999473

> <s_lp_Force_Field>
OPLS_2005

> <r_lp_Energy>
66.264991

> <b_lp_Chiralities_Consistent>
1

> <s_lp_Variant>
323515-1

> <s_i_glide_gridfile>
glide-grid_1sj0

> <i_i_glide_lignum>
680

> <i_i_glide_rotatable_bonds>
6

> <r_i_docking_score>
-11.0046630294456

> <r_i_glide_ligand_efficiency>
-0.305685084151267

> <r_i_glide_ligand_efficiency_sa>
-1.00934990773404

> <r_i_glide_ligand_efficiency_ln>
-2.40092016138857

> <r_i_glide_gscore>
-11.0046630294456

> <r_i_glide_lipo>
-5.64288119815371

> <r_i_glide_hbond>
-0.547930759266395

> <r_i_glide_metal>
0

> <r_i_glide_rewards>
-1.43974130378674

> <r_i_glide_evdw>
-59.5739898681641

> <r_i_glide_ecoul>
-4.25623035430908

> <r_i_glide_erotb>
0.243024278315795

> <r_i_glide_esite>
0

> <r_i_glide_emodel>
-68.484235047667

> <r_i_glide_energy>
-63.8302202224731

> <r_i_glide_einternal>
8.85028648376465

> <i_i_glide_confnum>
22

> <i_i_glide_posenum>
2

> <r_i_glide_eff_state_penalty>
0

> <s_user_duplicate_titles>
323515

> <s_m_subgroup_title>
dock_pv

> <s_m_subgroupid>
dock_pv1

> <b_m_subgroup_collapsed>
0

$$$$
301864
                    3D
 Schrodinger Suite 2021-1.
 64 68  0  0  1  0            999 V2000
   29.0944    1.7253   28.9170 C   0  0  0  0  0  0
   29.4495    0.4880   28.0672 C   0  0  2  0  0  0
   28.2977   -0.4887   27.8639 C   0  0  0  0  0  0
   27.0305   -0.0501   27.4631 C   0  0  0  0  0  0
   25.9932   -0.9565   27.2731 C   0  0  0  0  0  0
   26.1895   -2.3010   27.5490 C   0  0  0  0  0  0
   27.4508   -2.7795   27.8630 C   0  0  0  0  0  0
   28.4996   -1.8805   27.9978 C   0  0  0  0  0  0
   29.6900   -2.4573   28.3683 O   0  0  0  0  0  0
   30.8628   -1.7069   28.0814 C   0  0  2  0  0  0
   30.7098   -0.2531   28.6036 C   0  0  1  0  0  0
   32.0211    0.5029   28.4693 C   0  0  0  0  0  0
   32.2284    1.3622   27.3884 C   0  0  0  0  0  0
   33.4543    1.9591   27.1972 C   0  0  0  0  0  0
   34.4700    1.6794   28.0906 C   0  0  0  0  0  0
   34.2941    0.8369   29.1812 C   0  0  0  0  0  0
   33.0521    0.2502   29.3784 C   0  0  0  0  0  0
   35.6606    2.2580   27.8639 O   0  0  0  0  0  0
   31.3755   -1.9057   26.6410 C   0  0  0  0  0  0
   32.4520   -2.7706   26.4131 C   0  0  0  0  0  0
   32.9580   -2.9481   25.1288 C   0  0  0  0  0  0
   32.4127   -2.2357   24.0494 C   0  0  0  0  0  0
   31.3425   -1.3753   24.2808 C   0  0  0  0  0  0
   30.8071   -1.2339   25.5542 C   0  0  0  0  0  0
   32.8582   -2.3053   22.7435 O   0  0  0  0  0  0
   33.7005   -3.3747   22.3135 C   0  0  0  0  0  0
   34.4511   -2.9957   21.0185 C   0  0  0  0  0  0
   33.5806   -2.5439   19.9316 N   0  0  0  0  0  0
   32.6587   -3.5546   19.4275 C   0  0  0  0  0  0
   32.1487   -2.9954   18.0973 C   0  0  0  0  0  0
   33.2492   -2.0265   17.6472 C   0  0  0  0  0  0
   34.3093   -2.1326   18.7426 C   0  0  0  0  0  0
   24.7891   -0.5386   26.7864 O   0  0  0  0  0  0
   29.6183    0.8713   27.0666 H   0  0  0  0  0  0
   31.6278   -2.1474   28.7205 H   0  0  0  0  0  0
   30.5598   -0.3511   29.6796 H   0  0  0  0  0  0
   28.2317    2.2581   28.5228 H   0  0  0  0  0  0
   28.8739    1.4578   29.9469 H   0  0  0  0  0  0
   29.9215    2.4361   28.9404 H   0  0  0  0  0  0
   26.8525    0.9963   27.2707 H   0  0  0  0  0  0
   25.3688   -2.9937   27.4641 H   0  0  0  0  0  0
   27.6081   -3.8367   28.0153 H   0  0  0  0  0  0
   31.4662    1.5629   26.6643 H   0  0  0  0  0  0
   33.6267    2.6117   26.3533 H   0  0  0  0  0  0
   35.1077    0.6343   29.8626 H   0  0  0  0  0  0
   32.9061   -0.4217   30.2125 H   0  0  0  0  0  0
   36.3796    1.8807   28.3855 H   0  0  0  0  0  0
   32.9035   -3.3111   27.2322 H   0  0  0  0  0  0
   33.7835   -3.6298   25.0065 H   0  0  0  0  0  0
   30.9027   -0.8276   23.4639 H   0  0  0  0  0  0
   29.9439   -0.6035   25.6614 H   0  0  0  0  0  0
   33.0990   -4.2736   22.1673 H   0  0  0  0  0  0
   34.4610   -3.6173   23.0488 H   0  0  0  0  0  0
   35.0473   -3.8479   20.6867 H   0  0  0  0  0  0
   35.1553   -2.1944   21.2488 H   0  0  0  0  0  0
   31.8542   -3.6980   20.1499 H   0  0  0  0  0  0
   33.1269   -4.5341   19.3213 H   0  0  0  0  0  0
   31.1945   -2.4821   18.2326 H   0  0  0  0  0  0
   31.9903   -3.7948   17.3703 H   0  0  0  0  0  0
   33.6612   -2.2988   16.6740 H   0  0  0  0  0  0
   32.8733   -1.0046   17.5687 H   0  0  0  0  0  0
   35.1122   -2.8271   18.4864 H   0  0  0  0  0  0
   34.8044   -1.1823   18.9450 H   0  0  0  0  0  0
   24.7372    0.4167   26.6647 H   0  0  0  0  0  0
  1  2  1  0  0  0
  1 37  1  0  0  0
  1 38  1  0  0  0
  1 39  1  0  0  0
  2 34  1  0  0  0
  2 11  1  0  0  0
  2  3  1  0  0  0
  3  8  2  0  0  0
  3  4  1  0  0  0
  4  5  2  0  0  0
  4 40  1  0  0  0
  5  6  1  0  0  0
  5 33  1  0  0  0
  6  7  2  0  0  0
  6 41  1  0  0  0
  7  8  1  0  0  0
  7 42  1  0  0  0
  8  9  1  0  0  0
  9 10  1  0  0  0
 10 35  1  0  0  0
 10 11  1  0  0  0
 10 19  1  0  0  0
 11 36  1  0  0  0
 11 12  1  0  0  0
 12 17  1  0  0  0
 12 13  2  0  0  0
 13 14  1  0  0  0
 13 43  1  0  0  0
 14 15  2  0  0  0
 14 44  1  0  0  0
 15 16  1  0  0  0
 15 18  1  0  0  0
 16 17  2  0  0  0
 16 45  1  0  0  0
 17 46  1  0  0  0
 18 47  1  0  0  0
 19 24  1  0  0  0
 19 20  2  0  0  0
 20 21  1  0  0  0
 20 48  1  0  0  0
 21 22  2  0  0  0
 21 49  1  0  0  0
 22 23  1  0  0  0
 22 25  1  0  0  0
 23 24  2  0  0  0
 23 50  1  0  0  0
 24 51  1  0  0  0
 25 26  1  0  0  0
 26 27  1  0  0  0
 26 52  1  0  0  0
 26 53  1  0  0  0
 27 28  1  0  0  0
 27 54  1  0  0  0
 27 55  1  0  0  0
 28 32  1  0  0  0
 28 29  1  0  0  0
 29 30  1  0  0  0
 29 56  1  0  0  0
 29 57  1  0  0  0
 30 31  1  0  0  0
 30 58  1  0  0  0
 30 59  1  0  0  0
 31 32  1  0  0  0
 31 60  1  0  0  0
 31 61  1  0  0  0
 32 62  1  0  0  0
 32 63  1  0  0  0
 33 64  1  0  0  0
M  END
> <s_m_entry_id>
17083

> <s_m_entry_name>
ligand_docking-pose.10

> <s_m_Source_Path>
/home/csk/Desktop/cluster/DUD-E-result/esr1

> <s_m_Source_File>
ligand_docking-pose.sdf

> <i_m_Source_File_Index>
10

> <i_lp_mmshare_version>
53161

> <i_f3d_flags>
0

> <r_lp_tautomer_probability>
0.999999999997365

> <s_lp_Force_Field>
OPLS_2005

> <r_lp_Energy>
49.778456

> <b_lp_Chiralities_Consistent>
1

> <s_lp_Variant>
301864-1

> <s_i_glide_gridfile>
glide-grid_1sj0

> <i_i_glide_lignum>
1556

> <i_i_glide_rotatable_bonds>
8

> <r_i_docking_score>
-10.947113258709

> <r_i_glide_ligand_efficiency>
-0.331730704809362

> <r_i_glide_ligand_efficiency_sa>
-1.0640376227496

> <r_i_glide_ligand_efficiency_ln>
-2.43458130761793

> <r_i_glide_gscore>
-10.947113258709

> <r_i_glide_lipo>
-5.81358085936941

> <r_i_glide_hbond>
-0.679728081984101

> <r_i_glide_metal>
0

> <r_i_glide_rewards>
-1.25853555963834

> <r_i_glide_evdw>
-52.0977668762207

> <r_i_glide_ecoul>
-7.29567193984985

> <r_i_glide_erotb>
0.503970377071407

> <r_i_glide_esite>
0

> <r_i_glide_emodel>
-90.5539442838392

> <r_i_glide_energy>
-59.3934388160706

> <r_i_glide_einternal>
6.91708326339722

> <i_i_glide_confnum>
1

> <i_i_glide_posenum>
33

> <r_i_glide_eff_state_penalty>
0

> <s_user_duplicate_titles>
301864

> <s_m_subgroup_title>
dock_pv

> <s_m_subgroupid>
dock_pv1

> <b_m_subgroup_collapsed>
0

$$$$
301961
                    3D
 Schrodinger Suite 2021-1.
 67 71  0  0  1  0            999 V2000
   31.6467   -4.1585   17.1634 C   0  0  0  0  0  0
   32.0853   -3.0508   18.1360 C   0  0  2  0  0  0
   33.2566   -2.1991   17.6192 C   0  0  0  0  0  0
   34.3140   -2.2902   18.7227 C   0  0  0  0  0  0
   33.5808   -2.6300   19.9339 N   0  0  1  0  0  0
   32.6032   -3.6052   19.4678 C   0  0  0  0  0  0
   34.4500   -3.1022   21.0127 C   0  0  0  0  0  0
   33.7001   -3.4558   22.3134 C   0  0  0  0  0  0
   32.8787   -2.3661   22.7398 O   0  0  0  0  0  0
   32.4479   -2.2856   24.0485 C   0  0  0  0  0  0
   31.3574   -1.4515   24.2832 C   0  0  0  0  0  0
   30.8263   -1.3200   25.5579 C   0  0  0  0  0  0
   31.4189   -1.9718   26.6428 C   0  0  0  0  0  0
   32.5205   -2.8015   26.4120 C   0  0  0  0  0  0
   33.0281   -2.9648   25.1285 C   0  0  0  0  0  0
   30.9094   -1.7873   28.0835 C   0  0  1  0  0  0
   30.7674   -0.3368   28.6111 C   0  0  2  0  0  0
   29.5154    0.4165   28.0825 C   0  0  1  0  0  0
   28.3573   -0.5505   27.8771 C   0  0  0  0  0  0
   27.1011   -0.0962   27.4653 C   0  0  0  0  0  0
   26.0515   -0.9875   27.2902 C   0  0  0  0  0  0
   26.2315   -2.3381   27.5511 C   0  0  0  0  0  0
   27.4877   -2.8330   27.8619 C   0  0  0  0  0  0
   28.5457   -1.9462   27.9997 C   0  0  0  0  0  0
   29.7341   -2.5412   28.3547 O   0  0  0  0  0  0
   24.8480   -0.5418   26.8354 O   0  0  0  0  0  0
   29.2025    1.6709   28.9326 C   0  0  0  0  0  0
   32.0748    0.4192   28.4618 C   0  0  0  0  0  0
   32.2637    1.2866   27.3837 C   0  0  0  0  0  0
   33.4747    1.9100   27.1947 C   0  0  0  0  0  0
   34.4937    1.6456   28.0856 C   0  0  0  0  0  0
   34.3416    0.7906   29.1695 C   0  0  0  0  0  0
   33.1136    0.1767   29.3635 C   0  0  0  0  0  0
   35.6639    2.2580   27.8640 O   0  0  0  0  0  0
   31.2253   -2.4086   18.3334 H   0  0  0  0  0  0
   31.6803   -2.2269   28.7195 H   0  0  0  0  0  0
   30.6292   -0.4334   29.6886 H   0  0  0  0  0  0
   29.6721    0.7859   27.0755 H   0  0  0  0  0  0
   32.4772   -4.8194   16.9100 H   0  0  0  0  0  0
   31.2570   -3.7450   16.2355 H   0  0  0  0  0  0
   30.8593   -4.7755   17.6000 H   0  0  0  0  0  0
   33.6589   -2.5605   16.6754 H   0  0  0  0  0  0
   32.9515   -1.1651   17.4636 H   0  0  0  0  0  0
   35.0940   -3.0193   18.4923 H   0  0  0  0  0  0
   34.8367   -1.3464   18.8805 H   0  0  0  0  0  0
   31.8062   -3.7411   20.2004 H   0  0  0  0  0  0
   33.0486   -4.5967   19.3680 H   0  0  0  0  0  0
   35.0172   -3.9734   20.6788 H   0  0  0  0  0  0
   35.1777   -2.3213   21.2350 H   0  0  0  0  0  0
   33.0813   -4.3438   22.1812 H   0  0  0  0  0  0
   34.4598   -3.7109   23.0422 H   0  0  0  0  0  0
   30.8946   -0.9282   23.4639 H   0  0  0  0  0  0
   29.9451   -0.7148   25.6731 H   0  0  0  0  0  0
   32.9924   -3.3240   27.2312 H   0  0  0  0  0  0
   33.8750   -3.6196   25.0085 H   0  0  0  0  0  0
   26.9357    0.9546   27.2813 H   0  0  0  0  0  0
   25.4036   -3.0232   27.4645 H   0  0  0  0  0  0
   27.6368   -3.8924   28.0072 H   0  0  0  0  0  0
   24.8375    0.4091   26.6631 H   0  0  0  0  0  0
   28.2785    2.1651   28.6343 H   0  0  0  0  0  0
   29.1367    1.4416   29.9948 H   0  0  0  0  0  0
   29.9951    2.4131   28.8254 H   0  0  0  0  0  0
   31.4966    1.4885   26.6639 H   0  0  0  0  0  0
   33.6311    2.5771   26.3598 H   0  0  0  0  0  0
   35.1594    0.6021   29.8478 H   0  0  0  0  0  0
   32.9834   -0.5053   30.1928 H   0  0  0  0  0  0
   36.3938    1.8826   28.3761 H   0  0  0  0  0  0
  1  2  1  0  0  0
  1 39  1  0  0  0
  1 40  1  0  0  0
  1 41  1  0  0  0
  2 35  1  0  0  0
  2  6  1  0  0  0
  2  3  1  0  0  0
  3  4  1  0  0  0
  3 42  1  0  0  0
  3 43  1  0  0  0
  4  5  1  0  0  0
  4 44  1  0  0  0
  4 45  1  0  0  0
  5  6  1  0  0  0
  5  7  1  0  0  0
  6 46  1  0  0  0
  6 47  1  0  0  0
  7  8  1  0  0  0
  7 48  1  0  0  0
  7 49  1  0  0  0
  8  9  1  0  0  0
  8 50  1  0  0  0
  8 51  1  0  0  0
  9 10  1  0  0  0
 10 15  1  0  0  0
 10 11  2  0  0  0
 11 12  1  0  0  0
 11 52  1  0  0  0
 12 13  2  0  0  0
 12 53  1  0  0  0
 13 14  1  0  0  0
 13 16  1  0  0  0
 14 15  2  0  0  0
 14 54  1  0  0  0
 15 55  1  0  0  0
 16 36  1  0  0  0
 16 25  1  0  0  0
 16 17  1  0  0  0
 17 37  1  0  0  0
 17 18  1  0  0  0
 17 28  1  0  0  0
 18 38  1  0  0  0
 18 19  1  0  0  0
 18 27  1  0  0  0
 19 24  2  0  0  0
 19 20  1  0  0  0
 20 21  2  0  0  0
 20 56  1  0  0  0
 21 22  1  0  0  0
 21 26  1  0  0  0
 22 23  2  0  0  0
 22 57  1  0  0  0
 23 24  1  0  0  0
 23 58  1  0  0  0
 24 25  1  0  0  0
 26 59  1  0  0  0
 27 60  1  0  0  0
 27 61  1  0  0  0
 27 62  1  0  0  0
 28 33  1  0  0  0
 28 29  2  0  0  0
 29 30  1  0  0  0
 29 63  1  0  0  0
 30 31  2  0  0  0
 30 64  1  0  0  0
 31 32  1  0  0  0
 31 34  1  0  0  0
 32 33  2  0  0  0
 32 65  1  0  0  0
 33 66  1  0  0  0
 34 67  1  0  0  0
M  END
> <s_m_entry_id>
17084

> <s_m_entry_name>
ligand_docking-pose.11

> <s_m_Source_Path>
/home/csk/Desktop/cluster/DUD-E-result/esr1

> <s_m_Source_File>
ligand_docking-pose.sdf

> <i_m_Source_File_Index>
11

> <i_lp_mmshare_version>
53161

> <i_f3d_flags>
0

> <r_lp_tautomer_probability>
0.999999999997365

> <s_lp_Force_Field>
OPLS_2005

> <r_lp_Energy>
50.496182

> <b_lp_Chiralities_Consistent>
1

> <s_lp_Variant>
301961-1

> <s_i_glide_gridfile>
glide-grid_1sj0

> <i_i_glide_lignum>
1572

> <i_i_glide_rotatable_bonds>
8

> <r_i_docking_score>
-10.8695058215385

> <r_i_glide_ligand_efficiency>
-0.319691347692308

> <r_i_glide_ligand_efficiency_sa>
-1.03567586153292

> <r_i_glide_ligand_efficiency_ln>
-2.40137871528919

> <r_i_glide_gscore>
-10.8695058215385

> <r_i_glide_lipo>
-5.81038485430884

> <r_i_glide_hbond>
-0.671263184729446

> <r_i_glide_metal>
0

> <r_i_glide_rewards>
-1.15277634148916

> <r_i_glide_evdw>
-54.3247566223145

> <r_i_glide_ecoul>
-7.269690990448

> <r_i_glide_erotb>
0.571610038671894

> <r_i_glide_esite>
0

> <r_i_glide_emodel>
-89.6257659618956

> <r_i_glide_energy>
-61.5944476127625

> <r_i_glide_einternal>
10.7462339401245

> <i_i_glide_confnum>
13

> <i_i_glide_posenum>
33

> <r_i_glide_eff_state_penalty>
0

> <s_user_duplicate_titles>
301961

> <s_m_subgroup_title>
dock_pv

> <s_m_subgroupid>
dock_pv1

> <b_m_subgroup_collapsed>
0

$$$$
301917
                    3D
 Schrodinger Suite 2021-1.
 70 74  0  0  1  0            999 V2000
   29.9858    2.5610   28.6605 C   0  0  0  0  0  0
   29.1551    1.3315   28.8803 C   0  0  0  0  0  0
   29.5566    0.1694   27.9444 C   0  0  2  0  0  0
   28.3780   -0.7548   27.7046 C   0  0  0  0  0  0
   27.1409   -0.2460   27.2961 C   0  0  0  0  0  0
   26.0326   -1.0664   27.2002 C   0  0  0  0  0  0
   26.1501   -2.4145   27.5135 C   0  0  0  0  0  0
   27.3896   -2.9740   27.7944 C   0  0  0  0  0  0
   28.5023   -2.1448   27.8627 C   0  0  0  0  0  0
   29.6746   -2.7683   28.2066 O   0  0  0  0  0  0
   30.8917   -2.0616   27.9210 C   0  0  2  0  0  0
   30.8146   -0.6053   28.4421 C   0  0  1  0  0  0
   32.1410    0.1440   28.2679 C   0  0  0  0  0  0
   33.1128    0.0695   29.2719 C   0  0  0  0  0  0
   34.3125    0.7578   29.1262 C   0  0  0  0  0  0
   34.5179    1.5379   27.9938 C   0  0  0  0  0  0
   33.5749    1.6065   26.9819 C   0  0  0  0  0  0
   32.3972    0.8885   27.1078 C   0  0  0  0  0  0
   35.6600    2.2574   27.8639 O   0  0  0  0  0  0
   31.4211   -2.2411   26.4888 C   0  0  0  0  0  0
   30.8610   -1.5531   25.4115 C   0  0  0  0  0  0
   31.4180   -1.6577   24.1459 C   0  0  0  0  0  0
   32.5068   -2.4893   23.9140 C   0  0  0  0  0  0
   33.0742   -3.1884   24.9881 C   0  0  0  0  0  0
   32.5340   -3.0607   26.2654 C   0  0  0  0  0  0
   32.9431   -2.5636   22.6088 O   0  0  0  0  0  0
   33.8689   -3.5824   22.2442 C   0  0  0  0  0  0
   33.9078   -3.7289   20.7093 C   0  0  0  0  0  0
   34.4039   -2.5370   20.0051 N   0  0  0  0  0  0
   35.8316   -2.2831   20.2593 C   0  0  0  0  0  0
   36.3401   -1.0327   19.5158 C   0  0  0  0  0  0
   36.0492   -1.0932   18.0095 C   0  0  0  0  0  0
   34.5627   -1.3998   17.7783 C   0  0  0  0  0  0
   34.0927   -2.6375   18.5702 C   0  0  0  0  0  0
   24.8374   -0.5421   26.7986 O   0  0  0  0  0  0
   29.7388    0.5844   26.9571 H   0  0  0  0  0  0
   31.6425   -2.5414   28.5471 H   0  0  0  0  0  0
   30.6867   -0.7094   29.5208 H   0  0  0  0  0  0
   29.4665    3.4213   29.0640 H   0  0  0  0  0  0
   30.9876    2.4963   29.0856 H   0  0  0  0  0  0
   30.0607    2.6830   27.5843 H   0  0  0  0  0  0
   28.1370    1.6557   28.6645 H   0  0  0  0  0  0
   29.1893    1.0589   29.9310 H   0  0  0  0  0  0
   27.0280    0.8028   27.0659 H   0  0  0  0  0  0
   25.2808   -3.0495   27.4650 H   0  0  0  0  0  0
   27.4824   -4.0356   27.9712 H   0  0  0  0  0  0
   32.9442   -0.5204   30.1619 H   0  0  0  0  0  0
   35.0696    0.7026   29.8922 H   0  0  0  0  0  0
   33.7628    2.1997   26.0986 H   0  0  0  0  0  0
   31.6932    0.9317   26.2940 H   0  0  0  0  0  0
   36.3801    1.9253   28.4164 H   0  0  0  0  0  0
   29.9856   -0.9387   25.5260 H   0  0  0  0  0  0
   30.9767   -1.1129   23.3302 H   0  0  0  0  0  0
   33.9297   -3.8311   24.8487 H   0  0  0  0  0  0
   32.9928   -3.6002   27.0813 H   0  0  0  0  0  0
   34.8505   -3.3539   22.6574 H   0  0  0  0  0  0
   33.5538   -4.5405   22.6613 H   0  0  0  0  0  0
   34.4978   -4.6044   20.4322 H   0  0  0  0  0  0
   32.8873   -3.9411   20.3829 H   0  0  0  0  0  0
   36.0001   -2.1394   21.3258 H   0  0  0  0  0  0
   36.4119   -3.1617   19.9702 H   0  0  0  0  0  0
   35.9076   -0.1373   19.9656 H   0  0  0  0  0  0
   37.4155   -0.9442   19.6727 H   0  0  0  0  0  0
   36.6602   -1.8700   17.5474 H   0  0  0  0  0  0
   36.3253   -0.1543   17.5278 H   0  0  0  0  0  0
   34.3904   -1.5717   16.7153 H   0  0  0  0  0  0
   33.9380   -0.5425   18.0288 H   0  0  0  0  0  0
   34.5400   -3.5454   18.1604 H   0  0  0  0  0  0
   33.0134   -2.7465   18.4494 H   0  0  0  0  0  0
   24.8559    0.4132   26.6644 H   0  0  0  0  0  0
  1  2  1  0  0  0
  1 39  1  0  0  0
  1 40  1  0  0  0
  1 41  1  0  0  0
  2  3  1  0  0  0
  2 42  1  0  0  0
  2 43  1  0  0  0
  3 36  1  0  0  0
  3 12  1  0  0  0
  3  4  1  0  0  0
  4  9  2  0  0  0
  4  5  1  0  0  0
  5  6  2  0  0  0
  5 44  1  0  0  0
  6  7  1  0  0  0
  6 35  1  0  0  0
  7  8  2  0  0  0
  7 45  1  0  0  0
  8  9  1  0  0  0
  8 46  1  0  0  0
  9 10  1  0  0  0
 10 11  1  0  0  0
 11 37  1  0  0  0
 11 12  1  0  0  0
 11 20  1  0  0  0
 12 38  1  0  0  0
 12 13  1  0  0  0
 13 18  1  0  0  0
 13 14  2  0  0  0
 14 15  1  0  0  0
 14 47  1  0  0  0
 15 16  2  0  0  0
 15 48  1  0  0  0
 16 17  1  0  0  0
 16 19  1  0  0  0
 17 18  2  0  0  0
 17 49  1  0  0  0
 18 50  1  0  0  0
 19 51  1  0  0  0
 20 25  1  0  0  0
 20 21  2  0  0  0
 21 22  1  0  0  0
 21 52  1  0  0  0
 22 23  2  0  0  0
 22 53  1  0  0  0
 23 24  1  0  0  0
 23 26  1  0  0  0
 24 25  2  0  0  0
 24 54  1  0  0  0
 25 55  1  0  0  0
 26 27  1  0  0  0
 27 28  1  0  0  0
 27 56  1  0  0  0
 27 57  1  0  0  0
 28 29  1  0  0  0
 28 58  1  0  0  0
 28 59  1  0  0  0
 29 34  1  0  0  0
 29 30  1  0  0  0
 30 31  1  0  0  0
 30 60  1  0  0  0
 30 61  1  0  0  0
 31 32  1  0  0  0
 31 62  1  0  0  0
 31 63  1  0  0  0
 32 33  1  0  0  0
 32 64  1  0  0  0
 32 65  1  0  0  0
 33 34  1  0  0  0
 33 66  1  0  0  0
 33 67  1  0  0  0
 34 68  1  0  0  0
 34 69  1  0  0  0
 35 70  1  0  0  0
M  END
> <s_m_entry_id>
17085

> <s_m_entry_name>
ligand_docking-pose.12

> <s_m_Source_Path>
/home/csk/Desktop/cluster/DUD-E-result/esr1

> <s_m_Source_File>
ligand_docking-pose.sdf

> <i_m_Source_File_Index>
12

> <i_lp_mmshare_version>
53161

> <i_f3d_flags>
0

> <r_lp_tautomer_probability>
0.999999999997365

> <s_lp_Force_Field>
OPLS_2005

> <r_lp_Energy>
45.249462

> <b_lp_Chiralities_Consistent>
1

> <s_lp_Variant>
301917-1

> <s_i_glide_gridfile>
glide-grid_1sj0

> <i_i_glide_lignum>
1493

> <i_i_glide_rotatable_bonds>
9

> <r_i_docking_score>
-10.83541242639

> <r_i_glide_ligand_efficiency>
-0.309583212182572

> <r_i_glide_ligand_efficiency_sa>
-1.01266721437025

> <r_i_glide_ligand_efficiency_ln>
-2.37861350661475

> <r_i_glide_gscore>
-10.83541242639

> <r_i_glide_lipo>
-6.22582578980356

> <r_i_glide_hbond>
-0.671530815890517

> <r_i_glide_metal>
0

> <r_i_glide_rewards>
-1.07582302514755

> <r_i_glide_evdw>
-45.6633987426758

> <r_i_glide_ecoul>
-6.86662435531616

> <r_i_glide_erotb>
0.450930794882824

> <r_i_glide_esite>
0

> <r_i_glide_emodel>
-71.1324271420343

> <r_i_glide_energy>
-52.5300230979919

> <r_i_glide_einternal>
10.1470222473145

> <i_i_glide_confnum>
4

> <i_i_glide_posenum>
13

> <r_i_glide_eff_state_penalty>
0

> <s_user_duplicate_titles>
301917

> <s_m_subgroup_title>
dock_pv

> <s_m_subgroupid>
dock_pv1

> <b_m_subgroup_collapsed>
0

$$$$
164196
                    3D
 Schrodinger Suite 2021-1.
 64 68  0  0  1  0            999 V2000
   30.5676   -2.0493   29.0212 C   0  0  0  0  0  0
   30.5239   -0.9622   27.9390 C   0  0  1  0  0  0
   29.0232   -0.7148   27.6182 C   0  0  0  0  0  0
   28.2002   -1.7613   27.1618 C   0  0  0  0  0  0
   26.8355   -1.5848   26.9668 C   0  0  0  0  0  0
   26.2732   -0.3348   27.1739 C   0  0  0  0  0  0
   27.0810    0.7341   27.5350 C   0  0  0  0  0  0
   28.4361    0.5515   27.8142 C   0  0  0  0  0  0
   29.2643    1.6923   28.3732 C   0  0  0  0  0  0
   30.3860    1.1601   29.2760 C   0  0  0  0  0  0
   31.2097    0.2194   28.5245 N   0  0  0  0  0  0
   32.5092    0.5779   28.2762 C   0  0  0  0  0  0
   33.5691    0.1242   29.0619 C   0  0  0  0  0  0
   34.8602    0.5765   28.7946 C   0  0  0  0  0  0
   35.0902    1.4566   27.7328 C   0  0  0  0  0  0
   34.0214    1.8743   26.9444 C   0  0  0  0  0  0
   32.7391    1.4650   27.2398 C   0  0  0  0  0  0
   34.1976    2.6580   25.8724 F   0  0  0  0  0  0
   24.9264   -0.1422   27.0516 O   0  0  0  0  0  0
   31.2234   -1.4407   26.6291 C   0  0  0  0  0  0
   32.0850   -2.5508   26.5823 C   0  0  0  0  0  0
   32.6894   -2.9415   25.3891 C   0  0  0  0  0  0
   32.4596   -2.2117   24.2185 C   0  0  0  0  0  0
   31.6236   -1.1033   24.2623 C   0  0  0  0  0  0
   31.0041   -0.7253   25.4455 C   0  0  0  0  0  0
   33.0401   -2.4733   22.9983 O   0  0  0  0  0  0
   33.4501   -3.7954   22.6582 C   0  0  0  0  0  0
   34.2963   -3.7556   21.3653 C   0  0  0  0  0  0
   33.7089   -2.9323   20.3032 N   0  0  0  0  0  0
   34.5553   -2.8083   19.1265 C   0  0  0  0  0  0
   33.6459   -2.2153   18.0469 C   0  0  0  0  0  0
   32.2358   -2.6356   18.4729 C   0  0  0  0  0  0
   32.4587   -3.4396   19.7556 C   0  0  0  0  0  0
   30.0600   -2.9422   28.6692 H   0  0  0  0  0  0
   31.5887   -2.2733   29.3241 H   0  0  0  0  0  0
   30.0601   -1.7418   29.9212 H   0  0  0  0  0  0
   28.6166   -2.7434   26.9907 H   0  0  0  0  0  0
   26.2161   -2.4160   26.6639 H   0  0  0  0  0  0
   26.6354    1.7051   27.6943 H   0  0  0  0  0  0
   28.6401    2.3862   28.9357 H   0  0  0  0  0  0
   29.6892    2.2613   27.5470 H   0  0  0  0  0  0
   30.0553    0.7012   30.2015 H   0  0  0  0  0  0
   30.9920    2.0062   29.6071 H   0  0  0  0  0  0
   33.3929   -0.5571   29.8815 H   0  0  0  0  0  0
   35.6820    0.2350   29.4038 H   0  0  0  0  0  0
   36.0914    1.7886   27.4995 H   0  0  0  0  0  0
   31.9090    1.8316   26.6639 H   0  0  0  0  0  0
   24.6860    0.8021   27.0637 H   0  0  0  0  0  0
   32.3124   -3.1286   27.4621 H   0  0  0  0  0  0
   33.3497   -3.7936   25.4004 H   0  0  0  0  0  0
   31.4529   -0.5420   23.3590 H   0  0  0  0  0  0
   30.3567    0.1395   25.4437 H   0  0  0  0  0  0
   32.5724   -4.4298   22.5237 H   0  0  0  0  0  0
   34.0580   -4.2486   23.4392 H   0  0  0  0  0  0
   34.4516   -4.7725   21.0011 H   0  0  0  0  0  0
   35.2821   -3.3582   21.6097 H   0  0  0  0  0  0
   34.9977   -3.7625   18.8321 H   0  0  0  0  0  0
   35.4001   -2.1612   19.3659 H   0  0  0  0  0  0
   33.9035   -2.6042   17.0615 H   0  0  0  0  0  0
   33.7430   -1.1295   18.0069 H   0  0  0  0  0  0
   31.5986   -1.7698   18.6596 H   0  0  0  0  0  0
   31.7443   -3.2434   17.7131 H   0  0  0  0  0  0
   31.6596   -3.2979   20.4844 H   0  0  0  0  0  0
   32.5024   -4.5154   19.5759 H   0  0  0  0  0  0
  1  2  1  0  0  0
  1 34  1  0  0  0
  1 35  1  0  0  0
  1 36  1  0  0  0
  2 11  1  0  0  0
  2  3  1  0  0  0
  2 20  1  0  0  0
  3  8  2  0  0  0
  3  4  1  0  0  0
  4  5  2  0  0  0
  4 37  1  0  0  0
  5  6  1  0  0  0
  5 38  1  0  0  0
  6  7  2  0  0  0
  6 19  1  0  0  0
  7  8  1  0  0  0
  7 39  1  0  0  0
  8  9  1  0  0  0
  9 10  1  0  0  0
  9 40  1  0  0  0
  9 41  1  0  0  0
 10 11  1  0  0  0
 10 42  1  0  0  0
 10 43  1  0  0  0
 11 12  1  0  0  0
 12 17  1  0  0  0
 12 13  2  0  0  0
 13 14  1  0  0  0
 13 44  1  0  0  0
 14 15  2  0  0  0
 14 45  1  0  0  0
 15 16  1  0  0  0
 15 46  1  0  0  0
 16 17  2  0  0  0
 16 18  1  0  0  0
 17 47  1  0  0  0
 19 48  1  0  0  0
 20 25  1  0  0  0
 20 21  2  0  0  0
 21 22  1  0  0  0
 21 49  1  0  0  0
 22 23  2  0  0  0
 22 50  1  0  0  0
 23 24  1  0  0  0
 23 26  1  0  0  0
 24 25  2  0  0  0
 24 51  1  0  0  0
 25 52  1  0  0  0
 26 27  1  0  0  0
 27 28  1  0  0  0
 27 53  1  0  0  0
 27 54  1  0  0  0
 28 29  1  0  0  0
 28 55  1  0  0  0
 28 56  1  0  0  0
 29 33  1  0  0  0
 29 30  1  0  0  0
 30 31  1  0  0  0
 30 57  1  0  0  0
 30 58  1  0  0  0
 31 32  1  0  0  0
 31 59  1  0  0  0
 31 60  1  0  0  0
 32 33  1  0  0  0
 32 61  1  0  0  0
 32 62  1  0  0  0
 33 63  1  0  0  0
 33 64  1  0  0  0
M  END
> <s_m_entry_id>
17086

> <s_m_entry_name>
ligand_docking-pose.13

> <s_m_Source_Path>
/home/csk/Desktop/cluster/DUD-E-result/esr1

> <s_m_Source_File>
ligand_docking-pose.sdf

> <i_m_Source_File_Index>
13

> <i_lp_mmshare_version>
53161

> <i_f3d_flags>
0

> <r_lp_tautomer_probability>
0.999999999997365

> <s_lp_Force_Field>
OPLS_2005

> <r_lp_Energy>
58.475535

> <b_lp_Chiralities_Consistent>
1

> <s_lp_Variant>
164196-2

> <s_i_glide_gridfile>
glide-grid_1sj0

> <i_i_glide_lignum>
886

> <i_i_glide_rotatable_bonds>
7

> <r_i_docking_score>
-10.8205466441539

> <r_i_glide_ligand_efficiency>
-0.327895352853148

> <r_i_glide_ligand_efficiency_sa>
-1.05173559969677

> <r_i_glide_ligand_efficiency_ln>
-2.40643354786774

> <r_i_glide_gscore>
-10.8205466441539

> <r_i_glide_lipo>
-6.07117390325813

> <r_i_glide_hbond>
-0.32627498983921

> <r_i_glide_metal>
0

> <r_i_glide_rewards>
-1.46807729018847

> <r_i_glide_evdw>
-45.3626022338867

> <r_i_glide_ecoul>
-7.92532825469971

> <r_i_glide_erotb>
0.501908889031212

> <r_i_glide_esite>
0

> <r_i_glide_emodel>
-70.799569124432

> <r_i_glide_energy>
-53.2879304885864

> <r_i_glide_einternal>
8.32372951507568

> <i_i_glide_confnum>
8

> <i_i_glide_posenum>
144

> <r_i_glide_eff_state_penalty>
0

> <s_user_duplicate_titles>
164196

> <s_m_subgroup_title>
dock_pv

> <s_m_subgroupid>
dock_pv1

> <b_m_subgroup_collapsed>
0

$$$$
323658
                    3D
 Schrodinger Suite 2021-1.
 66 70  0  0  1  0            999 V2000
   33.8179   -4.5589   17.8290 C   0  0  0  0  0  0
   34.5378   -3.4950   18.6878 C   0  0  0  0  0  0
   36.0641   -3.6828   18.5257 C   0  0  0  0  0  0
   34.1002   -3.5795   20.0997 N   0  0  0  0  0  0
   34.8638   -2.7236   21.0153 C   0  0  0  0  0  0
   34.4098   -2.9571   22.4784 C   0  0  0  0  0  0
   32.9973   -2.6383   22.7083 N   0  0  0  0  0  0
   32.1634   -3.3366   21.7144 C   0  0  0  0  0  0
   32.6740   -3.2414   20.2527 C   0  0  0  0  0  0
   32.4501   -2.3145   23.9437 C   0  0  0  0  0  0
   31.4905   -1.3078   23.9688 C   0  0  0  0  0  0
   30.8680   -0.9356   25.1492 C   0  0  0  0  0  0
   31.2083   -1.5492   26.3544 C   0  0  0  0  0  0
   32.1829   -2.5598   26.3474 C   0  0  0  0  0  0
   32.8041   -2.9378   25.1483 C   0  0  0  0  0  0
   30.5585   -1.0235   27.6545 C   0  0  2  0  0  0
   29.0166   -1.0291   27.5362 C   0  0  0  0  0  0
   28.3252   -2.2063   27.2297 C   0  0  0  0  0  0
   26.9570   -2.1910   26.9820 C   0  0  0  0  0  0
   26.2505   -0.9950   27.0499 C   0  0  0  0  0  0
   26.8985    0.1635   27.4478 C   0  0  0  0  0  0
   28.2730    0.1634   27.6837 C   0  0  0  0  0  0
   28.9751    1.4489   28.0709 C   0  0  0  0  0  0
   30.2539    1.1342   28.8506 C   0  0  0  0  0  0
   31.1056    0.3088   27.9964 N   0  0  0  0  0  0
   32.4404    0.6229   27.9461 C   0  0  0  0  0  0
   32.8191    1.7374   27.2048 C   0  0  0  0  0  0
   34.1418    2.1509   27.1596 C   0  0  0  0  0  0
   35.0981    1.4313   27.8631 C   0  0  0  0  0  0
   34.7248    0.2928   28.5780 C   0  0  0  0  0  0
   33.4007   -0.1173   28.6254 C   0  0  0  0  0  0
   35.6601   -0.4378   29.2287 O   0  0  0  0  0  0
   24.9399   -0.9446   26.6643 O   0  0  0  0  0  0
   34.2078   -4.5769   16.8120 H   0  0  0  0  0  0
   32.7489   -4.3754   17.7353 H   0  0  0  0  0  0
   33.9488   -5.5567   18.2474 H   0  0  0  0  0  0
   34.2796   -2.5060   18.3070 H   0  0  0  0  0  0
   36.3458   -3.7262   17.4718 H   0  0  0  0  0  0
   36.6257   -2.8530   18.9515 H   0  0  0  0  0  0
   36.4054   -4.6037   18.9936 H   0  0  0  0  0  0
   35.9210   -2.9808   20.9791 H   0  0  0  0  0  0
   34.7892   -1.6713   20.7375 H   0  0  0  0  0  0
   35.0727   -2.5057   23.2064 H   0  0  0  0  0  0
   34.5429   -4.0249   22.6620 H   0  0  0  0  0  0
   31.1367   -2.9691   21.7578 H   0  0  0  0  0  0
   32.1286   -4.3950   21.9831 H   0  0  0  0  0  0
   32.4745   -2.2497   19.8476 H   0  0  0  0  0  0
   32.0746   -3.9430   19.6757 H   0  0  0  0  0  0
   31.2588   -0.7757   23.0641 H   0  0  0  0  0  0
   30.1399   -0.1387   25.1325 H   0  0  0  0  0  0
   32.4754   -3.0433   27.2685 H   0  0  0  0  0  0
   33.5510   -3.7190   25.1538 H   0  0  0  0  0  0
   30.8305   -1.7149   28.4538 H   0  0  0  0  0  0
   28.8646   -3.1381   27.1285 H   0  0  0  0  0  0
   26.4623   -3.1072   26.6946 H   0  0  0  0  0  0
   26.3400    1.0857   27.5036 H   0  0  0  0  0  0
   28.3194    2.0846   28.6640 H   0  0  0  0  0  0
   29.2198    2.0172   27.1728 H   0  0  0  0  0  0
   30.0638    0.6555   29.8120 H   0  0  0  0  0  0
   30.7439    2.0843   29.0801 H   0  0  0  0  0  0
   32.0581    2.2564   26.6585 H   0  0  0  0  0  0
   34.4268    3.0151   26.5813 H   0  0  0  0  0  0
   36.1228    1.7569   27.8224 H   0  0  0  0  0  0
   33.1228   -0.9894   29.1979 H   0  0  0  0  0  0
   36.5308   -0.0401   29.0931 H   0  0  0  0  0  0
   24.6976   -1.7936   26.2527 H   0  0  0  0  0  0
  1  2  1  0  0  0
  1 34  1  0  0  0
  1 35  1  0  0  0
  1 36  1  0  0  0
  2  3  1  0  0  0
  2  4  1  0  0  0
  2 37  1  0  0  0
  3 38  1  0  0  0
  3 39  1  0  0  0
  3 40  1  0  0  0
  4  9  1  0  0  0
  4  5  1  0  0  0
  5  6  1  0  0  0
  5 41  1  0  0  0
  5 42  1  0  0  0
  6  7  1  0  0  0
  6 43  1  0  0  0
  6 44  1  0  0  0
  7  8  1  0  0  0
  7 10  1  0  0  0
  8  9  1  0  0  0
  8 45  1  0  0  0
  8 46  1  0  0  0
  9 47  1  0  0  0
  9 48  1  0  0  0
 10 15  1  0  0  0
 10 11  2  0  0  0
 11 12  1  0  0  0
 11 49  1  0  0  0
 12 13  2  0  0  0
 12 50  1  0  0  0
 13 14  1  0  0  0
 13 16  1  0  0  0
 14 15  2  0  0  0
 14 51  1  0  0  0
 15 52  1  0  0  0
 16 25  1  0  0  0
 16 17  1  0  0  0
 16 53  1  0  0  0
 17 22  2  0  0  0
 17 18  1  0  0  0
 18 19  2  0  0  0
 18 54  1  0  0  0
 19 20  1  0  0  0
 19 55  1  0  0  0
 20 21  2  0  0  0
 20 33  1  0  0  0
 21 22  1  0  0  0
 21 56  1  0  0  0
 22 23  1  0  0  0
 23 24  1  0  0  0
 23 57  1  0  0  0
 23 58  1  0  0  0
 24 25  1  0  0  0
 24 59  1  0  0  0
 24 60  1  0  0  0
 25 26  1  0  0  0
 26 31  1  0  0  0
 26 27  2  0  0  0
 27 28  1  0  0  0
 27 61  1  0  0  0
 28 29  2  0  0  0
 28 62  1  0  0  0
 29 30  1  0  0  0
 29 63  1  0  0  0
 30 31  2  0  0  0
 30 32  1  0  0  0
 31 64  1  0  0  0
 32 65  1  0  0  0
 33 66  1  0  0  0
M  END
> <s_m_entry_id>
17087

> <s_m_entry_name>
ligand_docking-pose.14

> <s_m_Source_Path>
/home/csk/Desktop/cluster/DUD-E-result/esr1

> <s_m_Source_File>
ligand_docking-pose.sdf

> <i_m_Source_File_Index>
14

> <i_lp_mmshare_version>
53161

> <i_f3d_flags>
0

> <r_lp_tautomer_probability>
0.99999999999473

> <s_lp_Force_Field>
OPLS_2005

> <r_lp_Energy>
57.301936

> <b_lp_Chiralities_Consistent>
1

> <s_lp_Variant>
323658-1

> <s_i_glide_gridfile>
glide-grid_1sj0

> <i_i_glide_lignum>
1516

> <i_i_glide_rotatable_bonds>
6

> <r_i_docking_score>
-10.7901351136703

> <r_i_glide_ligand_efficiency>
-0.326973791323342

> <r_i_glide_ligand_efficiency_sa>
-1.04877965945616

> <r_i_glide_ligand_efficiency_ln>
-2.39967018095067

> <r_i_glide_gscore>
-10.7901351136703

> <r_i_glide_lipo>
-5.31228800726574

> <r_i_glide_hbond>
-0.544861844847407

> <r_i_glide_metal>
0

> <r_i_glide_rewards>
-1.67716065722111

> <r_i_glide_evdw>
-54.9007339477539

> <r_i_glide_ecoul>
-4.82777070999146

> <r_i_glide_erotb>
0.213377699550369

> <r_i_glide_esite>
0

> <r_i_glide_emodel>
-55.1317008637765

> <r_i_glide_energy>
-59.7285046577454

> <r_i_glide_einternal>
11.0384702682495

> <i_i_glide_confnum>
1

> <i_i_glide_posenum>
76

> <r_i_glide_eff_state_penalty>
0

> <s_user_duplicate_titles>
323658

> <s_m_subgroup_title>
dock_pv

> <s_m_subgroupid>
dock_pv1

> <b_m_subgroup_collapsed>
0

$$$$
323509
                    3D
 Schrodinger Suite 2021-1.
 60 64  0  0  1  0            999 V2000
   34.8515   -3.7587   19.2545 C   0  0  0  0  0  0
   34.1398   -3.7594   20.5278 N   0  0  0  0  0  0
   34.9740   -3.1985   21.5854 C   0  0  0  0  0  0
   34.2361   -3.3424   22.9334 C   0  0  0  0  0  0
   32.9544   -2.6300   22.9671 N   0  0  0  0  0  0
   32.1401   -2.9395   21.7730 C   0  0  0  0  0  0
   32.9255   -2.9504   20.4337 C   0  0  0  0  0  0
   32.3541   -2.2720   24.1684 C   0  0  0  0  0  0
   31.4605   -1.2027   24.1744 C   0  0  0  0  0  0
   30.8575   -0.7857   25.3510 C   0  0  0  0  0  0
   31.1486   -1.4264   26.5577 C   0  0  0  0  0  0
   32.0470   -2.4962   26.5693 C   0  0  0  0  0  0
   32.6456   -2.9144   25.3808 C   0  0  0  0  0  0
   30.5064   -0.8947   27.8488 C   0  0  2  0  0  0
   28.9755   -0.9264   27.6892 C   0  0  0  0  0  0
   28.3194   -2.1256   27.3761 C   0  0  0  0  0  0
   26.9661   -2.1409   27.0585 C   0  0  0  0  0  0
   26.2415   -0.9535   27.0719 C   0  0  0  0  0  0
   26.8565    0.2281   27.4639 C   0  0  0  0  0  0
   28.2197    0.2618   27.7581 C   0  0  0  0  0  0
   28.9005    1.5704   28.1151 C   0  0  0  0  0  0
   30.1674    1.3151   28.9414 C   0  0  0  0  0  0
   31.0599    0.4346   28.1863 N   0  0  0  0  0  0
   32.4033    0.7332   28.1039 C   0  0  0  0  0  0
   32.7990    1.7682   27.2606 C   0  0  0  0  0  0
   34.1331    2.1216   27.1297 C   0  0  0  0  0  0
   35.0906    1.4202   27.8484 C   0  0  0  0  0  0
   34.7094    0.3486   28.6547 C   0  0  0  0  0  0
   33.3696    0.0055   28.7960 C   0  0  0  0  0  0
   35.6599   -0.3948   29.2720 O   0  0  0  0  0  0
   24.9393   -0.9423   26.6619 O   0  0  0  0  0  0
   35.1402   -2.7524   18.9497 H   0  0  0  0  0  0
   34.2249   -4.1844   18.4709 H   0  0  0  0  0  0
   35.7540   -4.3678   19.3207 H   0  0  0  0  0  0
   35.9265   -3.7267   21.6284 H   0  0  0  0  0  0
   35.2093   -2.1500   21.3906 H   0  0  0  0  0  0
   34.8670   -2.9541   23.7321 H   0  0  0  0  0  0
   34.0588   -4.4034   23.1255 H   0  0  0  0  0  0
   31.3319   -2.2146   21.6833 H   0  0  0  0  0  0
   31.6965   -3.9298   21.9038 H   0  0  0  0  0  0
   33.1822   -1.9323   20.1293 H   0  0  0  0  0  0
   32.2814   -3.3606   19.6528 H   0  0  0  0  0  0
   31.2609   -0.6600   23.2663 H   0  0  0  0  0  0
   30.1791    0.0549   25.3313 H   0  0  0  0  0  0
   32.3010   -2.9925   27.4913 H   0  0  0  0  0  0
   33.3388   -3.7427   25.4078 H   0  0  0  0  0  0
   30.7707   -1.5784   28.6578 H   0  0  0  0  0  0
   28.8799   -3.0480   27.3149 H   0  0  0  0  0  0
   26.5026   -3.0709   26.7630 H   0  0  0  0  0  0
   26.2818    1.1415   27.4634 H   0  0  0  0  0  0
   28.2215    2.2263   28.6603 H   0  0  0  0  0  0
   29.1651    2.0978   27.1972 H   0  0  0  0  0  0
   29.9541    0.9231   29.9346 H   0  0  0  0  0  0
   30.6577    2.2761   29.1023 H   0  0  0  0  0  0
   32.0577    2.2581   26.6675 H   0  0  0  0  0  0
   34.4266    2.9098   26.4545 H   0  0  0  0  0  0
   36.1271    1.6864   27.7234 H   0  0  0  0  0  0
   33.0870   -0.8243   29.4257 H   0  0  0  0  0  0
   36.5322   -0.0127   29.1003 H   0  0  0  0  0  0
   24.7174   -1.8028   26.2640 H   0  0  0  0  0  0
  1  2  1  0  0  0
  1 32  1  0  0  0
  1 33  1  0  0  0
  1 34  1  0  0  0
  2  7  1  0  0  0
  2  3  1  0  0  0
  3  4  1  0  0  0
  3 35  1  0  0  0
  3 36  1  0  0  0
  4  5  1  0  0  0
  4 37  1  0  0  0
  4 38  1  0  0  0
  5  6  1  0  0  0
  5  8  1  0  0  0
  6  7  1  0  0  0
  6 39  1  0  0  0
  6 40  1  0  0  0
  7 41  1  0  0  0
  7 42  1  0  0  0
  8 13  1  0  0  0
  8  9  2  0  0  0
  9 10  1  0  0  0
  9 43  1  0  0  0
 10 11  2  0  0  0
 10 44  1  0  0  0
 11 12  1  0  0  0
 11 14  1  0  0  0
 12 13  2  0  0  0
 12 45  1  0  0  0
 13 46  1  0  0  0
 14 23  1  0  0  0
 14 15  1  0  0  0
 14 47  1  0  0  0
 15 20  2  0  0  0
 15 16  1  0  0  0
 16 17  2  0  0  0
 16 48  1  0  0  0
 17 18  1  0  0  0
 17 49  1  0  0  0
 18 19  2  0  0  0
 18 31  1  0  0  0
 19 20  1  0  0  0
 19 50  1  0  0  0
 20 21  1  0  0  0
 21 22  1  0  0  0
 21 51  1  0  0  0
 21 52  1  0  0  0
 22 23  1  0  0  0
 22 53  1  0  0  0
 22 54  1  0  0  0
 23 24  1  0  0  0
 24 29  1  0  0  0
 24 25  2  0  0  0
 25 26  1  0  0  0
 25 55  1  0  0  0
 26 27  2  0  0  0
 26 56  1  0  0  0
 27 28  1  0  0  0
 27 57  1  0  0  0
 28 29  2  0  0  0
 28 30  1  0  0  0
 29 58  1  0  0  0
 30 59  1  0  0  0
 31 60  1  0  0  0
M  END
> <s_m_entry_id>
17088

> <s_m_entry_name>
ligand_docking-pose.15

> <s_m_Source_Path>
/home/csk/Desktop/cluster/DUD-E-result/esr1

> <s_m_Source_File>
ligand_docking-pose.sdf

> <i_m_Source_File_Index>
15

> <i_lp_mmshare_version>
53161

> <i_f3d_flags>
0

> <r_lp_tautomer_probability>
0.99999999999473

> <s_lp_Force_Field>
OPLS_2005

> <r_lp_Energy>
53.074867

> <b_lp_Chiralities_Consistent>
1

> <s_lp_Variant>
323509-1

> <s_i_glide_gridfile>
glide-grid_1sj0

> <i_i_glide_lignum>
1685

> <i_i_glide_rotatable_bonds>
5

> <r_i_docking_score>
-10.7780806676499

> <r_i_glide_ligand_efficiency>
-0.347680021537093

> <r_i_glide_ligand_efficiency_sa>
-1.09219529162945

> <r_i_glide_ligand_efficiency_ln>
-2.43078749905896

> <r_i_glide_gscore>
-10.7780806676499

> <r_i_glide_lipo>
-5.45419614299888

> <r_i_glide_hbond>
-0.544522247063054

> <r_i_glide_metal>
0

> <r_i_glide_rewards>
-1.85555139687832

> <r_i_glide_evdw>
-50.2290687561035

> <r_i_glide_ecoul>
-4.35023927688599

> <r_i_glide_erotb>
0.24017844862844

> <r_i_glide_esite>
0

> <r_i_glide_emodel>
-57.0358620789426

> <r_i_glide_energy>
-54.5793080329895

> <r_i_glide_einternal>
5.39691543579102

> <i_i_glide_confnum>
12

> <i_i_glide_posenum>
1

> <r_i_glide_eff_state_penalty>
0

> <s_user_duplicate_titles>
323509

> <s_m_subgroup_title>
dock_pv

> <s_m_subgroupid>
dock_pv1

> <b_m_subgroup_collapsed>
0

$$$$
241172
                    3D
 Schrodinger Suite 2021-1.
 49 51  0  0  1  0            999 V2000
   30.9544    1.0006   30.8418 C   0  0  0  0  0  0
   30.3748    1.0246   29.4159 C   0  0  0  0  0  0
   31.1759    0.2793   28.3383 C   0  0  0  0  0  0
   30.6792   -0.7085   27.5389 C   0  0  0  0  0  0
   31.4631   -1.3305   26.4439 C   0  0  0  0  0  0
   32.3636   -2.3647   26.7067 C   0  0  0  0  0  0
   32.9972   -3.0153   25.6537 C   0  0  0  0  0  0
   32.7664   -2.6201   24.3346 C   0  0  0  0  0  0
   31.8866   -1.5653   24.0759 C   0  0  0  0  0  0
   31.2217   -0.9400   25.1247 C   0  0  0  0  0  0
   33.5341   -3.3044   23.2048 C   0  0  0  0  0  0
   32.6580   -3.7433   22.0277 C   0  0  0  0  0  0
   32.5328   -3.0826   21.0010 O   0  0  0  0  0  0
   32.0598   -4.9418   22.2640 O   0  0  0  0  0  0
   29.3176   -1.2824   27.6347 C   0  0  0  0  0  0
   28.1641   -0.4990   27.5057 C   0  0  0  0  0  0
   26.9077   -1.0960   27.5818 C   0  0  0  0  0  0
   26.8168   -2.4739   27.7680 C   0  0  0  0  0  0
   27.9484   -3.2649   27.8645 C   0  0  0  0  0  0
   29.1933   -2.6657   27.8040 C   0  0  0  0  0  0
   25.6059   -3.0807   27.8640 O   0  0  0  0  0  0
   32.5675    0.7435   28.1771 C   0  0  0  0  0  0
   32.8836    1.5804   27.1093 C   0  0  0  0  0  0
   34.1807    2.0411   26.9435 C   0  0  0  0  0  0
   35.1603    1.6769   27.8590 C   0  0  0  0  0  0
   34.8594    0.8384   28.9292 C   0  0  0  0  0  0
   33.5605    0.3677   29.0876 C   0  0  0  0  0  0
   30.2622    1.4577   31.5490 H   0  0  0  0  0  0
   31.1480   -0.0188   31.1770 H   0  0  0  0  0  0
   31.8870    1.5610   30.9075 H   0  0  0  0  0  0
   30.2843    2.0623   29.0919 H   0  0  0  0  0  0
   29.3544    0.6585   29.4637 H   0  0  0  0  0  0
   32.5477   -2.6836   27.7220 H   0  0  0  0  0  0
   33.6600   -3.8387   25.8653 H   0  0  0  0  0  0
   31.7052   -1.2374   23.0635 H   0  0  0  0  0  0
   30.5170   -0.1492   24.9106 H   0  0  0  0  0  0
   34.3056   -2.6268   22.8395 H   0  0  0  0  0  0
   34.0600   -4.1807   23.5849 H   0  0  0  0  0  0
   31.6250   -5.2880   21.4704 H   0  0  0  0  0  0
   28.2388    0.5666   27.3437 H   0  0  0  0  0  0
   26.0147   -0.4951   27.4934 H   0  0  0  0  0  0
   27.8645   -4.3348   27.9891 H   0  0  0  0  0  0
   30.0601   -3.3008   27.8640 H   0  0  0  0  0  0
   25.2600   -3.3384   26.9771 H   0  0  0  0  0  0
   32.1239    1.8582   26.4013 H   0  0  0  0  0  0
   34.4349    2.6591   26.0968 H   0  0  0  0  0  0
   36.1675    2.0362   27.7206 H   0  0  0  0  0  0
   35.6357    0.5504   29.6232 H   0  0  0  0  0  0
   33.3316   -0.2905   29.9131 H   0  0  0  0  0  0
  1  2  1  0  0  0
  1 28  1  0  0  0
  1 29  1  0  0  0
  1 30  1  0  0  0
  2  3  1  0  0  0
  2 31  1  0  0  0
  2 32  1  0  0  0
  3  4  2  0  0  0
  3 22  1  0  0  0
  4  5  1  0  0  0
  4 15  1  0  0  0
  5 10  1  0  0  0
  5  6  2  0  0  0
  6  7  1  0  0  0
  6 33  1  0  0  0
  7  8  2  0  0  0
  7 34  1  0  0  0
  8  9  1  0  0  0
  8 11  1  0  0  0
  9 10  2  0  0  0
  9 35  1  0  0  0
 10 36  1  0  0  0
 11 12  1  0  0  0
 11 37  1  0  0  0
 11 38  1  0  0  0
 12 13  2  0  0  0
 12 14  1  0  0  0
 14 39  1  0  0  0
 15 20  1  0  0  0
 15 16  2  0  0  0
 16 17  1  0  0  0
 16 40  1  0  0  0
 17 18  2  0  0  0
 17 41  1  0  0  0
 18 19  1  0  0  0
 18 21  1  0  0  0
 19 20  2  0  0  0
 19 42  1  0  0  0
 20 43  1  0  0  0
 21 44  1  0  0  0
 22 27  1  0  0  0
 22 23  2  0  0  0
 23 24  1  0  0  0
 23 45  1  0  0  0
 24 25  2  0  0  0
 24 46  1  0  0  0
 25 26  1  0  0  0
 25 47  1  0  0  0
 26 27  2  0  0  0
 26 48  1  0  0  0
 27 49  1  0  0  0
M  END
> <s_m_entry_id>
17089

> <s_m_entry_name>
ligand_docking-pose.16

> <s_m_Source_Path>
/home/csk/Desktop/cluster/DUD-E-result/esr1

> <s_m_Source_File>
ligand_docking-pose.sdf

> <i_m_Source_File_Index>
16

> <i_lp_mmshare_version>
53161

> <i_f3d_flags>
0

> <r_lp_tautomer_probability>
1

> <s_lp_Force_Field>
OPLS_2005

> <r_lp_Energy>
32.175027

> <b_lp_Chiralities_Consistent>
1

> <s_lp_Variant>
241172-1

> <s_i_glide_gridfile>
glide-grid_1sj0

> <i_i_glide_lignum>
1390

> <i_i_glide_rotatable_bonds>
8

> <r_i_docking_score>
-10.7718786207825

> <r_i_glide_ligand_efficiency>
-0.398958467436391

> <r_i_glide_ligand_efficiency_sa>
-1.19687540099427

> <r_i_glide_ligand_efficiency_ln>
-2.50751575461983

> <r_i_glide_gscore>
-10.7718786207825

> <r_i_glide_lipo>
-5.6668310711746

> <r_i_glide_hbond>
-0.152

> <r_i_glide_metal>
0

> <r_i_glide_rewards>
-1.86525218181818

> <r_i_glide_evdw>
-46.7082786560059

> <r_i_glide_ecoul>
-10.8896837234497

> <r_i_glide_erotb>
0.894624202229071

> <r_i_glide_esite>
-0.0135530787010906

> <r_i_glide_emodel>
-86.9345377661649

> <r_i_glide_energy>
-57.5979623794556

> <r_i_glide_einternal>
14.3005905151367

> <i_i_glide_confnum>
27

> <i_i_glide_posenum>
288

> <r_i_glide_eff_state_penalty>
0

> <s_user_duplicate_titles>
241172

> <s_m_subgroup_title>
dock_pv

> <s_m_subgroupid>
dock_pv1

> <b_m_subgroup_collapsed>
0

$$$$
550993
                    3D
 Schrodinger Suite 2021-1.
 60 64  0  0  1  0            999 V2000
   35.0084    1.2367   28.2530 C   0  0  0  0  0  0
   34.1814    1.8581   27.3330 C   0  0  0  0  0  0
   32.8179    1.6447   27.4122 C   0  0  0  0  0  0
   32.2873    0.8356   28.4257 C   0  0  0  0  0  0
   33.1389    0.2054   29.3370 C   0  0  0  0  0  0
   34.5100    0.3933   29.2356 C   0  0  0  0  0  0
   30.7868    0.5765   28.5162 C   0  0  1  0  0  0
   29.9228    1.6849   27.8747 C   0  0  0  0  0  0
   28.5575    1.4836   28.1866 O   0  0  0  0  0  0
   28.0815    0.2508   27.8087 C   0  0  0  0  0  0
   26.7406    0.2295   27.4639 C   0  0  0  0  0  0
   26.1533   -0.9583   27.0636 C   0  0  0  0  0  0
   26.8942   -2.1397   27.0634 C   0  0  0  0  0  0
   28.2368   -2.1193   27.4315 C   0  0  0  0  0  0
   28.8649   -0.9193   27.7846 C   0  0  0  0  0  0
   30.3711   -0.8480   28.0404 C   0  0  1  0  0  0
   31.1717   -1.3954   26.8427 C   0  0  0  0  0  0
   32.1861   -2.3326   27.0640 C   0  0  0  0  0  0
   32.8509   -2.9147   25.9908 C   0  0  0  0  0  0
   32.5223   -2.5497   24.6892 C   0  0  0  0  0  0
   31.5588   -1.5666   24.4572 C   0  0  0  0  0  0
   30.8783   -0.9975   25.5319 C   0  0  0  0  0  0
   33.3843   -3.3370   23.3605 S   0  0  0  0  0  0
   32.2498   -3.5819   21.9537 C   0  0  0  0  0  0
   32.8396   -3.6954   20.5299 C   0  0  0  0  0  0
   33.7160   -2.5798   20.1438 N   0  0  0  0  0  0
   35.1158   -2.7258   20.5323 C   0  0  0  0  0  0
   35.8674   -1.6810   19.7056 C   0  0  0  0  0  0
   35.0068   -1.5115   18.4522 C   0  0  0  0  0  0
   33.8123   -2.4357   18.6967 C   0  0  0  0  0  0
   24.8599   -0.9420   26.6358 O   0  0  0  0  0  0
   30.5647    0.6411   29.5836 H   0  0  0  0  0  0
   30.5716   -1.5340   28.8666 H   0  0  0  0  0  0
   36.0600    1.3926   28.1602 H   0  0  0  0  0  0
   34.5992    2.4797   26.5551 H   0  0  0  0  0  0
   32.1958    2.1044   26.6639 H   0  0  0  0  0  0
   32.7445   -0.4477   30.1019 H   0  0  0  0  0  0
   35.1929   -0.1192   29.8925 H   0  0  0  0  0  0
   30.2072    2.6580   28.2658 H   0  0  0  0  0  0
   30.0408    1.7012   26.7898 H   0  0  0  0  0  0
   26.1635    1.1409   27.4645 H   0  0  0  0  0  0
   26.4600   -3.0746   26.7445 H   0  0  0  0  0  0
   28.8083   -3.0364   27.3900 H   0  0  0  0  0  0
   32.4554   -2.6220   28.0686 H   0  0  0  0  0  0
   33.6134   -3.6578   26.1678 H   0  0  0  0  0  0
   31.3226   -1.2419   23.4570 H   0  0  0  0  0  0
   30.1087   -0.2639   25.3420 H   0  0  0  0  0  0
   31.5308   -2.7665   21.9378 H   0  0  0  0  0  0
   31.6639   -4.4780   22.1620 H   0  0  0  0  0  0
   31.9951   -3.7418   19.8389 H   0  0  0  0  0  0
   33.3636   -4.6469   20.4143 H   0  0  0  0  0  0
   35.4895   -3.7392   20.3715 H   0  0  0  0  0  0
   35.2318   -2.5420   21.5983 H   0  0  0  0  0  0
   36.8765   -2.0189   19.4671 H   0  0  0  0  0  0
   35.9611   -0.7447   20.2574 H   0  0  0  0  0  0
   34.6827   -0.4784   18.3238 H   0  0  0  0  0  0
   35.5461   -1.8011   17.5498 H   0  0  0  0  0  0
   32.8777   -2.0142   18.3222 H   0  0  0  0  0  0
   33.9164   -3.3976   18.1899 H   0  0  0  0  0  0
   24.6342   -1.8033   26.2408 H   0  0  0  0  0  0
  1  6  1  0  0  0
  1  2  2  0  0  0
  1 34  1  0  0  0
  2  3  1  0  0  0
  2 35  1  0  0  0
  3  4  2  0  0  0
  3 36  1  0  0  0
  4  5  1  0  0  0
  4  7  1  0  0  0
  5  6  2  0  0  0
  5 37  1  0  0  0
  6 38  1  0  0  0
  7 32  1  0  0  0
  7 16  1  0  0  0
  7  8  1  0  0  0
  8  9  1  0  0  0
  8 39  1  0  0  0
  8 40  1  0  0  0
  9 10  1  0  0  0
 10 15  2  0  0  0
 10 11  1  0  0  0
 11 12  2  0  0  0
 11 41  1  0  0  0
 12 13  1  0  0  0
 12 31  1  0  0  0
 13 14  2  0  0  0
 13 42  1  0  0  0
 14 15  1  0  0  0
 14 43  1  0  0  0
 15 16  1  0  0  0
 16 33  1  0  0  0
 16 17  1  0  0  0
 17 22  1  0  0  0
 17 18  2  0  0  0
 18 19  1  0  0  0
 18 44  1  0  0  0
 19 20  2  0  0  0
 19 45  1  0  0  0
 20 21  1  0  0  0
 20 23  1  0  0  0
 21 22  2  0  0  0
 21 46  1  0  0  0
 22 47  1  0  0  0
 23 24  1  0  0  0
 24 25  1  0  0  0
 24 48  1  0  0  0
 24 49  1  0  0  0
 25 26  1  0  0  0
 25 50  1  0  0  0
 25 51  1  0  0  0
 26 30  1  0  0  0
 26 27  1  0  0  0
 27 28  1  0  0  0
 27 52  1  0  0  0
 27 53  1  0  0  0
 28 29  1  0  0  0
 28 54  1  0  0  0
 28 55  1  0  0  0
 29 30  1  0  0  0
 29 56  1  0  0  0
 29 57  1  0  0  0
 30 58  1  0  0  0
 30 59  1  0  0  0
 31 60  1  0  0  0
M  END
> <s_m_entry_id>
17090

> <s_m_entry_name>
ligand_docking-pose.17

> <s_m_Source_Path>
/home/csk/Desktop/cluster/DUD-E-result/esr1

> <s_m_Source_File>
ligand_docking-pose.sdf

> <i_m_Source_File_Index>
17

> <i_lp_mmshare_version>
53161

> <i_f3d_flags>
0

> <r_lp_tautomer_probability>
1

> <s_lp_Force_Field>
OPLS_2005

> <r_lp_Energy>
39.796307

> <b_lp_Chiralities_Consistent>
1

> <s_lp_Variant>
550993-1

> <s_i_glide_gridfile>
glide-grid_1sj0

> <i_i_glide_lignum>
564

> <i_i_glide_rotatable_bonds>
7

> <r_i_docking_score>
-10.7694106417819

> <r_i_glide_ligand_efficiency>
-0.347400343283287

> <r_i_glide_ligand_efficiency_sa>
-1.09131671577506

> <r_i_glide_ligand_efficiency_ln>
-2.42883214252135

> <r_i_glide_gscore>
-10.7694106417819

> <r_i_glide_lipo>
-5.95269515117439

> <r_i_glide_hbond>
-0.281745889057935

> <r_i_glide_metal>
0

> <r_i_glide_rewards>
-1.36642731818182

> <r_i_glide_evdw>
-54.4036636352539

> <r_i_glide_ecoul>
-5.48074769973755

> <r_i_glide_erotb>
0.373753053355566

> <r_i_glide_esite>
0

> <r_i_glide_emodel>
-94.8883152682679

> <r_i_glide_energy>
-59.8844113349915

> <r_i_glide_einternal>
3.69376373291016

> <i_i_glide_confnum>
5

> <i_i_glide_posenum>
343

> <r_i_glide_eff_state_penalty>
0

> <s_user_duplicate_titles>
550993

> <s_m_subgroup_title>
dock_pv

> <s_m_subgroupid>
dock_pv1

> <b_m_subgroup_collapsed>
0

$$$$
326004
                    3D
 Schrodinger Suite 2021-1.
 61 65  0  0  1  0            999 V2000
   34.8106   -2.9598   16.1314 C   0  0  0  0  0  0
   34.2855   -3.8238   17.2905 C   0  0  0  0  0  0
   34.2627   -3.1217   18.5833 N   0  0  0  0  0  0
   33.4367   -1.9024   18.5857 C   0  0  0  0  0  0
   31.9268   -2.1421   18.3654 C   0  0  0  0  0  0
   33.9140   -4.0741   19.6524 C   0  0  0  0  0  0
   34.2514   -3.6222   21.0921 C   0  0  0  0  0  0
   33.3885   -2.5935   21.6036 O   0  0  0  0  0  0
   33.0630   -2.5731   22.9510 C   0  0  0  0  0  0
   33.6590   -3.3814   23.9185 C   0  0  0  0  0  0
   33.1824   -3.4076   25.2186 C   0  0  0  0  0  0
   32.0658   -2.6544   25.5646 C   0  0  0  0  0  0
   31.5378   -1.7449   24.6504 C   0  0  0  0  0  0
   32.0593   -1.7012   23.3628 C   0  0  0  0  0  0
   31.4144   -2.8743   26.9186 C   0  0  0  0  0  0
   31.3067   -1.6575   27.6926 N   0  0  0  0  0  0
   32.4020   -1.1014   28.3432 C   0  0  0  0  0  0
   33.6598   -1.6011   28.6640 C   0  0  0  0  0  0
   34.5912   -0.6874   29.1430 C   0  0  0  0  0  0
   34.2662    0.6386   29.3727 C   0  0  0  0  0  0
   32.9704    1.1181   29.1700 C   0  0  0  0  0  0
   32.0410    0.2297   28.6357 C   0  0  0  0  0  0
   30.7082    0.3829   28.2770 C   0  0  0  0  0  0
   30.2404   -0.7925   27.7400 C   0  0  0  0  0  0
   28.8817   -0.7600   27.4093 C   0  0  0  0  0  0
   28.0700   -1.8059   26.9421 C   0  0  0  0  0  0
   26.7036   -1.5723   26.8338 C   0  0  0  0  0  0
   26.1516   -0.3232   27.0932 C   0  0  0  0  0  0
   26.9514    0.7532   27.4640 C   0  0  0  0  0  0
   28.3127    0.5226   27.6713 C   0  0  0  0  0  0
   29.5265    1.6410   28.3094 S   0  0  0  0  0  0
   24.7990   -0.1420   27.0283 O   0  0  0  0  0  0
   35.2599    1.4579   29.8002 O   0  0  0  0  0  0
   34.9573   -3.5650   15.2377 H   0  0  0  0  0  0
   35.7673   -2.5020   16.3803 H   0  0  0  0  0  0
   34.1123   -2.1660   15.8692 H   0  0  0  0  0  0
   33.3031   -4.2297   17.0455 H   0  0  0  0  0  0
   34.9534   -4.6826   17.3777 H   0  0  0  0  0  0
   33.6100   -1.3560   19.5112 H   0  0  0  0  0  0
   33.8040   -1.2201   17.8203 H   0  0  0  0  0  0
   31.3966   -1.1972   18.2638 H   0  0  0  0  0  0
   31.7252   -2.7098   17.4591 H   0  0  0  0  0  0
   31.4753   -2.6709   19.2036 H   0  0  0  0  0  0
   32.8622   -4.3614   19.5913 H   0  0  0  0  0  0
   34.4677   -5.0010   19.4885 H   0  0  0  0  0  0
   34.1718   -4.5377   21.6767 H   0  0  0  0  0  0
   35.2884   -3.2924   21.1617 H   0  0  0  0  0  0
   34.4599   -4.0414   23.6715 H   0  0  0  0  0  0
   33.6258   -4.0988   25.9191 H   0  0  0  0  0  0
   30.7037   -1.1112   24.9141 H   0  0  0  0  0  0
   31.6599   -0.9979   22.6644 H   0  0  0  0  0  0
   30.4432   -3.3420   26.8134 H   0  0  0  0  0  0
   32.0595   -3.5572   27.4640 H   0  0  0  0  0  0
   33.9256   -2.6345   28.5013 H   0  0  0  0  0  0
   35.5947   -1.0300   29.3509 H   0  0  0  0  0  0
   32.6894    2.1384   29.3607 H   0  0  0  0  0  0
   28.4468   -2.7908   26.7244 H   0  0  0  0  0  0
   26.0607   -2.3901   26.5605 H   0  0  0  0  0  0
   26.5190    1.7192   27.6765 H   0  0  0  0  0  0
   24.5567    0.8025   27.0639 H   0  0  0  0  0  0
   36.1455    1.2053   29.4982 H   0  0  0  0  0  0
  1  2  1  0  0  0
  1 34  1  0  0  0
  1 35  1  0  0  0
  1 36  1  0  0  0
  2  3  1  0  0  0
  2 37  1  0  0  0
  2 38  1  0  0  0
  3  4  1  0  0  0
  3  6  1  0  0  0
  4  5  1  0  0  0
  4 39  1  0  0  0
  4 40  1  0  0  0
  5 41  1  0  0  0
  5 42  1  0  0  0
  5 43  1  0  0  0
  6  7  1  0  0  0
  6 44  1  0  0  0
  6 45  1  0  0  0
  7  8  1  0  0  0
  7 46  1  0  0  0
  7 47  1  0  0  0
  8  9  1  0  0  0
  9 14  1  0  0  0
  9 10  2  0  0  0
 10 11  1  0  0  0
 10 48  1  0  0  0
 11 12  2  0  0  0
 11 49  1  0  0  0
 12 13  1  0  0  0
 12 15  1  0  0  0
 13 14  2  0  0  0
 13 50  1  0  0  0
 14 51  1  0  0  0
 15 16  1  0  0  0
 15 52  1  0  0  0
 15 53  1  0  0  0
 16 24  1  0  0  0
 16 17  1  0  0  0
 17 22  2  0  0  0
 17 18  1  0  0  0
 18 19  2  0  0  0
 18 54  1  0  0  0
 19 20  1  0  0  0
 19 55  1  0  0  0
 20 21  2  0  0  0
 20 33  1  0  0  0
 21 22  1  0  0  0
 21 56  1  0  0  0
 22 23  1  0  0  0
 23 31  1  0  0  0
 23 24  2  0  0  0
 24 25  1  0  0  0
 25 30  2  0  0  0
 25 26  1  0  0  0
 26 27  2  0  0  0
 26 57  1  0  0  0
 27 28  1  0  0  0
 27 58  1  0  0  0
 28 29  2  0  0  0
 28 32  1  0  0  0
 29 30  1  0  0  0
 29 59  1  0  0  0
 30 31  1  0  0  0
 32 60  1  0  0  0
 33 61  1  0  0  0
M  END
> <s_m_entry_id>
17091

> <s_m_entry_name>
ligand_docking-pose.18

> <s_m_Source_Path>
/home/csk/Desktop/cluster/DUD-E-result/esr1

> <s_m_Source_File>
ligand_docking-pose.sdf

> <i_m_Source_File_Index>
18

> <i_lp_mmshare_version>
53161

> <i_f3d_flags>
0

> <r_lp_tautomer_probability>
1

> <s_lp_Force_Field>
OPLS_2005

> <r_lp_Energy>
54.811004

> <b_lp_Chiralities_Consistent>
1

> <s_lp_Variant>
326004-1

> <s_i_glide_gridfile>
glide-grid_1sj0

> <i_i_glide_lignum>
1636

> <i_i_glide_rotatable_bonds>
10

> <r_i_docking_score>
-10.7571487120575

> <r_i_glide_ligand_efficiency>
-0.325974203395683

> <r_i_glide_ligand_efficiency_sa>
-1.04557344686608

> <r_i_glide_ligand_efficiency_ln>
-2.39233417602643

> <r_i_glide_gscore>
-10.7571487120575

> <r_i_glide_lipo>
-5.7566129990302

> <r_i_glide_hbond>
-0.628985098442153

> <r_i_glide_metal>
0

> <r_i_glide_rewards>
-1.27141787081495

> <r_i_glide_evdw>
-35.5875778198242

> <r_i_glide_ecoul>
-12.6005191802979

> <r_i_glide_erotb>
0.569324024265658

> <r_i_glide_esite>
0

> <r_i_glide_emodel>
-52.9209833467732

> <r_i_glide_energy>
-48.1880970001221

> <r_i_glide_einternal>
5.68524885177612

> <i_i_glide_confnum>
4

> <i_i_glide_posenum>
27

> <r_i_glide_eff_state_penalty>
0

> <s_user_duplicate_titles>
326004

> <s_m_subgroup_title>
dock_pv

> <s_m_subgroupid>
dock_pv1

> <b_m_subgroup_collapsed>
0

$$$$
323787
                    3D
 Schrodinger Suite 2021-1.
 66 71  0  0  1  0            999 V2000
   35.1667    1.3067   27.8640 C   0  0  0  0  0  0
   34.1755    1.8903   27.0842 C   0  0  0  0  0  0
   32.8570    1.4978   27.2600 C   0  0  0  0  0  0
   32.5337    0.5220   28.2047 C   0  0  0  0  0  0
   33.5389   -0.0915   28.9540 C   0  0  0  0  0  0
   34.8614    0.3081   28.7876 C   0  0  0  0  0  0
   31.2073    0.2086   28.4232 N   0  0  0  0  0  0
   30.3354    1.2281   29.0140 C   0  0  0  0  0  0
   29.1910    1.5859   28.0609 C   0  0  0  0  0  0
   28.3752    0.3517   27.7436 C   0  0  0  0  0  0
   27.0117    0.4483   27.4641 C   0  0  0  0  0  0
   26.2592   -0.6839   27.1807 C   0  0  0  0  0  0
   26.8595   -1.9381   27.2261 C   0  0  0  0  0  0
   28.2242   -2.0449   27.4894 C   0  0  0  0  0  0
   29.0057   -0.9066   27.7352 C   0  0  0  0  0  0
   30.5386   -1.0062   27.8901 C   0  0  1  0  0  0
   31.1541   -1.4994   26.5685 C   0  0  0  0  0  0
   32.0857   -2.5403   26.5517 C   0  0  0  0  0  0
   32.6236   -2.9770   25.3417 C   0  0  0  0  0  0
   32.2317   -2.3936   24.1279 C   0  0  0  0  0  0
   31.3175   -1.3419   24.1627 C   0  0  0  0  0  0
   30.7845   -0.8954   25.3641 C   0  0  0  0  0  0
   32.7654   -2.7929   22.9059 N   0  0  0  0  0  0
   34.0599   -3.4663   22.8043 C   0  0  0  0  0  0
   34.7730   -3.2284   21.4555 C   0  0  0  0  0  0
   33.9521   -3.7041   20.3425 N   0  0  2  0  0  0
   34.6855   -3.6053   19.0733 C   0  0  0  0  0  0
   33.7997   -3.9427   17.8609 C   0  0  0  0  0  0
   32.5516   -3.0544   17.8151 C   0  0  0  0  0  0
   31.7853   -3.1591   19.1370 C   0  0  0  0  0  0
   32.6912   -2.9405   20.3720 C   0  0  1  0  0  0
   31.9399   -3.1243   21.7253 C   0  0  0  0  0  0
   24.9429   -0.5421   26.8358 O   0  0  0  0  0  0
   36.1860    1.6232   27.7162 H   0  0  0  0  0  0
   34.4316    2.6434   26.3537 H   0  0  0  0  0  0
   32.0788    1.9488   26.6659 H   0  0  0  0  0  0
   33.2929   -0.8505   29.6824 H   0  0  0  0  0  0
   35.6483   -0.1467   29.3721 H   0  0  0  0  0  0
   30.9074    2.1320   29.2312 H   0  0  0  0  0  0
   29.9661    0.8977   29.9819 H   0  0  0  0  0  0
   29.5845    2.0215   27.1413 H   0  0  0  0  0  0
   28.5583    2.3411   28.5259 H   0  0  0  0  0  0
   26.5392    1.4198   27.4565 H   0  0  0  0  0  0
   26.2760   -2.8247   27.0273 H   0  0  0  0  0  0
   28.6881   -3.0214   27.4707 H   0  0  0  0  0  0
   30.7223   -1.7913   28.6259 H   0  0  0  0  0  0
   32.4010   -3.0094   27.4704 H   0  0  0  0  0  0
   33.3374   -3.7870   25.3548 H   0  0  0  0  0  0
   31.0412   -0.8362   23.2562 H   0  0  0  0  0  0
   30.0835   -0.0737   25.3570 H   0  0  0  0  0  0
   34.7135   -3.1232   23.6066 H   0  0  0  0  0  0
   33.9127   -4.5387   22.9453 H   0  0  0  0  0  0
   34.9985   -2.1644   21.3385 H   0  0  0  0  0  0
   35.7336   -3.7427   21.4564 H   0  0  0  0  0  0
   35.0711   -2.5898   18.9632 H   0  0  0  0  0  0
   35.5560   -4.2624   19.1060 H   0  0  0  0  0  0
   34.3756   -3.8134   16.9441 H   0  0  0  0  0  0
   33.5267   -4.9992   17.8893 H   0  0  0  0  0  0
   32.8385   -2.0174   17.6330 H   0  0  0  0  0  0
   31.9053   -3.3505   16.9885 H   0  0  0  0  0  0
   31.3278   -4.1419   19.1759 H   0  0  0  0  0  0
   30.9756   -2.4283   19.1334 H   0  0  0  0  0  0
   33.0046   -1.9027   20.2659 H   0  0  0  0  0  0
   31.6437   -4.1722   21.8098 H   0  0  0  0  0  0
   31.0214   -2.5422   21.7310 H   0  0  0  0  0  0
   24.7144    0.3810   26.6682 H   0  0  0  0  0  0
  1  6  1  0  0  0
  1  2  2  0  0  0
  1 34  1  0  0  0
  2  3  1  0  0  0
  2 35  1  0  0  0
  3  4  2  0  0  0
  3 36  1  0  0  0
  4  5  1  0  0  0
  4  7  1  0  0  0
  5  6  2  0  0  0
  5 37  1  0  0  0
  6 38  1  0  0  0
  7 16  1  0  0  0
  7  8  1  0  0  0
  8  9  1  0  0  0
  8 39  1  0  0  0
  8 40  1  0  0  0
  9 10  1  0  0  0
  9 41  1  0  0  0
  9 42  1  0  0  0
 10 15  2  0  0  0
 10 11  1  0  0  0
 11 12  2  0  0  0
 11 43  1  0  0  0
 12 13  1  0  0  0
 12 33  1  0  0  0
 13 14  2  0  0  0
 13 44  1  0  0  0
 14 15  1  0  0  0
 14 45  1  0  0  0
 15 16  1  0  0  0
 16 17  1  0  0  0
 16 46  1  0  0  0
 17 22  1  0  0  0
 17 18  2  0  0  0
 18 19  1  0  0  0
 18 47  1  0  0  0
 19 20  2  0  0  0
 19 48  1  0  0  0
 20 21  1  0  0  0
 20 23  1  0  0  0
 21 22  2  0  0  0
 21 49  1  0  0  0
 22 50  1  0  0  0
 23 32  1  0  0  0
 23 24  1  0  0  0
 24 25  1  0  0  0
 24 51  1  0  0  0
 24 52  1  0  0  0
 25 26  1  0  0  0
 25 53  1  0  0  0
 25 54  1  0  0  0
 26 31  1  0  0  0
 26 27  1  0  0  0
 27 28  1  0  0  0
 27 55  1  0  0  0
 27 56  1  0  0  0
 28 29  1  0  0  0
 28 57  1  0  0  0
 28 58  1  0  0  0
 29 30  1  0  0  0
 29 59  1  0  0  0
 29 60  1  0  0  0
 30 31  1  0  0  0
 30 61  1  0  0  0
 30 62  1  0  0  0
 31 32  1  0  0  0
 31 63  1  0  0  0
 32 64  1  0  0  0
 32 65  1  0  0  0
 33 66  1  0  0  0
M  END
> <s_m_entry_id>
17092

> <s_m_entry_name>
ligand_docking-pose.19

> <s_m_Source_Path>
/home/csk/Desktop/cluster/DUD-E-result/esr1

> <s_m_Source_File>
ligand_docking-pose.sdf

> <i_m_Source_File_Index>
19

> <i_lp_mmshare_version>
53161

> <i_f3d_flags>
0

> <r_lp_tautomer_probability>
0.999999999997365

> <s_lp_Force_Field>
OPLS_2005

> <r_lp_Energy>
60.739394

> <b_lp_Chiralities_Consistent>
1

> <s_lp_Variant>
323787-1

> <s_i_glide_gridfile>
glide-grid_1sj0

> <i_i_glide_lignum>
610

> <i_i_glide_rotatable_bonds>
4

> <r_i_docking_score>
-10.7568519355949

> <r_i_glide_ligand_efficiency>
-0.325965210169543

> <r_i_glide_ligand_efficiency_sa>
-1.04554460078453

> <r_i_glide_ligand_efficiency_ln>
-2.39226817447777

> <r_i_glide_gscore>
-10.7568519355949

> <r_i_glide_lipo>
-5.60496639132959

> <r_i_glide_hbond>
-0.367669044657374

> <r_i_glide_metal>
0

> <r_i_glide_rewards>
-1.84391805556095

> <r_i_glide_evdw>
-58.1901626586914

> <r_i_glide_ecoul>
-2.27103471755981

> <r_i_glide_erotb>
0.309864896521548

> <r_i_glide_esite>
0

> <r_i_glide_emodel>
-59.6689049133012

> <r_i_glide_energy>
-60.4611973762512

> <r_i_glide_einternal>
4.85881519317627

> <i_i_glide_confnum>
18

> <i_i_glide_posenum>
148

> <r_i_glide_eff_state_penalty>
0

> <s_user_duplicate_titles>
323787

> <s_m_subgroup_title>
dock_pv

> <s_m_subgroupid>
dock_pv1

> <b_m_subgroup_collapsed>
0

$$$$
164118
                    3D
 Schrodinger Suite 2021-1.
 42 45  0  0  1  0            999 V2000
   35.1873    1.5454   27.8635 C   0  0  0  0  0  0
   34.2078    2.2059   27.1317 C   0  0  0  0  0  0
   32.8912    1.7937   27.2487 C   0  0  0  0  0  0
   32.5468    0.7502   28.0990 C   0  0  0  0  0  0
   33.5324    0.0805   28.8268 C   0  0  0  0  0  0
   34.8601    0.4828   28.7069 C   0  0  0  0  0  0
   31.2107    0.4184   28.1772 N   0  0  0  0  0  0
   30.3127    1.2656   28.9614 C   0  0  0  0  0  0
   29.0611    1.5409   28.1207 C   0  0  0  0  0  0
   28.3805    0.2404   27.7380 C   0  0  0  0  0  0
   27.0123    0.2119   27.4634 C   0  0  0  0  0  0
   26.3950   -0.9621   27.0550 C   0  0  0  0  0  0
   27.1256   -2.1425   26.9903 C   0  0  0  0  0  0
   28.4837   -2.1328   27.2913 C   0  0  0  0  0  0
   29.1415   -0.9440   27.6369 C   0  0  0  0  0  0
   30.6692   -0.9188   27.8601 C   0  0  1  0  0  0
   31.3937   -1.5418   26.6541 C   0  0  0  0  0  0
   31.1611   -1.0508   25.3619 C   0  0  0  0  0  0
   31.8264   -1.6054   24.2718 C   0  0  0  0  0  0
   32.7217   -2.6520   24.4707 C   0  0  0  0  0  0
   32.9612   -3.1429   25.7502 C   0  0  0  0  0  0
   32.3092   -2.5795   26.8438 C   0  0  0  0  0  0
   33.3712   -3.1909   23.4154 F   0  0  0  0  0  0
   25.0864   -0.9476   26.6639 O   0  0  0  0  0  0
   36.2136    1.8574   27.7568 H   0  0  0  0  0  0
   34.4605    3.0231   26.4727 H   0  0  0  0  0  0
   32.1176    2.2544   26.6642 H   0  0  0  0  0  0
   33.2710   -0.7361   29.4834 H   0  0  0  0  0  0
   35.6374   -0.0232   29.2619 H   0  0  0  0  0  0
   30.7931    2.2203   29.1841 H   0  0  0  0  0  0
   30.0710    0.8152   29.9237 H   0  0  0  0  0  0
   29.3385    2.0839   27.2161 H   0  0  0  0  0  0
   28.3761    2.1909   28.6645 H   0  0  0  0  0  0
   26.4358    1.1238   27.5053 H   0  0  0  0  0  0
   26.6543   -3.0624   26.6741 H   0  0  0  0  0  0
   29.0433   -3.0539   27.2062 H   0  0  0  0  0  0
   30.8703   -1.5552   28.7238 H   0  0  0  0  0  0
   30.4669   -0.2370   25.2078 H   0  0  0  0  0  0
   31.6548   -1.2274   23.2755 H   0  0  0  0  0  0
   33.6597   -3.9548   25.8848 H   0  0  0  0  0  0
   32.5193   -2.9430   27.8377 H   0  0  0  0  0  0
   24.8600   -1.8058   26.2644 H   0  0  0  0  0  0
  1  6  1  0  0  0
  1  2  2  0  0  0
  1 25  1  0  0  0
  2  3  1  0  0  0
  2 26  1  0  0  0
  3  4  2  0  0  0
  3 27  1  0  0  0
  4  5  1  0  0  0
  4  7  1  0  0  0
  5  6  2  0  0  0
  5 28  1  0  0  0
  6 29  1  0  0  0
  7 16  1  0  0  0
  7  8  1  0  0  0
  8  9  1  0  0  0
  8 30  1  0  0  0
  8 31  1  0  0  0
  9 10  1  0  0  0
  9 32  1  0  0  0
  9 33  1  0  0  0
 10 15  2  0  0  0
 10 11  1  0  0  0
 11 12  2  0  0  0
 11 34  1  0  0  0
 12 13  1  0  0  0
 12 24  1  0  0  0
 13 14  2  0  0  0
 13 35  1  0  0  0
 14 15  1  0  0  0
 14 36  1  0  0  0
 15 16  1  0  0  0
 16 17  1  0  0  0
 16 37  1  0  0  0
 17 22  1  0  0  0
 17 18  2  0  0  0
 18 19  1  0  0  0
 18 38  1  0  0  0
 19 20  2  0  0  0
 19 39  1  0  0  0
 20 21  1  0  0  0
 20 23  1  0  0  0
 21 22  2  0  0  0
 21 40  1  0  0  0
 22 41  1  0  0  0
 24 42  1  0  0  0
M  END
> <s_m_entry_id>
17093

> <s_m_entry_name>
ligand_docking-pose.20

> <s_m_Source_Path>
/home/csk/Desktop/cluster/DUD-E-result/esr1

> <s_m_Source_File>
ligand_docking-pose.sdf

> <i_m_Source_File_Index>
20

> <i_lp_mmshare_version>
53161

> <i_f3d_flags>
0

> <r_lp_tautomer_probability>
0.999999999997365

> <s_lp_Force_Field>
OPLS_2005

> <r_lp_Energy>
25.912437

> <b_lp_Chiralities_Consistent>
1

> <s_lp_Variant>
164118-1

> <s_i_glide_gridfile>
glide-grid_1sj0

> <i_i_glide_lignum>
608

> <i_i_glide_rotatable_bonds>
3

> <r_i_docking_score>
-10.7433870797255

> <r_i_glide_ligand_efficiency>
-0.447641128321898

> <r_i_glide_ligand_efficiency_sa>
-1.2912204485805

> <r_i_glide_ligand_efficiency_ln>
-2.57138551008828

> <r_i_glide_gscore>
-10.7433870797255

> <r_i_glide_lipo>
-5.19151353582525

> <r_i_glide_hbond>
-0.21468311457115

> <r_i_glide_metal>
0

> <r_i_glide_rewards>
-2.84214160136464

> <r_i_glide_evdw>
-45.5049209594727

> <r_i_glide_ecoul>
-3.17263793945312

> <r_i_glide_erotb>
0.256092910927099

> <r_i_glide_esite>
0

> <r_i_glide_emodel>
-71.8101492184148

> <r_i_glide_energy>
-48.6775588989258

> <r_i_glide_einternal>
2.97907400131226

> <i_i_glide_confnum>
4

> <i_i_glide_posenum>
154

> <r_i_glide_eff_state_penalty>
0

> <s_user_duplicate_titles>
164118

> <s_m_subgroup_title>
dock_pv

> <s_m_subgroupid>
dock_pv1

> <b_m_subgroup_collapsed>
0

$$$$
203552
                    3D
 Schrodinger Suite 2021-1.
 58 62  0  0  1  0            999 V2000
   31.2788   -1.2035   24.5379 C   0  0  0  0  0  0
   30.9142   -0.9723   25.8541 C   0  0  0  0  0  0
   31.5157   -1.6901   26.8920 C   0  0  0  0  0  0
   32.4771   -2.6608   26.5798 C   0  0  0  0  0  0
   32.8494   -2.8901   25.2561 C   0  0  0  0  0  0
   32.2386   -2.1654   24.2280 C   0  0  0  0  0  0
   32.6792   -2.2471   22.7743 C   0  0  0  0  0  0
   33.4773   -3.4238   22.3964 N   0  0  0  0  0  0
   32.8052   -4.1690   21.3239 C   0  0  0  0  0  0
   32.7925   -3.4353   19.9564 C   0  0  0  0  0  0
   34.2075   -3.0507   19.5027 C   0  0  0  0  0  0
   34.9276   -2.3077   20.6324 C   0  0  0  0  0  0
   34.8472   -3.0892   21.9676 C   0  0  0  0  0  0
   31.1509   -1.4342   28.3700 C   0  0  1  0  0  0
   31.0582    0.0245   28.8820 C   0  0  2  0  0  0
   29.5352    0.9364   28.4223 S   0  0  0  0  0  0
   28.4627   -0.4135   27.9936 C   0  0  0  0  0  0
   27.2144   -0.1421   27.4293 C   0  0  0  0  0  0
   26.3600   -1.1887   27.0858 C   0  0  0  0  0  0
   26.7388   -2.5085   27.3211 C   0  0  0  0  0  0
   27.9811   -2.7987   27.8631 C   0  0  0  0  0  0
   28.8301   -1.7544   28.2086 C   0  0  0  0  0  0
   30.0058   -2.1422   28.7943 O   0  0  0  0  0  0
   25.1523   -0.9420   26.4966 O   0  0  0  0  0  0
   32.3477    0.7678   28.5810 C   0  0  0  0  0  0
   33.4551    0.5607   29.4087 C   0  0  0  0  0  0
   34.6925    1.0689   29.0404 C   0  0  0  0  0  0
   34.8007    1.8032   27.8637 C   0  0  0  0  0  0
   33.6997    2.0565   27.0596 C   0  0  0  0  0  0
   32.4714    1.5248   27.4135 C   0  0  0  0  0  0
   36.0122    2.2577   27.4642 O   0  0  0  0  0  0
   31.9632   -1.8919   28.9389 H   0  0  0  0  0  0
   30.9766   -0.0189   29.9698 H   0  0  0  0  0  0
   30.8226   -0.6104   23.7579 H   0  0  0  0  0  0
   30.1758   -0.2116   26.0414 H   0  0  0  0  0  0
   32.9588   -3.2287   27.3625 H   0  0  0  0  0  0
   33.6170   -3.6172   25.0335 H   0  0  0  0  0  0
   33.2600   -1.3418   22.6435 H   0  0  0  0  0  0
   31.7919   -2.1305   22.1499 H   0  0  0  0  0  0
   31.7844   -4.4061   21.6310 H   0  0  0  0  0  0
   33.2980   -5.1360   21.2137 H   0  0  0  0  0  0
   32.1335   -2.5667   19.9857 H   0  0  0  0  0  0
   32.3477   -4.0968   19.2121 H   0  0  0  0  0  0
   34.7679   -3.9510   19.2444 H   0  0  0  0  0  0
   34.1659   -2.4370   18.6019 H   0  0  0  0  0  0
   35.9743   -2.1626   20.3643 H   0  0  0  0  0  0
   34.5207   -1.3047   20.7422 H   0  0  0  0  0  0
   35.3510   -2.5422   22.7637 H   0  0  0  0  0  0
   35.3920   -4.0285   21.8629 H   0  0  0  0  0  0
   26.9077    0.8772   27.2464 H   0  0  0  0  0  0
   26.0682   -3.3186   27.0760 H   0  0  0  0  0  0
   28.2776   -3.8236   28.0313 H   0  0  0  0  0  0
   24.8268   -1.7721   26.1033 H   0  0  0  0  0  0
   33.3750   -0.0434   30.3014 H   0  0  0  0  0  0
   35.5625    0.8764   29.6519 H   0  0  0  0  0  0
   33.8107    2.6236   26.1476 H   0  0  0  0  0  0
   31.6317    1.6697   26.7519 H   0  0  0  0  0  0
   36.7263    1.9094   28.0175 H   0  0  0  0  0  0
  1  6  1  0  0  0
  1  2  2  0  0  0
  1 34  1  0  0  0
  2  3  1  0  0  0
  2 35  1  0  0  0
  3  4  2  0  0  0
  3 14  1  0  0  0
  4  5  1  0  0  0
  4 36  1  0  0  0
  5  6  2  0  0  0
  5 37  1  0  0  0
  6  7  1  0  0  0
  7  8  1  0  0  0
  7 38  1  0  0  0
  7 39  1  0  0  0
  8 13  1  0  0  0
  8  9  1  0  0  0
  9 10  1  0  0  0
  9 40  1  0  0  0
  9 41  1  0  0  0
 10 11  1  0  0  0
 10 42  1  0  0  0
 10 43  1  0  0  0
 11 12  1  0  0  0
 11 44  1  0  0  0
 11 45  1  0  0  0
 12 13  1  0  0  0
 12 46  1  0  0  0
 12 47  1  0  0  0
 13 48  1  0  0  0
 13 49  1  0  0  0
 14 32  1  0  0  0
 14 23  1  0  0  0
 14 15  1  0  0  0
 15 33  1  0  0  0
 15 16  1  0  0  0
 15 25  1  0  0  0
 16 17  1  0  0  0
 17 22  2  0  0  0
 17 18  1  0  0  0
 18 19  2  0  0  0
 18 50  1  0  0  0
 19 20  1  0  0  0
 19 24  1  0  0  0
 20 21  2  0  0  0
 20 51  1  0  0  0
 21 22  1  0  0  0
 21 52  1  0  0  0
 22 23  1  0  0  0
 24 53  1  0  0  0
 25 30  1  0  0  0
 25 26  2  0  0  0
 26 27  1  0  0  0
 26 54  1  0  0  0
 27 28  2  0  0  0
 27 55  1  0  0  0
 28 29  1  0  0  0
 28 31  1  0  0  0
 29 30  2  0  0  0
 29 56  1  0  0  0
 30 57  1  0  0  0
 31 58  1  0  0  0
M  END
> <s_m_entry_id>
17094

> <s_m_entry_name>
ligand_docking-pose.21

> <s_m_Source_Path>
/home/csk/Desktop/cluster/DUD-E-result/esr1

> <s_m_Source_File>
ligand_docking-pose.sdf

> <i_m_Source_File_Index>
21

> <i_lp_mmshare_version>
53161

> <i_f3d_flags>
0

> <r_lp_tautomer_probability>
0.999999999997365

> <s_lp_Force_Field>
OPLS_2005

> <r_lp_Energy>
32.62158

> <b_lp_Chiralities_Consistent>
1

> <s_lp_Variant>
203552-1

> <s_i_glide_gridfile>
glide-grid_1sj0

> <i_i_glide_lignum>
582

> <i_i_glide_rotatable_bonds>
6

> <r_i_docking_score>
-10.7244552039734

> <r_i_glide_ligand_efficiency>
-0.34595016787011

> <r_i_glide_ligand_efficiency_sa>
-1.08676116279474

> <r_i_glide_ligand_efficiency_ln>
-2.41869331357682

> <r_i_glide_gscore>
-10.7244552039734

> <r_i_glide_lipo>
-5.55715817981204

> <r_i_glide_hbond>
-0.47111955710978

> <r_i_glide_metal>
0

> <r_i_glide_rewards>
-1.35297627272727

> <r_i_glide_evdw>
-49.3667602539062

> <r_i_glide_ecoul>
-7.8093638420105

> <r_i_glide_erotb>
0.296541394672579

> <r_i_glide_esite>
0

> <r_i_glide_emodel>
-75.8713581717647

> <r_i_glide_energy>
-57.1761240959167

> <r_i_glide_einternal>
14.2304048538208

> <i_i_glide_confnum>
10

> <i_i_glide_posenum>
253

> <r_i_glide_eff_state_penalty>
0

> <s_user_duplicate_titles>
203552

> <s_m_subgroup_title>
dock_pv

> <s_m_subgroupid>
dock_pv1

> <b_m_subgroup_collapsed>
0

$$$$
164228
                    3D
 Schrodinger Suite 2021-1.
 65 69  0  0  1  0            999 V2000
   30.5641   -1.9426   28.9953 C   0  0  0  0  0  0
   30.4994   -0.9833   27.7749 C   0  0  1  0  0  0
   28.9794   -0.8398   27.4796 C   0  0  0  0  0  0
   28.2202   -1.9570   27.1042 C   0  0  0  0  0  0
   26.8492   -1.8718   26.9230 C   0  0  0  0  0  0
   26.2006   -0.6546   27.0686 C   0  0  0  0  0  0
   26.9253    0.4626   27.4634 C   0  0  0  0  0  0
   28.3021    0.3870   27.6716 C   0  0  0  0  0  0
   29.0665    1.6155   28.1264 C   0  0  0  0  0  0
   30.3009    1.2004   28.9256 C   0  0  0  0  0  0
   31.1102    0.3408   28.0611 N   0  0  0  0  0  0
   32.4499    0.6429   27.9606 C   0  0  0  0  0  0
   32.8209    1.7446   27.1948 C   0  0  0  0  0  0
   34.1420    2.1676   27.1312 C   0  0  0  0  0  0
   35.1067    1.4844   27.8610 C   0  0  0  0  0  0
   34.7354    0.3837   28.6298 C   0  0  0  0  0  0
   33.4175   -0.0285   28.6986 C   0  0  0  0  0  0
   35.6600   -0.3130   29.3269 O   0  0  0  0  0  0
   24.8674   -0.5420   26.7892 O   0  0  0  0  0  0
   31.2215   -1.6050   26.5368 C   0  0  0  0  0  0
   32.2203   -2.5852   26.6640 C   0  0  0  0  0  0
   32.8260   -3.1432   25.5424 C   0  0  0  0  0  0
   32.4518   -2.7448   24.2641 C   0  0  0  0  0  0
   31.5205   -1.7076   24.1274 C   0  0  0  0  0  0
   30.9121   -1.1486   25.2480 C   0  0  0  0  0  0
   33.0333   -3.4202   23.2096 O   0  0  0  0  0  0
   32.3848   -3.4275   21.9328 C   0  0  0  0  0  0
   33.3150   -3.9694   20.8307 C   0  0  0  0  0  0
   34.3908   -3.0226   20.5180 N   0  0  0  0  0  0
   35.4654   -2.9942   21.4974 C   0  0  0  0  0  0
   36.5806   -2.2024   20.8152 C   0  0  0  0  0  0
   36.3673   -2.4835   19.3255 C   0  0  0  0  0  0
   35.0993   -3.3411   19.2862 C   0  0  0  0  0  0
   30.0625   -2.8895   28.7718 H   0  0  0  0  0  0
   31.5722   -2.1444   29.3342 H   0  0  0  0  0  0
   30.0602   -1.5493   29.8638 H   0  0  0  0  0  0
   28.6960   -2.9179   26.9772 H   0  0  0  0  0  0
   26.2972   -2.7575   26.6638 H   0  0  0  0  0  0
   26.4288    1.4129   27.5872 H   0  0  0  0  0  0
   28.4366    2.2651   28.7304 H   0  0  0  0  0  0
   29.3661    2.2019   27.2563 H   0  0  0  0  0  0
   30.0523    0.7099   29.8649 H   0  0  0  0  0  0
   30.8508    2.1031   29.1988 H   0  0  0  0  0  0
   32.0604    2.2580   26.6456 H   0  0  0  0  0  0
   34.4116    3.0150   26.5217 H   0  0  0  0  0  0
   36.1324    1.8116   27.8057 H   0  0  0  0  0  0
   33.1713   -0.8538   29.3419 H   0  0  0  0  0  0
   36.5349    0.0737   29.1787 H   0  0  0  0  0  0
   24.6031    0.3813   26.6851 H   0  0  0  0  0  0
   32.5453   -2.9415   27.6276 H   0  0  0  0  0  0
   33.5655   -3.9212   25.6604 H   0  0  0  0  0  0
   31.2429   -1.3281   23.1615 H   0  0  0  0  0  0
   30.1845   -0.3613   25.1103 H   0  0  0  0  0  0
   32.0550   -2.4393   21.6166 H   0  0  0  0  0  0
   31.4960   -4.0566   21.9959 H   0  0  0  0  0  0
   32.7151   -4.1379   19.9350 H   0  0  0  0  0  0
   33.7205   -4.9438   21.1099 H   0  0  0  0  0  0
   35.7612   -3.9984   21.7944 H   0  0  0  0  0  0
   35.1217   -2.5392   22.4241 H   0  0  0  0  0  0
   37.5669   -2.5260   21.1464 H   0  0  0  0  0  0
   36.4896   -1.1417   21.0537 H   0  0  0  0  0  0
   36.2358   -1.5603   18.7596 H   0  0  0  0  0  0
   37.2119   -3.0209   18.8938 H   0  0  0  0  0  0
   34.4576   -3.1009   18.4361 H   0  0  0  0  0  0
   35.3123   -4.4101   19.1934 H   0  0  0  0  0  0
  1  2  1  0  0  0
  1 34  1  0  0  0
  1 35  1  0  0  0
  1 36  1  0  0  0
  2 11  1  0  0  0
  2  3  1  0  0  0
  2 20  1  0  0  0
  3  8  2  0  0  0
  3  4  1  0  0  0
  4  5  2  0  0  0
  4 37  1  0  0  0
  5  6  1  0  0  0
  5 38  1  0  0  0
  6  7  2  0  0  0
  6 19  1  0  0  0
  7  8  1  0  0  0
  7 39  1  0  0  0
  8  9  1  0  0  0
  9 10  1  0  0  0
  9 40  1  0  0  0
  9 41  1  0  0  0
 10 11  1  0  0  0
 10 42  1  0  0  0
 10 43  1  0  0  0
 11 12  1  0  0  0
 12 17  1  0  0  0
 12 13  2  0  0  0
 13 14  1  0  0  0
 13 44  1  0  0  0
 14 15  2  0  0  0
 14 45  1  0  0  0
 15 16  1  0  0  0
 15 46  1  0  0  0
 16 17  2  0  0  0
 16 18  1  0  0  0
 17 47  1  0  0  0
 18 48  1  0  0  0
 19 49  1  0  0  0
 20 25  1  0  0  0
 20 21  2  0  0  0
 21 22  1  0  0  0
 21 50  1  0  0  0
 22 23  2  0  0  0
 22 51  1  0  0  0
 23 24  1  0  0  0
 23 26  1  0  0  0
 24 25  2  0  0  0
 24 52  1  0  0  0
 25 53  1  0  0  0
 26 27  1  0  0  0
 27 28  1  0  0  0
 27 54  1  0  0  0
 27 55  1  0  0  0
 28 29  1  0  0  0
 28 56  1  0  0  0
 28 57  1  0  0  0
 29 33  1  0  0  0
 29 30  1  0  0  0
 30 31  1  0  0  0
 30 58  1  0  0  0
 30 59  1  0  0  0
 31 32  1  0  0  0
 31 60  1  0  0  0
 31 61  1  0  0  0
 32 33  1  0  0  0
 32 62  1  0  0  0
 32 63  1  0  0  0
 33 64  1  0  0  0
 33 65  1  0  0  0
M  END
> <s_m_entry_id>
17095

> <s_m_entry_name>
ligand_docking-pose.22

> <s_m_Source_Path>
/home/csk/Desktop/cluster/DUD-E-result/esr1

> <s_m_Source_File>
ligand_docking-pose.sdf

> <i_m_Source_File_Index>
22

> <i_lp_mmshare_version>
53161

> <i_f3d_flags>
0

> <r_lp_tautomer_probability>
0.99999999999473

> <s_lp_Force_Field>
OPLS_2005

> <r_lp_Energy>
56.794104

> <b_lp_Chiralities_Consistent>
1

> <s_lp_Variant>
164228-2

> <s_i_glide_gridfile>
glide-grid_1sj0

> <i_i_glide_lignum>
900

> <i_i_glide_rotatable_bonds>
8

> <r_i_docking_score>
-10.7223711849697

> <r_i_glide_ligand_efficiency>
-0.324920338938477

> <r_i_glide_ligand_efficiency_sa>
-1.04219314044436

> <r_i_glide_ligand_efficiency_ln>
-2.3845998340705

> <r_i_glide_gscore>
-10.7223711849697

> <r_i_glide_lipo>
-5.83334935917702

> <r_i_glide_hbond>
-0.665169012414669

> <r_i_glide_metal>
0

> <r_i_glide_rewards>
-1.18687478858226

> <r_i_glide_evdw>
-49.5326461791992

> <r_i_glide_ecoul>
-7.10897207260132

> <r_i_glide_erotb>
0.506000095054377

> <r_i_glide_esite>
0

> <r_i_glide_emodel>
-71.4971012039578

> <r_i_glide_energy>
-56.6416182518005

> <r_i_glide_einternal>
13.1762580871582

> <i_i_glide_confnum>
1

> <i_i_glide_posenum>
125

> <r_i_glide_eff_state_penalty>
0

> <s_user_duplicate_titles>
164228

> <s_m_subgroup_title>
dock_pv

> <s_m_subgroupid>
dock_pv1

> <b_m_subgroup_collapsed>
0

$$$$
326094
                    3D
 Schrodinger Suite 2021-1.
 55 59  0  0  1  0            999 V2000
   32.6649   -2.5391   18.7094 C   0  0  0  0  0  0
   33.6492   -3.6179   18.6558 N   0  0  0  0  0  0
   33.2202   -4.5955   17.6577 C   0  0  0  0  0  0
   33.8170   -4.2876   19.9549 C   0  0  0  0  0  0
   34.4283   -3.4027   21.0652 C   0  0  0  0  0  0
   33.4326   -2.5420   21.6338 O   0  0  0  0  0  0
   33.0834   -2.5755   22.9722 C   0  0  0  0  0  0
   33.6600   -3.4022   23.9351 C   0  0  0  0  0  0
   33.1729   -3.4257   25.2316 C   0  0  0  0  0  0
   32.0599   -2.6647   25.5748 C   0  0  0  0  0  0
   31.5313   -1.7614   24.6559 C   0  0  0  0  0  0
   32.0600   -1.7193   23.3719 C   0  0  0  0  0  0
   31.4095   -2.8761   26.9298 C   0  0  0  0  0  0
   31.3056   -1.6591   27.7090 N   0  0  0  0  0  0
   32.4026   -1.0958   28.3496 C   0  0  0  0  0  0
   33.6600   -1.5936   28.6640 C   0  0  0  0  0  0
   34.5910   -0.6818   29.1497 C   0  0  0  0  0  0
   34.2684    0.6445   29.3876 C   0  0  0  0  0  0
   32.9742    1.1257   29.1735 C   0  0  0  0  0  0
   32.0440    0.2373   28.6383 C   0  0  0  0  0  0
   30.7107    0.3880   28.2803 C   0  0  0  0  0  0
   30.2387   -0.7974   27.7703 C   0  0  0  0  0  0
   28.8746   -0.7758   27.4679 C   0  0  0  0  0  0
   28.0572   -1.8415   27.0635 C   0  0  0  0  0  0
   26.6940   -1.6034   26.9265 C   0  0  0  0  0  0
   26.1480   -0.3393   27.1323 C   0  0  0  0  0  0
   26.9519    0.7464   27.4640 C   0  0  0  0  0  0
   28.3115    0.5176   27.6822 C   0  0  0  0  0  0
   29.5303    1.6492   28.2879 S   0  0  0  0  0  0
   24.7988   -0.1420   27.0366 O   0  0  0  0  0  0
   35.2599    1.4580   29.8389 O   0  0  0  0  0  0
   32.5170   -2.0941   17.7241 H   0  0  0  0  0  0
   33.0084   -1.7418   19.3647 H   0  0  0  0  0  0
   31.6971   -2.8894   19.0741 H   0  0  0  0  0  0
   33.1412   -4.1334   16.6726 H   0  0  0  0  0  0
   33.9423   -5.4090   17.5746 H   0  0  0  0  0  0
   32.2495   -5.0308   17.9038 H   0  0  0  0  0  0
   32.8599   -4.6798   20.2998 H   0  0  0  0  0  0
   34.4612   -5.1586   19.8240 H   0  0  0  0  0  0
   34.9399   -4.0518   21.7673 H   0  0  0  0  0  0
   35.2124   -2.7708   20.6463 H   0  0  0  0  0  0
   34.4600   -4.0706   23.7088 H   0  0  0  0  0  0
   33.6090   -4.1204   25.9338 H   0  0  0  0  0  0
   30.6931   -1.1304   24.9144 H   0  0  0  0  0  0
   31.6600   -1.0230   22.6640 H   0  0  0  0  0  0
   30.4382   -3.3420   26.8243 H   0  0  0  0  0  0
   32.0596   -3.5616   27.4640 H   0  0  0  0  0  0
   33.9246   -2.6272   28.5013 H   0  0  0  0  0  0
   35.5919   -1.0285   29.3646 H   0  0  0  0  0  0
   32.6907    2.1446   29.3675 H   0  0  0  0  0  0
   28.4302   -2.8415   26.9211 H   0  0  0  0  0  0
   26.0600   -2.4325   26.6641 H   0  0  0  0  0  0
   26.5234    1.7221   27.6354 H   0  0  0  0  0  0
   24.5612    0.8042   27.0640 H   0  0  0  0  0  0
   36.1455    1.2155   29.5293 H   0  0  0  0  0  0
  1  2  1  0  0  0
  1 32  1  0  0  0
  1 33  1  0  0  0
  1 34  1  0  0  0
  2  3  1  0  0  0
  2  4  1  0  0  0
  3 35  1  0  0  0
  3 36  1  0  0  0
  3 37  1  0  0  0
  4  5  1  0  0  0
  4 38  1  0  0  0
  4 39  1  0  0  0
  5  6  1  0  0  0
  5 40  1  0  0  0
  5 41  1  0  0  0
  6  7  1  0  0  0
  7 12  1  0  0  0
  7  8  2  0  0  0
  8  9  1  0  0  0
  8 42  1  0  0  0
  9 10  2  0  0  0
  9 43  1  0  0  0
 10 11  1  0  0  0
 10 13  1  0  0  0
 11 12  2  0  0  0
 11 44  1  0  0  0
 12 45  1  0  0  0
 13 14  1  0  0  0
 13 46  1  0  0  0
 13 47  1  0  0  0
 14 22  1  0  0  0
 14 15  1  0  0  0
 15 20  2  0  0  0
 15 16  1  0  0  0
 16 17  2  0  0  0
 16 48  1  0  0  0
 17 18  1  0  0  0
 17 49  1  0  0  0
 18 19  2  0  0  0
 18 31  1  0  0  0
 19 20  1  0  0  0
 19 50  1  0  0  0
 20 21  1  0  0  0
 21 29  1  0  0  0
 21 22  2  0  0  0
 22 23  1  0  0  0
 23 28  2  0  0  0
 23 24  1  0  0  0
 24 25  2  0  0  0
 24 51  1  0  0  0
 25 26  1  0  0  0
 25 52  1  0  0  0
 26 27  2  0  0  0
 26 30  1  0  0  0
 27 28  1  0  0  0
 27 53  1  0  0  0
 28 29  1  0  0  0
 30 54  1  0  0  0
 31 55  1  0  0  0
M  END
> <s_m_entry_id>
17096

> <s_m_entry_name>
ligand_docking-pose.23

> <s_m_Source_Path>
/home/csk/Desktop/cluster/DUD-E-result/esr1

> <s_m_Source_File>
ligand_docking-pose.sdf

> <i_m_Source_File_Index>
23

> <i_lp_mmshare_version>
53161

> <i_f3d_flags>
0

> <r_lp_tautomer_probability>
1

> <s_lp_Force_Field>
OPLS_2005

> <r_lp_Energy>
51.821485

> <b_lp_Chiralities_Consistent>
1

> <s_lp_Variant>
326094-1

> <s_i_glide_gridfile>
glide-grid_1sj0

> <i_i_glide_lignum>
1741

> <i_i_glide_rotatable_bonds>
8

> <r_i_docking_score>
-10.7172031423827

> <r_i_glide_ligand_efficiency>
-0.345716230399443

> <r_i_glide_ligand_efficiency_sa>
-1.08602627615136

> <r_i_glide_ligand_efficiency_ln>
-2.41705775143913

> <r_i_glide_gscore>
-10.7172031423827

> <r_i_glide_lipo>
-5.56722298795003

> <r_i_glide_hbond>
-0.629239654738474

> <r_i_glide_metal>
0

> <r_i_glide_rewards>
-1.44782997968584

> <r_i_glide_evdw>
-33.3185997009277

> <r_i_glide_ecoul>
-12.9253435134888

> <r_i_glide_erotb>
0.531820992061313

> <r_i_glide_esite>
0

> <r_i_glide_emodel>
-60.4110189598413

> <r_i_glide_energy>
-46.2439432144165

> <r_i_glide_einternal>
8.14600467681885

> <i_i_glide_confnum>
18

> <i_i_glide_posenum>
186

> <r_i_glide_eff_state_penalty>
0

> <s_user_duplicate_titles>
326094

> <s_m_subgroup_title>
dock_pv

> <s_m_subgroupid>
dock_pv1

> <b_m_subgroup_collapsed>
0

$$$$
250730
                    3D
 Schrodinger Suite 2021-1.
 44 46  0  0  1  0            999 V2000
   35.2600    1.5195   27.5829 C   0  0  0  0  0  0
   34.1974    2.1728   26.9720 C   0  0  0  0  0  0
   32.9169    1.6646   27.1042 C   0  0  0  0  0  0
   32.7085    0.4895   27.8179 C   0  0  0  0  0  0
   33.7758   -0.1643   28.4379 C   0  0  0  0  0  0
   35.0574    0.3568   28.3218 C   0  0  0  0  0  0
   31.3334    0.0244   28.0151 C   0  0  0  0  0  0
   30.7923   -0.9529   27.2379 C   0  0  0  0  0  0
   29.4109   -1.4551   27.3993 C   0  0  0  0  0  0
   29.2243   -2.7992   27.7245 C   0  0  0  0  0  0
   27.9547   -3.3279   27.8640 C   0  0  0  0  0  0
   26.8602   -2.4977   27.6988 C   0  0  0  0  0  0
   27.0130   -1.1521   27.3693 C   0  0  0  0  0  0
   28.2954   -0.6298   27.2114 C   0  0  0  0  0  0
   25.6258   -3.0373   27.8640 O   0  0  0  0  0  0
   31.5410   -1.6173   26.1416 C   0  0  0  0  0  0
   32.4838   -2.6100   26.4279 C   0  0  0  0  0  0
   33.1360   -3.2713   25.3907 C   0  0  0  0  0  0
   32.8525   -2.9420   24.0703 C   0  0  0  0  0  0
   31.9194   -1.9528   23.7740 C   0  0  0  0  0  0
   31.2598   -1.2946   24.8097 C   0  0  0  0  0  0
   33.4844   -3.6180   23.0626 O   0  0  0  0  0  0
   30.6113    0.7497   29.1538 C   0  0  0  0  0  0
   31.3140    0.6983   30.5264 C   0  0  0  0  0  0
   32.4079    1.4567   30.5756 F   0  0  0  0  0  0
   30.4994    1.1574   31.4640 F   0  0  0  0  0  0
   31.6600   -0.5419   30.8702 F   0  0  0  0  0  0
   36.2616    1.9059   27.4640 H   0  0  0  0  0  0
   34.3669    3.0580   26.3860 H   0  0  0  0  0  0
   32.0830    2.1830   26.6640 H   0  0  0  0  0  0
   33.6129   -1.0602   29.0197 H   0  0  0  0  0  0
   35.8941   -0.1419   28.7899 H   0  0  0  0  0  0
   30.0600   -3.4564   27.8592 H   0  0  0  0  0  0
   27.8234   -4.3724   28.1064 H   0  0  0  0  0  0
   26.1467   -0.5214   27.2321 H   0  0  0  0  0  0
   28.4200    0.4098   26.9448 H   0  0  0  0  0  0
   25.2599   -3.3171   26.9923 H   0  0  0  0  0  0
   32.6987   -2.8822   27.4509 H   0  0  0  0  0  0
   33.8433   -4.0581   25.5981 H   0  0  0  0  0  0
   31.6888   -1.7089   22.7482 H   0  0  0  0  0  0
   30.5208   -0.5418   24.5762 H   0  0  0  0  0  0
   33.1273   -3.4292   22.1917 H   0  0  0  0  0  0
   30.4820    1.7932   28.8648 H   0  0  0  0  0  0
   29.6052    0.3637   29.2661 H   0  0  0  0  0  0
  1  6  1  0  0  0
  1  2  2  0  0  0
  1 28  1  0  0  0
  2  3  1  0  0  0
  2 29  1  0  0  0
  3  4  2  0  0  0
  3 30  1  0  0  0
  4  5  1  0  0  0
  4  7  1  0  0  0
  5  6  2  0  0  0
  5 31  1  0  0  0
  6 32  1  0  0  0
  7  8  2  3  0  0
  7 23  1  0  0  0
  8  9  1  0  0  0
  8 16  1  0  0  0
  9 14  1  0  0  0
  9 10  2  0  0  0
 10 11  1  0  0  0
 10 33  1  0  0  0
 11 12  2  0  0  0
 11 34  1  0  0  0
 12 13  1  0  0  0
 12 15  1  0  0  0
 13 14  2  0  0  0
 13 35  1  0  0  0
 14 36  1  0  0  0
 15 37  1  0  0  0
 16 21  1  0  0  0
 16 17  2  0  0  0
 17 18  1  0  0  0
 17 38  1  0  0  0
 18 19  2  0  0  0
 18 39  1  0  0  0
 19 20  1  0  0  0
 19 22  1  0  0  0
 20 21  2  0  0  0
 20 40  1  0  0  0
 21 41  1  0  0  0
 22 42  1  0  0  0
 23 24  1  0  0  0
 23 43  1  0  0  0
 23 44  1  0  0  0
 24 25  1  0  0  0
 24 26  1  0  0  0
 24 27  1  0  0  0
M  END
> <s_m_entry_id>
17097

> <s_m_entry_name>
ligand_docking-pose.24

> <s_m_Source_Path>
/home/csk/Desktop/cluster/DUD-E-result/esr1

> <s_m_Source_File>
ligand_docking-pose.sdf

> <i_m_Source_File_Index>
24

> <i_lp_mmshare_version>
53161

> <i_f3d_flags>
0

> <r_lp_tautomer_probability>
1

> <s_lp_Force_Field>
OPLS_2005

> <r_lp_Energy>
27.824818

> <b_lp_Chiralities_Consistent>
1

> <s_lp_Variant>
250730-1

> <s_i_glide_gridfile>
glide-grid_1sj0

> <i_i_glide_lignum>
411

> <i_i_glide_rotatable_bonds>
7

> <r_i_docking_score>
-10.7086569039005

> <r_i_glide_ligand_efficiency>
-0.396616922366685

> <r_i_glide_ligand_efficiency_sa>
-1.18985076579287

> <r_i_glide_ligand_efficiency_ln>
-2.49279878122115

> <r_i_glide_gscore>
-10.7086569039005

> <r_i_glide_lipo>
-5.2345918412111

> <r_i_glide_hbond>
-0.16

> <r_i_glide_metal>
0

> <r_i_glide_rewards>
-2.73613638281277

> <r_i_glide_evdw>
-39.5184326171875

> <r_i_glide_ecoul>
-7.76372480392456

> <r_i_glide_erotb>
0.562551671571446

> <r_i_glide_esite>
0

> <r_i_glide_emodel>
-71.5737008026996

> <r_i_glide_energy>
-47.2821574211121

> <r_i_glide_einternal>
11.0385599136353

> <i_i_glide_confnum>
3

> <i_i_glide_posenum>
319

> <r_i_glide_eff_state_penalty>
0

> <s_user_duplicate_titles>
250730

> <s_m_subgroup_title>
dock_pv

> <s_m_subgroupid>
dock_pv1

> <b_m_subgroup_collapsed>
0

$$$$
164096
                    3D
 Schrodinger Suite 2021-1.
 70 74  0  0  1  0            999 V2000
   30.8729   -1.5841   29.1822 C   0  0  0  0  0  0
   30.6846   -0.7681   27.8775 C   0  0  1  0  0  0
   29.1487   -0.7165   27.5938 C   0  0  0  0  0  0
   28.4302   -1.8687   27.2217 C   0  0  0  0  0  0
   27.0597   -1.8281   26.9641 C   0  0  0  0  0  0
   26.3730   -0.6254   27.0690 C   0  0  0  0  0  0
   27.0527    0.5181   27.4639 C   0  0  0  0  0  0
   28.4242    0.4908   27.7217 C   0  0  0  0  0  0
   29.1351    1.7698   28.1162 C   0  0  0  0  0  0
   30.4196    1.4733   28.8894 C   0  0  0  0  0  0
   31.2503    0.5961   28.0608 N   0  0  0  0  0  0
   32.5886    0.9159   27.9487 C   0  0  0  0  0  0
   33.5644    0.4518   28.8364 C   0  0  0  0  0  0
   34.8836    0.8618   28.6778 C   0  0  0  0  0  0
   35.2211    1.7473   27.6545 C   0  0  0  0  0  0
   34.2400    2.2433   26.8042 C   0  0  0  0  0  0
   32.9326    1.8347   26.9629 C   0  0  0  0  0  0
   25.0424   -0.5420   26.7608 O   0  0  0  0  0  0
   31.3859   -1.4621   26.6651 C   0  0  0  0  0  0
   31.1480   -0.9895   25.3651 C   0  0  0  0  0  0
   31.7671   -1.5767   24.2624 C   0  0  0  0  0  0
   32.6546   -2.6475   24.4371 C   0  0  0  0  0  0
   32.8887   -3.1237   25.7218 C   0  0  0  0  0  0
   32.2727   -2.5399   26.8213 C   0  0  0  0  0  0
   33.3442   -3.2857   23.4231 O   0  0  0  0  0  0
   33.2156   -2.8301   22.0769 C   0  0  0  0  0  0
   34.3363   -3.4461   21.1976 C   0  0  0  0  0  0
   35.2770   -2.4395   20.6740 N   0  0  0  0  0  0
   36.6066   -3.0047   20.4270 C   0  0  0  0  0  0
   37.6213   -2.1988   19.5896 C   0  0  0  0  0  0
   37.4240   -2.3144   18.0641 C   0  0  0  0  0  0
   36.1588   -1.6496   17.4933 C   0  0  0  0  0  0
   34.8263   -2.0701   18.1456 C   0  0  0  0  0  0
   34.6807   -1.6209   19.6128 C   0  0  0  0  0  0
   30.3794   -2.5420   29.0921 H   0  0  0  0  0  0
   31.9112   -1.7627   29.4422 H   0  0  0  0  0  0
   30.4603   -1.0916   30.0503 H   0  0  0  0  0  0
   28.9467   -2.8130   27.1164 H   0  0  0  0  0  0
   26.5335   -2.7227   26.6607 H   0  0  0  0  0  0
   26.5158    1.4537   27.5429 H   0  0  0  0  0  0
   28.4808    2.4093   28.7073 H   0  0  0  0  0  0
   29.3803    2.3179   27.2075 H   0  0  0  0  0  0
   30.2180    1.0618   29.8784 H   0  0  0  0  0  0
   30.9323    2.4215   29.0638 H   0  0  0  0  0  0
   33.3134   -0.2043   29.6533 H   0  0  0  0  0  0
   35.6572    0.4938   29.3372 H   0  0  0  0  0  0
   36.2467    2.0467   27.5062 H   0  0  0  0  0  0
   34.4671    2.9227   26.0017 H   0  0  0  0  0  0
   32.1892    2.2254   26.2961 H   0  0  0  0  0  0
   24.7567    0.3756   26.6687 H   0  0  0  0  0  0
   30.4774   -0.1567   25.2102 H   0  0  0  0  0  0
   31.5502   -1.1819   23.2835 H   0  0  0  0  0  0
   33.5652   -3.9534   25.8637 H   0  0  0  0  0  0
   32.5143   -2.9427   27.7890 H   0  0  0  0  0  0
   33.2771   -1.7442   22.0610 H   0  0  0  0  0  0
   32.2357   -3.1152   21.6913 H   0  0  0  0  0  0
   33.9081   -4.0252   20.3765 H   0  0  0  0  0  0
   34.8787   -4.1661   21.8114 H   0  0  0  0  0  0
   37.0409   -3.3419   21.3653 H   0  0  0  0  0  0
   36.4290   -3.9183   19.8578 H   0  0  0  0  0  0
   38.6282   -2.5353   19.8382 H   0  0  0  0  0  0
   37.5692   -1.1442   19.8663 H   0  0  0  0  0  0
   37.4314   -3.3699   17.7822 H   0  0  0  0  0  0
   38.2925   -1.8789   17.5666 H   0  0  0  0  0  0
   36.2657   -0.5652   17.5646 H   0  0  0  0  0  0
   36.1072   -1.8659   16.4244 H   0  0  0  0  0  0
   34.0023   -1.6577   17.5632 H   0  0  0  0  0  0
   34.7464   -3.1576   18.0852 H   0  0  0  0  0  0
   35.2298   -0.6804   19.6801 H   0  0  0  0  0  0
   33.6593   -1.3422   19.8474 H   0  0  0  0  0  0
  1  2  1  0  0  0
  1 35  1  0  0  0
  1 36  1  0  0  0
  1 37  1  0  0  0
  2 11  1  0  0  0
  2  3  1  0  0  0
  2 19  1  0  0  0
  3  8  2  0  0  0
  3  4  1  0  0  0
  4  5  2  0  0  0
  4 38  1  0  0  0
  5  6  1  0  0  0
  5 39  1  0  0  0
  6  7  2  0  0  0
  6 18  1  0  0  0
  7  8  1  0  0  0
  7 40  1  0  0  0
  8  9  1  0  0  0
  9 10  1  0  0  0
  9 41  1  0  0  0
  9 42  1  0  0  0
 10 11  1  0  0  0
 10 43  1  0  0  0
 10 44  1  0  0  0
 11 12  1  0  0  0
 12 17  1  0  0  0
 12 13  2  0  0  0
 13 14  1  0  0  0
 13 45  1  0  0  0
 14 15  2  0  0  0
 14 46  1  0  0  0
 15 16  1  0  0  0
 15 47  1  0  0  0
 16 17  2  0  0  0
 16 48  1  0  0  0
 17 49  1  0  0  0
 18 50  1  0  0  0
 19 24  1  0  0  0
 19 20  2  0  0  0
 20 21  1  0  0  0
 20 51  1  0  0  0
 21 22  2  0  0  0
 21 52  1  0  0  0
 22 23  1  0  0  0
 22 25  1  0  0  0
 23 24  2  0  0  0
 23 53  1  0  0  0
 24 54  1  0  0  0
 25 26  1  0  0  0
 26 27  1  0  0  0
 26 55  1  0  0  0
 26 56  1  0  0  0
 27 28  1  0  0  0
 27 57  1  0  0  0
 27 58  1  0  0  0
 28 34  1  0  0  0
 28 29  1  0  0  0
 29 30  1  0  0  0
 29 59  1  0  0  0
 29 60  1  0  0  0
 30 31  1  0  0  0
 30 61  1  0  0  0
 30 62  1  0  0  0
 31 32  1  0  0  0
 31 63  1  0  0  0
 31 64  1  0  0  0
 32 33  1  0  0  0
 32 65  1  0  0  0
 32 66  1  0  0  0
 33 34  1  0  0  0
 33 67  1  0  0  0
 33 68  1  0  0  0
 34 69  1  0  0  0
 34 70  1  0  0  0
M  END
> <s_m_entry_id>
17098

> <s_m_entry_name>
ligand_docking-pose.25

> <s_m_Source_Path>
/home/csk/Desktop/cluster/DUD-E-result/esr1

> <s_m_Source_File>
ligand_docking-pose.sdf

> <i_m_Source_File_Index>
25

> <i_lp_mmshare_version>
53161

> <i_f3d_flags>
0

> <r_lp_tautomer_probability>
0.999999999997365

> <s_lp_Force_Field>
OPLS_2005

> <r_lp_Energy>
56.50204

> <b_lp_Chiralities_Consistent>
1

> <s_lp_Variant>
164096-2

> <s_i_glide_gridfile>
glide-grid_1sj0

> <i_i_glide_lignum>
898

> <i_i_glide_rotatable_bonds>
7

> <r_i_docking_score>
-10.7052477944833

> <r_i_glide_ligand_efficiency>
-0.314860229249508

> <r_i_glide_ligand_efficiency_sa>
-1.02002491323065

> <r_i_glide_ligand_efficiency_ln>
-2.3650895098311

> <r_i_glide_gscore>
-10.7052477944833

> <r_i_glide_lipo>
-6.33679113334516

> <r_i_glide_hbond>
-0.342196200462625

> <r_i_glide_metal>
0

> <r_i_glide_rewards>
-1.38710115146486

> <r_i_glide_evdw>
-52.749095916748

> <r_i_glide_ecoul>
-3.22452640533447

> <r_i_glide_erotb>
0.481974447426961

> <r_i_glide_esite>
0

> <r_i_glide_emodel>
-85.858053341772

> <r_i_glide_energy>
-55.9736223220825

> <r_i_glide_einternal>
7.25332736968994

> <i_i_glide_confnum>
1

> <i_i_glide_posenum>
9

> <r_i_glide_eff_state_penalty>
0

> <s_user_duplicate_titles>
164096

> <s_m_subgroup_title>
dock_pv

> <s_m_subgroupid>
dock_pv1

> <b_m_subgroup_collapsed>
0

$$$$
162446
                    3D
 Schrodinger Suite 2021-1.
 58 62  0  0  1  0            999 V2000
   35.1395    1.9821   28.0679 C   0  0  0  0  0  0
   34.2209    2.2568   27.0636 C   0  0  0  0  0  0
   33.0019    1.6020   27.0631 C   0  0  0  0  0  0
   32.6952    0.6802   28.0652 C   0  0  0  0  0  0
   33.6300    0.3995   29.0659 C   0  0  0  0  0  0
   34.8561    1.0559   29.0673 C   0  0  0  0  0  0
   31.4074   -0.0191   28.0301 C   0  0  0  0  0  0
   30.2495    0.6589   27.9548 C   0  0  0  0  0  0
   28.9851   -0.0388   27.7742 C   0  0  0  0  0  0
   27.8030    0.6359   27.4641 C   0  0  0  0  0  0
   26.6201   -0.0900   27.3458 C   0  0  0  0  0  0
   26.6272   -1.4752   27.4777 C   0  0  0  0  0  0
   27.8130   -2.1623   27.7093 C   0  0  0  0  0  0
   28.9857   -1.4355   27.8660 C   0  0  0  0  0  0
   30.1209   -2.1363   28.2183 O   0  0  0  0  0  0
   31.3894   -1.5457   27.8630 C   0  0  1  0  0  0
   31.8397   -2.0023   26.4781 C   0  0  0  0  0  0
   32.8601   -2.9413   26.3652 C   0  0  0  0  0  0
   33.2935   -3.3453   25.1091 C   0  0  0  0  0  0
   32.6812   -2.8779   23.9530 C   0  0  0  0  0  0
   31.6598   -1.9252   24.0645 C   0  0  0  0  0  0
   31.2454   -1.4867   25.3187 C   0  0  0  0  0  0
   33.1403   -3.4288   22.7736 O   0  0  0  0  0  0
   32.4293   -3.2201   21.5546 C   0  0  0  0  0  0
   33.3312   -3.5405   20.3464 C   0  0  0  0  0  0
   34.3898   -2.5347   20.1869 N   0  0  0  0  0  0
   34.9911   -2.5149   18.8631 C   0  0  0  0  0  0
   36.2503   -1.6528   19.0129 C   0  0  0  0  0  0
   36.5744   -1.7241   20.5091 C   0  0  0  0  0  0
   35.5461   -2.7138   21.0549 C   0  0  0  0  0  0
   25.4443   -2.1420   27.4641 O   0  0  0  0  0  0
   36.0828    2.4993   28.0703 H   0  0  0  0  0  0
   34.4577    2.9544   26.2758 H   0  0  0  0  0  0
   32.3064    1.7968   26.2646 H   0  0  0  0  0  0
   33.4127   -0.3199   29.8412 H   0  0  0  0  0  0
   35.5873    0.8488   29.8353 H   0  0  0  0  0  0
   30.2592    1.7391   28.0064 H   0  0  0  0  0  0
   27.7862    1.7113   27.3630 H   0  0  0  0  0  0
   25.6907    0.4242   27.1538 H   0  0  0  0  0  0
   27.8132   -3.2353   27.8242 H   0  0  0  0  0  0
   32.0911   -1.9577   28.5899 H   0  0  0  0  0  0
   33.3255   -3.3549   27.2477 H   0  0  0  0  0  0
   34.0798   -4.0806   25.0289 H   0  0  0  0  0  0
   31.1629   -1.5227   23.1989 H   0  0  0  0  0  0
   30.4501   -0.7581   25.3871 H   0  0  0  0  0  0
   32.0667   -2.2005   21.4387 H   0  0  0  0  0  0
   31.5563   -3.8751   21.5457 H   0  0  0  0  0  0
   32.7054   -3.5522   19.4531 H   0  0  0  0  0  0
   33.7550   -4.5434   20.4337 H   0  0  0  0  0  0
   34.2748   -2.0930   18.1562 H   0  0  0  0  0  0
   35.2026   -3.5201   18.4902 H   0  0  0  0  0  0
   36.0604   -0.6270   18.6957 H   0  0  0  0  0  0
   37.0652   -2.0469   18.4047 H   0  0  0  0  0  0
   37.5931   -2.0637   20.6976 H   0  0  0  0  0  0
   36.4602   -0.7539   20.9942 H   0  0  0  0  0  0
   35.9013   -3.7423   21.0473 H   0  0  0  0  0  0
   35.2780   -2.5347   22.0940 H   0  0  0  0  0  0
   25.2600   -2.7427   26.7112 H   0  0  0  0  0  0
  1  6  1  0  0  0
  1  2  2  0  0  0
  1 32  1  0  0  0
  2  3  1  0  0  0
  2 33  1  0  0  0
  3  4  2  0  0  0
  3 34  1  0  0  0
  4  5  1  0  0  0
  4  7  1  0  0  0
  5  6  2  0  0  0
  5 35  1  0  0  0
  6 36  1  0  0  0
  7 16  1  0  0  0
  7  8  2  0  0  0
  8  9  1  0  0  0
  8 37  1  0  0  0
  9 14  2  0  0  0
  9 10  1  0  0  0
 10 11  2  0  0  0
 10 38  1  0  0  0
 11 12  1  0  0  0
 11 39  1  0  0  0
 12 13  2  0  0  0
 12 31  1  0  0  0
 13 14  1  0  0  0
 13 40  1  0  0  0
 14 15  1  0  0  0
 15 16  1  0  0  0
 16 17  1  0  0  0
 16 41  1  0  0  0
 17 22  1  0  0  0
 17 18  2  0  0  0
 18 19  1  0  0  0
 18 42  1  0  0  0
 19 20  2  0  0  0
 19 43  1  0  0  0
 20 21  1  0  0  0
 20 23  1  0  0  0
 21 22  2  0  0  0
 21 44  1  0  0  0
 22 45  1  0  0  0
 23 24  1  0  0  0
 24 25  1  0  0  0
 24 46  1  0  0  0
 24 47  1  0  0  0
 25 26  1  0  0  0
 25 48  1  0  0  0
 25 49  1  0  0  0
 26 30  1  0  0  0
 26 27  1  0  0  0
 27 28  1  0  0  0
 27 50  1  0  0  0
 27 51  1  0  0  0
 28 29  1  0  0  0
 28 52  1  0  0  0
 28 53  1  0  0  0
 29 30  1  0  0  0
 29 54  1  0  0  0
 29 55  1  0  0  0
 30 56  1  0  0  0
 30 57  1  0  0  0
 31 58  1  0  0  0
M  END
> <s_m_entry_id>
17099

> <s_m_entry_name>
ligand_docking-pose.26

> <s_m_Source_Path>
/home/csk/Desktop/cluster/DUD-E-result/esr1

> <s_m_Source_File>
ligand_docking-pose.sdf

> <i_m_Source_File_Index>
26

> <i_lp_mmshare_version>
53161

> <i_f3d_flags>
0

> <r_lp_tautomer_probability>
1

> <s_lp_Force_Field>
OPLS_2005

> <r_lp_Energy>
54.985501

> <b_lp_Chiralities_Consistent>
1

> <s_lp_Variant>
162446-1

> <s_i_glide_gridfile>
glide-grid_1sj0

> <i_i_glide_lignum>
246

> <i_i_glide_rotatable_bonds>
7

> <r_i_docking_score>
-10.7034392315786

> <r_i_glide_ligand_efficiency>
-0.34527223327673

> <r_i_glide_ligand_efficiency_sa>
-1.08463151218195

> <r_i_glide_ligand_efficiency_ln>
-2.4139535677396

> <r_i_glide_gscore>
-10.7034392315786

> <r_i_glide_lipo>
-6.01804757264706

> <r_i_glide_hbond>
-0.182486542096849

> <r_i_glide_metal>
0

> <r_i_glide_rewards>
-1.48663357109828

> <r_i_glide_evdw>
-46.6221160888672

> <r_i_glide_ecoul>
-7.25999689102173

> <r_i_glide_erotb>
0.40383379236017

> <r_i_glide_esite>
0

> <r_i_glide_emodel>
-85.5892754292169

> <r_i_glide_energy>
-53.8821129798889

> <r_i_glide_einternal>
6.08993625640869

> <i_i_glide_confnum>
1

> <i_i_glide_posenum>
186

> <r_i_glide_eff_state_penalty>
0

> <s_user_duplicate_titles>
162446

> <s_m_subgroup_title>
dock_pv

> <s_m_subgroupid>
dock_pv1

> <b_m_subgroup_collapsed>
0

$$$$
323625
                    3D
 Schrodinger Suite 2021-1.
 61 65  0  0  1  0            999 V2000
   34.8746   -3.9760   19.2254 C   0  0  0  0  0  0
   34.1290   -3.5015   20.3866 N   0  0  1  0  0  0
   33.0999   -4.4713   20.7747 C   0  0  0  0  0  0
   32.2664   -4.0289   22.0102 C   0  0  0  0  0  0
   33.1620   -3.6189   23.2078 C   0  0  0  0  0  0
   34.1871   -2.6331   22.6578 C   0  0  0  0  0  0
   35.0193   -3.1812   21.4947 C   0  0  0  0  0  0
   32.4435   -2.9394   24.3825 C   0  0  0  0  0  0
   32.7341   -3.3260   25.6944 C   0  0  0  0  0  0
   32.1456   -2.6630   26.7698 C   0  0  0  0  0  0
   31.2212   -1.6390   26.5502 C   0  0  0  0  0  0
   30.9502   -1.2343   25.2388 C   0  0  0  0  0  0
   31.5692   -1.8690   24.1653 C   0  0  0  0  0  0
   30.5291   -0.9382   27.7372 C   0  0  2  0  0  0
   28.9928   -0.9566   27.5575 C   0  0  0  0  0  0
   28.3177   -2.1422   27.2348 C   0  0  0  0  0  0
   26.9512   -2.1444   26.9762 C   0  0  0  0  0  0
   26.2287   -0.9616   27.0545 C   0  0  0  0  0  0
   26.8594    0.2054   27.4626 C   0  0  0  0  0  0
   28.2356    0.2281   27.6958 C   0  0  0  0  0  0
   28.9271    1.5273   28.0659 C   0  0  0  0  0  0
   30.2334    1.2454   28.8164 C   0  0  0  0  0  0
   31.0806    0.4147   27.9579 N   0  0  0  0  0  0
   32.4283    0.7013   27.9222 C   0  0  0  0  0  0
   32.8367    1.7619   27.1213 C   0  0  0  0  0  0
   34.1644    2.1535   27.0640 C   0  0  0  0  0  0
   35.1074    1.4581   27.8073 C   0  0  0  0  0  0
   34.7169    0.3633   28.5775 C   0  0  0  0  0  0
   33.3793   -0.0147   28.6497 C   0  0  0  0  0  0
   35.6600   -0.3556   29.2389 O   0  0  0  0  0  0
   24.9195   -0.9420   26.6639 O   0  0  0  0  0  0
   34.2061   -4.1343   18.3783 H   0  0  0  0  0  0
   35.6247   -3.2461   18.9193 H   0  0  0  0  0  0
   35.3802   -4.9188   19.4349 H   0  0  0  0  0  0
   32.4599   -4.5419   19.9007 H   0  0  0  0  0  0
   33.5347   -5.4604   20.9328 H   0  0  0  0  0  0
   31.5702   -3.2492   21.7014 H   0  0  0  0  0  0
   31.6587   -4.8878   22.2971 H   0  0  0  0  0  0
   33.6622   -4.5082   23.5959 H   0  0  0  0  0  0
   34.8612   -2.3753   23.4639 H   0  0  0  0  0  0
   33.6599   -1.7421   22.3148 H   0  0  0  0  0  0
   35.7543   -2.4380   21.1811 H   0  0  0  0  0  0
   35.5721   -4.0726   21.7894 H   0  0  0  0  0  0
   33.4395   -4.1222   25.8822 H   0  0  0  0  0  0
   32.4149   -2.9422   27.7766 H   0  0  0  0  0  0
   30.2619   -0.4224   25.0537 H   0  0  0  0  0  0
   31.3565   -1.5295   23.1635 H   0  0  0  0  0  0
   30.7413   -1.5327   28.6275 H   0  0  0  0  0  0
   28.8683   -3.0674   27.1344 H   0  0  0  0  0  0
   26.4645   -3.0605   26.6721 H   0  0  0  0  0  0
   26.2883    1.1198   27.5131 H   0  0  0  0  0  0
   28.2724    2.1602   28.6641 H   0  0  0  0  0  0
   29.1442    2.0883   27.1553 H   0  0  0  0  0  0
   30.0618    0.7838   29.7896 H   0  0  0  0  0  0
   30.7178    2.2034   29.0156 H   0  0  0  0  0  0
   32.0984    2.2580   26.5270 H   0  0  0  0  0  0
   34.4603    2.9712   26.4276 H   0  0  0  0  0  0
   36.1407    1.7556   27.7411 H   0  0  0  0  0  0
   33.0888   -0.8539   29.2627 H   0  0  0  0  0  0
   36.5336    0.0299   29.0824 H   0  0  0  0  0  0
   24.6915   -1.7997   26.2625 H   0  0  0  0  0  0
  1  2  1  0  0  0
  1 32  1  0  0  0
  1 33  1  0  0  0
  1 34  1  0  0  0
  2  7  1  0  0  0
  2  3  1  0  0  0
  3  4  1  0  0  0
  3 35  1  0  0  0
  3 36  1  0  0  0
  4  5  1  0  0  0
  4 37  1  0  0  0
  4 38  1  0  0  0
  5  6  1  0  0  0
  5  8  1  0  0  0
  5 39  1  0  0  0
  6  7  1  0  0  0
  6 40  1  0  0  0
  6 41  1  0  0  0
  7 42  1  0  0  0
  7 43  1  0  0  0
  8 13  1  0  0  0
  8  9  2  0  0  0
  9 10  1  0  0  0
  9 44  1  0  0  0
 10 11  2  0  0  0
 10 45  1  0  0  0
 11 12  1  0  0  0
 11 14  1  0  0  0
 12 13  2  0  0  0
 12 46  1  0  0  0
 13 47  1  0  0  0
 14 23  1  0  0  0
 14 15  1  0  0  0
 14 48  1  0  0  0
 15 20  2  0  0  0
 15 16  1  0  0  0
 16 17  2  0  0  0
 16 49  1  0  0  0
 17 18  1  0  0  0
 17 50  1  0  0  0
 18 19  2  0  0  0
 18 31  1  0  0  0
 19 20  1  0  0  0
 19 51  1  0  0  0
 20 21  1  0  0  0
 21 22  1  0  0  0
 21 52  1  0  0  0
 21 53  1  0  0  0
 22 23  1  0  0  0
 22 54  1  0  0  0
 22 55  1  0  0  0
 23 24  1  0  0  0
 24 29  1  0  0  0
 24 25  2  0  0  0
 25 26  1  0  0  0
 25 56  1  0  0  0
 26 27  2  0  0  0
 26 57  1  0  0  0
 27 28  1  0  0  0
 27 58  1  0  0  0
 28 29  2  0  0  0
 28 30  1  0  0  0
 29 59  1  0  0  0
 30 60  1  0  0  0
 31 61  1  0  0  0
M  END
> <s_m_entry_id>
17100

> <s_m_entry_name>
ligand_docking-pose.27

> <s_m_Source_Path>
/home/csk/Desktop/cluster/DUD-E-result/esr1

> <s_m_Source_File>
ligand_docking-pose.sdf

> <i_m_Source_File_Index>
27

> <i_lp_mmshare_version>
53161

> <i_f3d_flags>
0

> <r_lp_tautomer_probability>
0.99999999999473

> <s_lp_Force_Field>
OPLS_2005

> <r_lp_Energy>
36.068875

> <b_lp_Chiralities_Consistent>
1

> <s_lp_Variant>
323625-1

> <s_i_glide_gridfile>
glide-grid_1sj0

> <i_i_glide_lignum>
1680

> <i_i_glide_rotatable_bonds>
5

> <r_i_docking_score>
-10.69559235513

> <r_i_glide_ligand_efficiency>
-0.345019108230001

> <r_i_glide_ligand_efficiency_sa>
-1.08383635005843

> <r_i_glide_ligand_efficiency_ln>
-2.41218385662255

> <r_i_glide_gscore>
-10.69559235513

> <r_i_glide_lipo>
-5.66309883155283

> <r_i_glide_hbond>
-0.549791950363963

> <r_i_glide_metal>
0

> <r_i_glide_rewards>
-1.41576970588081

> <r_i_glide_evdw>
-45.6461029052734

> <r_i_glide_ecoul>
-6.83893299102783

> <r_i_glide_erotb>
0.241213226585404

> <r_i_glide_esite>
0

> <r_i_glide_emodel>
-70.1796469788667

> <r_i_glide_energy>
-52.4850358963013

> <r_i_glide_einternal>
3.54131007194519

> <i_i_glide_confnum>
11

> <i_i_glide_posenum>
84

> <r_i_glide_eff_state_penalty>
0

> <s_user_duplicate_titles>
323625

> <s_m_subgroup_title>
dock_pv

> <s_m_subgroupid>
dock_pv1

> <b_m_subgroup_collapsed>
0

$$$$
324131
                    3D
 Schrodinger Suite 2021-1.
 62 66  0  0  1  0            999 V2000
   36.2463   -2.6507   20.6209 C   0  0  0  0  0  0
   34.7336   -2.6040   20.9190 C   0  0  2  0  0  0
   34.4837   -3.2382   22.3143 C   0  0  0  0  0  0
   33.0873   -3.0991   22.7496 N   0  0  0  0  0  0
   32.1742   -3.6485   21.7368 C   0  0  0  0  0  0
   32.4804   -3.1737   20.2980 C   0  0  0  0  0  0
   33.8974   -3.3178   19.9396 N   0  0  1  0  0  0
   34.0648   -2.8095   18.5766 C   0  0  0  0  0  0
   32.6708   -2.6592   24.0003 C   0  0  0  0  0  0
   33.2586   -3.1238   25.1811 C   0  0  0  0  0  0
   32.7852   -2.7040   26.4291 C   0  0  0  0  0  0
   31.7199   -1.7984   26.5089 C   0  0  0  0  0  0
   31.1637   -1.3027   25.3234 C   0  0  0  0  0  0
   31.6325   -1.7316   24.0876 C   0  0  0  0  0  0
   31.1133   -1.3920   27.8745 C   0  0  2  0  0  0
   29.5758   -1.5178   27.8256 C   0  0  0  0  0  0
   28.9642   -2.7404   27.5301 C   0  0  0  0  0  0
   27.5979   -2.8302   27.2882 C   0  0  0  0  0  0
   26.8203   -1.6847   27.3761 C   0  0  0  0  0  0
   27.3874   -0.4827   27.7682 C   0  0  0  0  0  0
   28.7606   -0.3811   27.9963 C   0  0  0  0  0  0
   29.3920    0.9244   28.4450 C   0  0  0  0  0  0
   30.6534    0.6234   29.2710 C   0  0  0  0  0  0
   31.6032   -0.1052   28.4281 N   0  0  0  0  0  0
   32.7853    0.5283   28.1350 C   0  0  0  0  0  0
   32.9433    1.1623   26.9049 C   0  0  0  0  0  0
   34.0622    1.9463   26.6720 C   0  0  0  0  0  0
   35.0350    2.0583   27.6648 C   0  0  0  0  0  0
   34.8790    1.4250   28.8929 C   0  0  0  0  0  0
   33.7508    0.6567   29.1327 C   0  0  0  0  0  0
   25.4971   -1.7203   27.0663 O   0  0  0  0  0  0
   36.8178   -2.1897   21.4278 H   0  0  0  0  0  0
   36.5975   -3.6754   20.5043 H   0  0  0  0  0  0
   36.4957   -2.1068   19.7108 H   0  0  0  0  0  0
   34.4527   -1.5507   20.9464 H   0  0  0  0  0  0
   35.1326   -2.7812   23.0607 H   0  0  0  0  0  0
   34.7472   -4.2958   22.2647 H   0  0  0  0  0  0
   31.1401   -3.4139   21.9865 H   0  0  0  0  0  0
   32.2392   -4.7382   21.7785 H   0  0  0  0  0  0
   32.1499   -2.1443   20.1755 H   0  0  0  0  0  0
   31.8806   -3.7687   19.6062 H   0  0  0  0  0  0
   33.8535   -1.7387   18.5163 H   0  0  0  0  0  0
   33.3981   -3.3264   17.8851 H   0  0  0  0  0  0
   35.0783   -2.9813   18.2156 H   0  0  0  0  0  0
   34.0602   -3.8454   25.1271 H   0  0  0  0  0  0
   33.2314   -3.1032   27.3278 H   0  0  0  0  0  0
   30.3438   -0.5987   25.3592 H   0  0  0  0  0  0
   31.1814   -1.3447   23.1888 H   0  0  0  0  0  0
   31.4527   -2.1439   28.5867 H   0  0  0  0  0  0
   29.5687   -3.6292   27.4480 H   0  0  0  0  0  0
   27.1538   -3.7751   27.0081 H   0  0  0  0  0  0
   26.7599    0.3919   27.8562 H   0  0  0  0  0  0
   28.6929    1.5174   29.0374 H   0  0  0  0  0  0
   29.6504    1.5306   27.5747 H   0  0  0  0  0  0
   30.4605    0.0490   30.1746 H   0  0  0  0  0  0
   31.0833    1.5646   29.6204 H   0  0  0  0  0  0
   32.1846    1.0580   26.1477 H   0  0  0  0  0  0
   34.1957    2.4393   25.7209 H   0  0  0  0  0  0
   35.9313    2.6301   27.4766 H   0  0  0  0  0  0
   35.6523    1.5096   29.6433 H   0  0  0  0  0  0
   33.6194    0.1756   30.0903 H   0  0  0  0  0  0
   25.2433   -2.4800   26.5009 H   0  0  0  0  0  0
  1  2  1  0  0  0
  1 32  1  0  0  0
  1 33  1  0  0  0
  1 34  1  0  0  0
  2  7  1  0  0  0
  2  3  1  0  0  0
  2 35  1  0  0  0
  3  4  1  0  0  0
  3 36  1  0  0  0
  3 37  1  0  0  0
  4  5  1  0  0  0
  4  9  1  0  0  0
  5  6  1  0  0  0
  5 38  1  0  0  0
  5 39  1  0  0  0
  6  7  1  0  0  0
  6 40  1  0  0  0
  6 41  1  0  0  0
  7  8  1  0  0  0
  8 42  1  0  0  0
  8 43  1  0  0  0
  8 44  1  0  0  0
  9 14  1  0  0  0
  9 10  2  0  0  0
 10 11  1  0  0  0
 10 45  1  0  0  0
 11 12  2  0  0  0
 11 46  1  0  0  0
 12 13  1  0  0  0
 12 15  1  0  0  0
 13 14  2  0  0  0
 13 47  1  0  0  0
 14 48  1  0  0  0
 15 24  1  0  0  0
 15 16  1  0  0  0
 15 49  1  0  0  0
 16 21  2  0  0  0
 16 17  1  0  0  0
 17 18  2  0  0  0
 17 50  1  0  0  0
 18 19  1  0  0  0
 18 51  1  0  0  0
 19 20  2  0  0  0
 19 31  1  0  0  0
 20 21  1  0  0  0
 20 52  1  0  0  0
 21 22  1  0  0  0
 22 23  1  0  0  0
 22 53  1  0  0  0
 22 54  1  0  0  0
 23 24  1  0  0  0
 23 55  1  0  0  0
 23 56  1  0  0  0
 24 25  1  0  0  0
 25 30  1  0  0  0
 25 26  2  0  0  0
 26 27  1  0  0  0
 26 57  1  0  0  0
 27 28  2  0  0  0
 27 58  1  0  0  0
 28 29  1  0  0  0
 28 59  1  0  0  0
 29 30  2  0  0  0
 29 60  1  0  0  0
 30 61  1  0  0  0
 31 62  1  0  0  0
M  END
> <s_m_entry_id>
17101

> <s_m_entry_name>
ligand_docking-pose.28

> <s_m_Source_Path>
/home/csk/Desktop/cluster/DUD-E-result/esr1

> <s_m_Source_File>
ligand_docking-pose.sdf

> <i_m_Source_File_Index>
28

> <i_lp_mmshare_version>
53161

> <i_f3d_flags>
0

> <r_lp_tautomer_probability>
0.999999999997365

> <s_lp_Force_Field>
OPLS_2005

> <r_lp_Energy>
54.540979

> <b_lp_Chiralities_Consistent>
1

> <s_lp_Variant>
324131-1

> <s_i_glide_gridfile>
glide-grid_1sj0

> <i_i_glide_lignum>
1055

> <i_i_glide_rotatable_bonds>
4

> <r_i_docking_score>
-10.6869257913591

> <r_i_glide_ligand_efficiency>
-0.344739541656744

> <r_i_glide_ligand_efficiency_sa>
-1.08295812503515

> <r_i_glide_ligand_efficiency_ln>
-2.41022928089392

> <r_i_glide_gscore>
-10.6869257913591

> <r_i_glide_lipo>
-5.56803602277886

> <r_i_glide_hbond>
-0.178537031000792

> <r_i_glide_metal>
0

> <r_i_glide_rewards>
-1.96582305535416

> <r_i_glide_evdw>
-48.3042068481445

> <r_i_glide_ecoul>
-5.34380388259888

> <r_i_glide_erotb>
0.242251242571813

> <r_i_glide_esite>
0

> <r_i_glide_emodel>
-64.3319523866467

> <r_i_glide_energy>
-53.6480107307434

> <r_i_glide_einternal>
7.6485071182251

> <i_i_glide_confnum>
47

> <i_i_glide_posenum>
293

> <r_i_glide_eff_state_penalty>
0

> <s_user_duplicate_titles>
324131

> <s_m_subgroup_title>
dock_pv

> <s_m_subgroupid>
dock_pv1

> <b_m_subgroup_collapsed>
0

$$$$
88164
                    3D
 Schrodinger Suite 2021-1.
 65 69  0  0  1  0            999 V2000
   32.4973   -0.2029   29.1376 C   0  0  0  0  0  0
   33.7669   -0.6144   29.4642 C   0  0  0  0  0  0
   34.8436   -0.0227   28.8288 C   0  0  0  0  0  0
   34.7017    1.0247   27.9244 C   0  0  0  0  0  0
   33.4227    1.3940   27.5437 C   0  0  0  0  0  0
   32.3364    0.7290   28.1137 C   0  0  0  0  0  0
   30.9588    0.9282   27.5526 C   0  0  2  0  0  0
   30.1192    1.6981   28.5854 C   0  0  0  0  0  0
   28.7761    1.9731   27.9582 C   0  0  0  0  0  0
   28.1534    0.6683   27.5327 C   0  0  0  0  0  0
   26.7737    0.5778   27.4640 C   0  0  0  0  0  0
   26.1499   -0.5867   27.0540 C   0  0  0  0  0  0
   26.9080   -1.7259   26.7978 C   0  0  0  0  0  0
   28.2940   -1.6536   26.8678 C   0  0  0  0  0  0
   28.9403   -0.4455   27.1662 C   0  0  0  0  0  0
   30.3374   -0.3459   27.1026 N   0  0  0  0  0  0
   31.0615   -1.1705   26.2381 C   0  0  0  0  0  0
   31.0231   -0.9649   24.8559 C   0  0  0  0  0  0
   31.7416   -1.7972   23.9961 C   0  0  0  0  0  0
   32.5255   -2.8415   24.5106 C   0  0  0  0  0  0
   32.5811   -3.0238   25.8900 C   0  0  0  0  0  0
   31.8502   -2.2061   26.7453 C   0  0  0  0  0  0
   33.2543   -3.7416   23.7523 O   0  0  0  0  0  0
   33.1062   -3.7913   22.3318 C   0  0  0  0  0  0
   33.9583   -2.7026   21.6481 C   0  0  0  0  0  0
   34.1171   -2.8513   20.1950 N   0  0  0  0  0  0
   32.8377   -2.9874   19.4731 C   0  0  0  0  0  0
   33.0245   -3.0916   17.9451 C   0  0  0  0  0  0
   33.8718   -1.9432   17.3810 C   0  0  0  0  0  0
   35.1906   -1.8518   18.1599 C   0  0  0  0  0  0
   34.9579   -1.7579   19.6811 C   0  0  0  0  0  0
   24.8113   -0.5421   26.8031 O   0  0  0  0  0  0
   36.0599   -0.5420   29.0640 O   0  0  0  0  0  0
   31.6445   -0.6979   29.5797 H   0  0  0  0  0  0
   33.9102   -1.4202   30.1672 H   0  0  0  0  0  0
   35.5634    1.4759   27.4537 H   0  0  0  0  0  0
   33.2844    2.1321   26.7668 H   0  0  0  0  0  0
   31.0670    1.5515   26.6649 H   0  0  0  0  0  0
   29.9965    1.1275   29.5074 H   0  0  0  0  0  0
   30.6056    2.6335   28.8604 H   0  0  0  0  0  0
   28.9429    2.5632   27.0648 H   0  0  0  0  0  0
   28.1323    2.5350   28.6369 H   0  0  0  0  0  0
   26.1835    1.4557   27.6749 H   0  0  0  0  0  0
   26.4591   -2.6548   26.4888 H   0  0  0  0  0  0
   28.8676   -2.5435   26.6641 H   0  0  0  0  0  0
   30.4162   -0.1700   24.4493 H   0  0  0  0  0  0
   31.6599   -1.6292   22.9359 H   0  0  0  0  0  0
   33.1746   -3.8280   26.2979 H   0  0  0  0  0  0
   31.8881   -2.3930   27.8068 H   0  0  0  0  0  0
   32.0528   -3.7246   22.0544 H   0  0  0  0  0  0
   33.4398   -4.7708   21.9904 H   0  0  0  0  0  0
   34.9442   -2.6769   22.1166 H   0  0  0  0  0  0
   33.5127   -1.7420   21.8638 H   0  0  0  0  0  0
   32.1913   -2.1426   19.7137 H   0  0  0  0  0  0
   32.3149   -3.8791   19.8206 H   0  0  0  0  0  0
   32.0445   -3.0890   17.4658 H   0  0  0  0  0  0
   33.4570   -4.0624   17.6977 H   0  0  0  0  0  0
   34.0649   -2.0940   16.3184 H   0  0  0  0  0  0
   33.3226   -1.0044   17.4681 H   0  0  0  0  0  0
   35.8377   -2.7030   17.9412 H   0  0  0  0  0  0
   35.7476   -0.9750   17.8271 H   0  0  0  0  0  0
   34.4985   -0.7990   19.9298 H   0  0  0  0  0  0
   35.9202   -1.7799   20.1956 H   0  0  0  0  0  0
   24.5105    0.3664   26.6661 H   0  0  0  0  0  0
   36.7680    0.0652   28.7982 H   0  0  0  0  0  0
  1  6  1  0  0  0
  1  2  2  0  0  0
  1 34  1  0  0  0
  2  3  1  0  0  0
  2 35  1  0  0  0
  3  4  2  0  0  0
  3 33  1  0  0  0
  4  5  1  0  0  0
  4 36  1  0  0  0
  5  6  2  0  0  0
  5 37  1  0  0  0
  6  7  1  0  0  0
  7 16  1  0  0  0
  7  8  1  0  0  0
  7 38  1  0  0  0
  8  9  1  0  0  0
  8 39  1  0  0  0
  8 40  1  0  0  0
  9 10  1  0  0  0
  9 41  1  0  0  0
  9 42  1  0  0  0
 10 15  2  0  0  0
 10 11  1  0  0  0
 11 12  2  0  0  0
 11 43  1  0  0  0
 12 13  1  0  0  0
 12 32  1  0  0  0
 13 14  2  0  0  0
 13 44  1  0  0  0
 14 15  1  0  0  0
 14 45  1  0  0  0
 15 16  1  0  0  0
 16 17  1  0  0  0
 17 22  1  0  0  0
 17 18  2  0  0  0
 18 19  1  0  0  0
 18 46  1  0  0  0
 19 20  2  0  0  0
 19 47  1  0  0  0
 20 21  1  0  0  0
 20 23  1  0  0  0
 21 22  2  0  0  0
 21 48  1  0  0  0
 22 49  1  0  0  0
 23 24  1  0  0  0
 24 25  1  0  0  0
 24 50  1  0  0  0
 24 51  1  0  0  0
 25 26  1  0  0  0
 25 52  1  0  0  0
 25 53  1  0  0  0
 26 31  1  0  0  0
 26 27  1  0  0  0
 27 28  1  0  0  0
 27 54  1  0  0  0
 27 55  1  0  0  0
 28 29  1  0  0  0
 28 56  1  0  0  0
 28 57  1  0  0  0
 29 30  1  0  0  0
 29 58  1  0  0  0
 29 59  1  0  0  0
 30 31  1  0  0  0
 30 60  1  0  0  0
 30 61  1  0  0  0
 31 62  1  0  0  0
 31 63  1  0  0  0
 32 64  1  0  0  0
 33 65  1  0  0  0
M  END
> <s_m_entry_id>
17102

> <s_m_entry_name>
ligand_docking-pose.29

> <s_m_Source_Path>
/home/csk/Desktop/cluster/DUD-E-result/esr1

> <s_m_Source_File>
ligand_docking-pose.sdf

> <i_m_Source_File_Index>
29

> <i_lp_mmshare_version>
53161

> <i_f3d_flags>
0

> <r_lp_tautomer_probability>
0.99999999999473

> <s_lp_Force_Field>
OPLS_2005

> <r_lp_Energy>
42.441004

> <b_lp_Chiralities_Consistent>
1

> <s_lp_Variant>
88164-1

> <s_i_glide_gridfile>
glide-grid_1sj0

> <i_i_glide_lignum>
312

> <i_i_glide_rotatable_bonds>
8

> <r_i_docking_score>
-10.6814703031454

> <r_i_glide_ligand_efficiency>
-0.323680918277133

> <r_i_glide_ligand_efficiency_sa>
-1.03821765612843

> <r_i_glide_ligand_efficiency_ln>
-2.3755036897262

> <r_i_glide_gscore>
-10.6814703031454

> <r_i_glide_lipo>
-5.95520616333961

> <r_i_glide_hbond>
-0.67682258260204

> <r_i_glide_metal>
0

> <r_i_glide_rewards>
-1.18361123653241

> <r_i_glide_evdw>
-43.2118721008301

> <r_i_glide_ecoul>
-8.07491207122803

> <r_i_glide_erotb>
0.506000095054377

> <r_i_glide_esite>
0

> <r_i_glide_emodel>
-66.0565486461309

> <r_i_glide_energy>
-51.2867841720581

> <r_i_glide_einternal>
9.89287853240967

> <i_i_glide_confnum>
2

> <i_i_glide_posenum>
43

> <r_i_glide_eff_state_penalty>
0

> <s_user_duplicate_titles>
88164

> <s_m_subgroup_title>
dock_pv

> <s_m_subgroupid>
dock_pv1

> <b_m_subgroup_collapsed>
0

$$$$
87113
                    3D
 Schrodinger Suite 2021-1.
 68 72  0  0  1  0            999 V2000
   34.5254   -0.5256   29.3394 C   0  0  0  0  0  0
   33.1452   -0.4463   29.4915 C   0  0  0  0  0  0
   32.3940    0.4044   28.6703 C   0  0  0  0  0  0
   33.0750    1.3231   27.8588 C   0  0  0  0  0  0
   34.4583    1.3184   27.8052 C   0  0  0  0  0  0
   35.1778    0.3439   28.4781 C   0  0  0  0  0  0
   35.1002    2.2579   27.0640 O   0  0  0  0  0  0
   30.8612    0.2929   28.6562 C   0  0  1  0  0  0
   30.2110    1.5964   28.1245 C   0  0  0  0  0  0
   28.7025    1.5909   28.2641 C   0  0  0  0  0  0
   28.1125    0.2730   27.8057 C   0  0  0  0  0  0
   26.7617    0.2317   27.4640 C   0  0  0  0  0  0
   26.1607   -0.9478   27.0610 C   0  0  0  0  0  0
   26.8997   -2.1190   26.9999 C   0  0  0  0  0  0
   28.2487   -2.0966   27.3125 C   0  0  0  0  0  0
   28.8846   -0.9104   27.7210 C   0  0  0  0  0  0
   30.2728   -0.8602   27.9154 N   0  0  0  0  0  0
   31.1492   -2.0236   27.6586 C   0  0  0  0  0  0
   31.7181   -2.1067   26.2424 C   0  0  0  0  0  0
   32.5985   -3.1516   25.9531 C   0  0  0  0  0  0
   33.0985   -3.3155   24.6650 C   0  0  0  0  0  0
   32.7161   -2.4325   23.6476 C   0  0  0  0  0  0
   31.8772   -1.3630   23.9493 C   0  0  0  0  0  0
   31.3736   -1.1983   25.2340 C   0  0  0  0  0  0
   33.1103   -2.5418   22.3312 O   0  0  0  0  0  0
   33.7799   -3.7218   21.8915 C   0  0  0  0  0  0
   33.7355   -3.8120   20.3523 C   0  0  0  0  0  0
   34.2415   -2.6111   19.6735 N   0  0  0  0  0  0
   33.9196   -2.6544   18.2409 C   0  0  0  0  0  0
   34.3244   -1.3480   17.5313 C   0  0  0  0  0  0
   35.8034   -0.9993   17.7596 C   0  0  0  0  0  0
   36.1289   -1.0410   19.2606 C   0  0  0  0  0  0
   35.6669   -2.3518   19.9261 C   0  0  0  0  0  0
   24.8599   -0.9420   26.6613 O   0  0  0  0  0  0
   35.0952   -1.2749   29.8639 H   0  0  0  0  0  0
   32.6516   -1.1308   30.1658 H   0  0  0  0  0  0
   32.5605    2.0415   27.2427 H   0  0  0  0  0  0
   36.2365    0.2534   28.3212 H   0  0  0  0  0  0
   36.0514    2.1250   27.0185 H   0  0  0  0  0  0
   30.5848    0.1743   29.7050 H   0  0  0  0  0  0
   30.6141    2.4642   28.6473 H   0  0  0  0  0  0
   30.4401    1.7244   27.0653 H   0  0  0  0  0  0
   28.2586    2.3964   27.6862 H   0  0  0  0  0  0
   28.4602    1.7819   29.3035 H   0  0  0  0  0  0
   26.1715    1.1354   27.4653 H   0  0  0  0  0  0
   26.4600   -3.0451   26.6643 H   0  0  0  0  0  0
   28.7708   -3.0295   27.1839 H   0  0  0  0  0  0
   30.6127   -2.9420   27.8639 H   0  0  0  0  0  0
   31.9715   -2.1206   28.3513 H   0  0  0  0  0  0
   32.8813   -3.8560   26.7216 H   0  0  0  0  0  0
   33.7644   -4.1419   24.4707 H   0  0  0  0  0  0
   31.6060   -0.6660   23.1724 H   0  0  0  0  0  0
   30.7061   -0.3726   25.4289 H   0  0  0  0  0  0
   33.2712   -4.6008   22.2819 H   0  0  0  0  0  0
   34.8060   -3.7449   22.2629 H   0  0  0  0  0  0
   32.6954   -3.9802   20.0645 H   0  0  0  0  0  0
   34.2883   -4.6915   20.0178 H   0  0  0  0  0  0
   32.8430   -2.7923   18.1268 H   0  0  0  0  0  0
   34.3924   -3.5225   17.7780 H   0  0  0  0  0  0
   33.6689   -0.5423   17.8614 H   0  0  0  0  0  0
   34.1369   -1.4493   16.4617 H   0  0  0  0  0  0
   36.4335   -1.7137   17.2280 H   0  0  0  0  0  0
   36.0308   -0.0154   17.3475 H   0  0  0  0  0  0
   37.2058   -0.9421   19.3992 H   0  0  0  0  0  0
   35.6912   -0.1892   19.7845 H   0  0  0  0  0  0
   35.8379   -2.2643   20.9982 H   0  0  0  0  0  0
   36.2636   -3.2002   19.5863 H   0  0  0  0  0  0
   24.6323   -1.7982   26.2563 H   0  0  0  0  0  0
  1  6  1  0  0  0
  1  2  2  0  0  0
  1 35  1  0  0  0
  2  3  1  0  0  0
  2 36  1  0  0  0
  3  4  2  0  0  0
  3  8  1  0  0  0
  4  5  1  0  0  0
  4 37  1  0  0  0
  5  6  2  0  0  0
  5  7  1  0  0  0
  6 38  1  0  0  0
  7 39  1  0  0  0
  8 17  1  0  0  0
  8  9  1  0  0  0
  8 40  1  0  0  0
  9 10  1  0  0  0
  9 41  1  0  0  0
  9 42  1  0  0  0
 10 11  1  0  0  0
 10 43  1  0  0  0
 10 44  1  0  0  0
 11 16  2  0  0  0
 11 12  1  0  0  0
 12 13  2  0  0  0
 12 45  1  0  0  0
 13 14  1  0  0  0
 13 34  1  0  0  0
 14 15  2  0  0  0
 14 46  1  0  0  0
 15 16  1  0  0  0
 15 47  1  0  0  0
 16 17  1  0  0  0
 17 18  1  0  0  0
 18 19  1  0  0  0
 18 48  1  0  0  0
 18 49  1  0  0  0
 19 24  1  0  0  0
 19 20  2  0  0  0
 20 21  1  0  0  0
 20 50  1  0  0  0
 21 22  2  0  0  0
 21 51  1  0  0  0
 22 23  1  0  0  0
 22 25  1  0  0  0
 23 24  2  0  0  0
 23 52  1  0  0  0
 24 53  1  0  0  0
 25 26  1  0  0  0
 26 27  1  0  0  0
 26 54  1  0  0  0
 26 55  1  0  0  0
 27 28  1  0  0  0
 27 56  1  0  0  0
 27 57  1  0  0  0
 28 33  1  0  0  0
 28 29  1  0  0  0
 29 30  1  0  0  0
 29 58  1  0  0  0
 29 59  1  0  0  0
 30 31  1  0  0  0
 30 60  1  0  0  0
 30 61  1  0  0  0
 31 32  1  0  0  0
 31 62  1  0  0  0
 31 63  1  0  0  0
 32 33  1  0  0  0
 32 64  1  0  0  0
 32 65  1  0  0  0
 33 66  1  0  0  0
 33 67  1  0  0  0
 34 68  1  0  0  0
M  END
> <s_m_entry_id>
17103

> <s_m_entry_name>
ligand_docking-pose.30

> <s_m_Source_Path>
/home/csk/Desktop/cluster/DUD-E-result/esr1

> <s_m_Source_File>
ligand_docking-pose.sdf

> <i_m_Source_File_Index>
30

> <i_lp_mmshare_version>
53161

> <i_f3d_flags>
0

> <r_lp_tautomer_probability>
0.99999999999473

> <s_lp_Force_Field>
OPLS_2005

> <r_lp_Energy>
37.505828

> <b_lp_Chiralities_Consistent>
1

> <s_lp_Variant>
87113-2

> <s_i_glide_gridfile>
glide-grid_1sj0

> <i_i_glide_lignum>
637

> <i_i_glide_rotatable_bonds>
9

> <r_i_docking_score>
-10.6715543170614

> <r_i_glide_ligand_efficiency>
-0.313869244619453

> <r_i_glide_ligand_efficiency_sa>
-1.01681450773201

> <r_i_glide_ligand_efficiency_ln>
-2.35764567559858

> <r_i_glide_gscore>
-10.6715543170614

> <r_i_glide_lipo>
-6.06356983675778

> <r_i_glide_hbond>
-0.291083076245255

> <r_i_glide_metal>
0

> <r_i_glide_rewards>
-1.22798162215887

> <r_i_glide_evdw>
-48.885498046875

> <r_i_glide_ecoul>
-6.97558689117432

> <r_i_glide_erotb>
0.401693154120401

> <r_i_glide_esite>
0

> <r_i_glide_emodel>
-86.1380598864528

> <r_i_glide_energy>
-55.8610849380493

> <r_i_glide_einternal>
10.1529932022095

> <i_i_glide_confnum>
1

> <i_i_glide_posenum>
54

> <r_i_glide_eff_state_penalty>
0

> <s_user_duplicate_titles>
87113

> <s_m_subgroup_title>
dock_pv

> <s_m_subgroupid>
dock_pv1

> <b_m_subgroup_collapsed>
0

$$$$
326396
                    3D
 Schrodinger Suite 2021-1.
 61 66  0  0  1  0            999 V2000
   34.0067    1.0582   29.8642 C   0  0  0  0  0  0
   34.5795   -0.1422   29.4640 C   0  0  0  0  0  0
   33.8108   -1.1504   28.8941 C   0  0  0  0  0  0
   32.4811   -0.8560   28.6175 C   0  0  0  0  0  0
   31.9031    0.3732   28.9884 C   0  0  0  0  0  0
   32.6527    1.3336   29.6557 C   0  0  0  0  0  0
   30.5854    0.3589   28.5518 C   0  0  0  0  0  0
   30.3003   -0.8653   28.0039 C   0  0  0  0  0  0
   31.4800   -1.5653   27.9679 N   0  0  0  0  0  0
   31.7467   -2.7689   27.2170 C   0  0  0  0  0  0
   32.2318   -2.5513   25.8019 C   0  0  0  0  0  0
   31.6601   -1.5744   24.9930 C   0  0  0  0  0  0
   31.9606   -1.5518   23.6426 C   0  0  0  0  0  0
   32.7791   -2.5299   23.0723 C   0  0  0  0  0  0
   33.4178   -3.4463   23.9105 C   0  0  0  0  0  0
   33.1729   -3.4273   25.2751 C   0  0  0  0  0  0
   32.8996   -2.5421   21.6997 O   0  0  0  0  0  0
   33.4235   -3.6974   21.0445 C   0  0  0  0  0  0
   33.4442   -3.4552   19.5219 C   0  0  0  0  0  0
   34.3128   -2.3401   19.1115 N   0  0  0  0  0  0
   34.0295   -1.9603   17.7185 C   0  0  0  0  0  0
   34.8957   -0.7722   17.2501 C   0  0  0  0  0  0
   36.3930   -1.0256   17.4675 C   0  0  0  0  0  0
   36.6334   -1.4266   18.9290 C   0  0  0  0  0  0
   35.7413   -2.6099   19.3542 C   0  0  0  0  0  0
   28.9616   -1.0256   27.6326 C   0  0  0  0  0  0
   28.3236   -2.1866   27.1700 C   0  0  0  0  0  0
   26.9673   -2.1220   26.8812 C   0  0  0  0  0  0
   26.2505   -0.9386   27.0099 C   0  0  0  0  0  0
   26.8597    0.2319   27.4640 C   0  0  0  0  0  0
   28.2197    0.1821   27.8044 C   0  0  0  0  0  0
   29.2600    1.4581   28.4819 S   0  0  0  0  0  0
   24.9290   -0.9420   26.6638 O   0  0  0  0  0  0
   34.6290    1.7986   30.3444 H   0  0  0  0  0  0
   35.6285   -0.3180   29.6557 H   0  0  0  0  0  0
   34.2229   -2.1142   28.6644 H   0  0  0  0  0  0
   32.2001    2.2581   29.9713 H   0  0  0  0  0  0
   30.8389   -3.3470   27.1670 H   0  0  0  0  0  0
   32.4932   -3.3421   27.7630 H   0  0  0  0  0  0
   30.9466   -0.8637   25.3823 H   0  0  0  0  0  0
   31.4887   -0.7842   23.0634 H   0  0  0  0  0  0
   34.0601   -4.2164   23.5207 H   0  0  0  0  0  0
   33.6327   -4.1768   25.8989 H   0  0  0  0  0  0
   32.7819   -4.5537   21.2588 H   0  0  0  0  0  0
   34.4196   -3.9554   21.4015 H   0  0  0  0  0  0
   32.4174   -3.2465   19.2136 H   0  0  0  0  0  0
   33.7368   -4.3718   19.0055 H   0  0  0  0  0  0
   32.9751   -1.6878   17.6340 H   0  0  0  0  0  0
   34.1773   -2.8229   17.0648 H   0  0  0  0  0  0
   34.5723    0.1409   17.7516 H   0  0  0  0  0  0
   34.7165   -0.5936   16.1915 H   0  0  0  0  0  0
   36.7314   -1.8245   16.8052 H   0  0  0  0  0  0
   36.9731   -0.1401   17.2055 H   0  0  0  0  0  0
   37.6807   -1.6967   19.0644 H   0  0  0  0  0  0
   36.4607   -0.5858   19.6025 H   0  0  0  0  0  0
   35.9123   -2.8026   20.4127 H   0  0  0  0  0  0
   36.0311   -3.5199   18.8247 H   0  0  0  0  0  0
   28.8270   -3.1318   27.0647 H   0  0  0  0  0  0
   26.4657   -3.0169   26.5451 H   0  0  0  0  0  0
   26.2941    1.1459   27.5565 H   0  0  0  0  0  0
   24.6960   -1.7970   26.2602 H   0  0  0  0  0  0
  1  6  1  0  0  0
  1  2  2  0  0  0
  1 34  1  0  0  0
  2  3  1  0  0  0
  2 35  1  0  0  0
  3  4  2  0  0  0
  3 36  1  0  0  0
  4  9  1  0  0  0
  4  5  1  0  0  0
  5  6  2  0  0  0
  5  7  1  0  0  0
  6 37  1  0  0  0
  7 32  1  0  0  0
  7  8  2  0  0  0
  8  9  1  0  0  0
  8 26  1  0  0  0
  9 10  1  0  0  0
 10 11  1  0  0  0
 10 38  1  0  0  0
 10 39  1  0  0  0
 11 16  1  0  0  0
 11 12  2  0  0  0
 12 13  1  0  0  0
 12 40  1  0  0  0
 13 14  2  0  0  0
 13 41  1  0  0  0
 14 15  1  0  0  0
 14 17  1  0  0  0
 15 16  2  0  0  0
 15 42  1  0  0  0
 16 43  1  0  0  0
 17 18  1  0  0  0
 18 19  1  0  0  0
 18 44  1  0  0  0
 18 45  1  0  0  0
 19 20  1  0  0  0
 19 46  1  0  0  0
 19 47  1  0  0  0
 20 25  1  0  0  0
 20 21  1  0  0  0
 21 22  1  0  0  0
 21 48  1  0  0  0
 21 49  1  0  0  0
 22 23  1  0  0  0
 22 50  1  0  0  0
 22 51  1  0  0  0
 23 24  1  0  0  0
 23 52  1  0  0  0
 23 53  1  0  0  0
 24 25  1  0  0  0
 24 54  1  0  0  0
 24 55  1  0  0  0
 25 56  1  0  0  0
 25 57  1  0  0  0
 26 31  2  0  0  0
 26 27  1  0  0  0
 27 28  2  0  0  0
 27 58  1  0  0  0
 28 29  1  0  0  0
 28 59  1  0  0  0
 29 30  2  0  0  0
 29 33  1  0  0  0
 30 31  1  0  0  0
 30 60  1  0  0  0
 31 32  1  0  0  0
 33 61  1  0  0  0
M  END
> <s_m_entry_id>
17104

> <s_m_entry_name>
ligand_docking-pose.31

> <s_m_Source_Path>
/home/csk/Desktop/cluster/DUD-E-result/esr1

> <s_m_Source_File>
ligand_docking-pose.sdf

> <i_m_Source_File_Index>
31

> <i_lp_mmshare_version>
53161

> <i_f3d_flags>
0

> <r_lp_tautomer_probability>
1

> <s_lp_Force_Field>
OPLS_2005

> <r_lp_Energy>
61.365762

> <b_lp_Chiralities_Consistent>
1

> <s_lp_Variant>
326396-1

> <s_i_glide_gridfile>
glide-grid_1sj0

> <i_i_glide_lignum>
67

> <i_i_glide_rotatable_bonds>
7

> <r_i_docking_score>
-10.5971573463776

> <r_i_glide_ligand_efficiency>
-0.321125980193262

> <r_i_glide_ligand_efficiency_sa>
-1.03002260452295

> <r_i_glide_ligand_efficiency_ln>
-2.35675292469018

> <r_i_glide_gscore>
-10.5971573463776

> <r_i_glide_lipo>
-6.03800880448495

> <r_i_glide_hbond>
-0.256127100461788

> <r_i_glide_metal>
0

> <r_i_glide_rewards>
-1.53189683694609

> <r_i_glide_evdw>
-46.4155464172363

> <r_i_glide_ecoul>
-5.25169897079468

> <r_i_glide_erotb>
0.337407561996196

> <r_i_glide_esite>
0

> <r_i_glide_emodel>
-67.8225112421573

> <r_i_glide_energy>
-51.667245388031

> <r_i_glide_einternal>
7.43942499160767

> <i_i_glide_confnum>
3

> <i_i_glide_posenum>
30

> <r_i_glide_eff_state_penalty>
0

> <s_user_duplicate_titles>
326396

> <s_m_subgroup_title>
dock_pv

> <s_m_subgroupid>
dock_pv1

> <b_m_subgroup_collapsed>
0

$$$$
150198
                    3D
 Schrodinger Suite 2021-1.
 38 40  0  0  1  0            999 V2000
   31.2395   -1.0080   25.1824 C   0  0  0  0  0  0
   31.8272   -1.4992   24.0207 C   0  0  0  0  0  0
   32.6390   -2.6262   24.0799 C   0  0  0  0  0  0
   32.8620   -3.2712   25.2925 C   0  0  0  0  0  0
   32.2676   -2.7853   26.4534 C   0  0  0  0  0  0
   31.4685   -1.6364   26.4136 C   0  0  0  0  0  0
   30.8638   -1.0638   27.7127 C   0  0  2  0  0  0
   29.3183   -1.1729   27.6536 C   0  0  0  0  0  0
   28.6946   -2.4014   27.3854 C   0  0  0  0  0  0
   27.3353   -2.4742   27.0819 C   0  0  0  0  0  0
   26.5671   -1.3154   27.0839 C   0  0  0  0  0  0
   27.1391   -0.1100   27.4640 C   0  0  0  0  0  0
   28.5017   -0.0278   27.7599 C   0  0  0  0  0  0
   29.1278    1.2861   28.1674 C   0  0  0  0  0  0
   30.4965    1.4347   27.5069 C   0  0  0  0  0  0
   31.3307    0.3253   28.0128 N   0  0  0  0  0  0
   32.6061    0.6224   28.4113 C   0  0  0  0  0  0
   33.0746    1.7569   28.2640 O   0  0  0  0  0  0
   33.4332   -0.3740   29.2597 C   0  0  0  0  0  0
   32.8317   -0.5420   30.4379 F   0  0  0  0  0  0
   33.5498   -1.5539   28.6640 F   0  0  0  0  0  0
   34.6648    0.0996   29.4641 F   0  0  0  0  0  0
   25.2603   -1.3420   26.6873 O   0  0  0  0  0  0
   33.2144   -3.1004   22.9331 O   0  0  0  0  0  0
   31.1991   -1.7125   28.5226 H   0  0  0  0  0  0
   30.6023   -0.1419   25.1141 H   0  0  0  0  0  0
   31.6600   -1.0069   23.0748 H   0  0  0  0  0  0
   33.4973   -4.1420   25.3404 H   0  0  0  0  0  0
   32.4511   -3.3009   27.3838 H   0  0  0  0  0  0
   29.2884   -3.3020   27.3155 H   0  0  0  0  0  0
   26.8941   -3.4202   26.8003 H   0  0  0  0  0  0
   26.5219    0.7768   27.4917 H   0  0  0  0  0  0
   29.2248    1.3420   29.2531 H   0  0  0  0  0  0
   28.4905    2.1243   27.8830 H   0  0  0  0  0  0
   30.8610    2.3951   27.8640 H   0  0  0  0  0  0
   30.4074    1.4754   26.4248 H   0  0  0  0  0  0
   25.0162   -2.2030   26.2796 H   0  0  0  0  0  0
   33.6596   -3.9425   23.0468 H   0  0  0  0  0  0
  1  6  1  0  0  0
  1  2  2  0  0  0
  1 26  1  0  0  0
  2  3  1  0  0  0
  2 27  1  0  0  0
  3  4  2  0  0  0
  3 24  1  0  0  0
  4  5  1  0  0  0
  4 28  1  0  0  0
  5  6  2  0  0  0
  5 29  1  0  0  0
  6  7  1  0  0  0
  7 25  1  0  0  0
  7 16  1  0  0  0
  7  8  1  0  0  0
  8 13  2  0  0  0
  8  9  1  0  0  0
  9 10  2  0  0  0
  9 30  1  0  0  0
 10 11  1  0  0  0
 10 31  1  0  0  0
 11 12  2  0  0  0
 11 23  1  0  0  0
 12 13  1  0  0  0
 12 32  1  0  0  0
 13 14  1  0  0  0
 14 15  1  0  0  0
 14 33  1  0  0  0
 14 34  1  0  0  0
 15 16  1  0  0  0
 15 35  1  0  0  0
 15 36  1  0  0  0
 16 17  1  0  0  0
 17 18  2  0  0  0
 17 19  1  0  0  0
 19 20  1  0  0  0
 19 21  1  0  0  0
 19 22  1  0  0  0
 23 37  1  0  0  0
 24 38  1  0  0  0
M  END
> <s_m_entry_id>
17105

> <s_m_entry_name>
ligand_docking-pose.32

> <s_m_Source_Path>
/home/csk/Desktop/cluster/DUD-E-result/esr1

> <s_m_Source_File>
ligand_docking-pose.sdf

> <i_m_Source_File_Index>
32

> <i_lp_mmshare_version>
53161

> <i_f3d_flags>
0

> <r_lp_tautomer_probability>
0.99999999999473

> <s_lp_Force_Field>
OPLS_2005

> <r_lp_Energy>
26.205384

> <b_lp_Chiralities_Consistent>
1

> <s_lp_Variant>
150198-1

> <s_i_glide_gridfile>
glide-grid_1sj0

> <i_i_glide_lignum>
444

> <i_i_glide_rotatable_bonds>
5

> <r_i_docking_score>
-10.5583207648866

> <r_i_glide_ligand_efficiency>
-0.439930031870276

> <r_i_glide_ligand_efficiency_sa>
-1.26897779751617

> <r_i_glide_ligand_efficiency_ln>
-2.52709064880749

> <r_i_glide_gscore>
-10.5583207648866

> <r_i_glide_lipo>
-4.10462539212122

> <r_i_glide_hbond>
-0.202946857000173

> <r_i_glide_metal>
0

> <r_i_glide_rewards>
-3.66005102792558

> <r_i_glide_evdw>
-40.5909767150879

> <r_i_glide_ecoul>
-5.29131555557251

> <r_i_glide_erotb>
0.232548681250618

> <r_i_glide_esite>
0

> <r_i_glide_emodel>
-76.9656265607365

> <r_i_glide_energy>
-45.8822922706604

> <r_i_glide_einternal>
1.1611659526825

> <i_i_glide_confnum>
8

> <i_i_glide_posenum>
107

> <r_i_glide_eff_state_penalty>
0

> <s_user_duplicate_titles>
150198

> <s_m_subgroup_title>
dock_pv

> <s_m_subgroupid>
dock_pv1

> <b_m_subgroup_collapsed>
0

$$$$
323288
                    3D
 Schrodinger Suite 2021-1.
 65 69  0  0  1  0            999 V2000
   33.6596   -3.9585   17.7757 C   0  0  0  0  0  0
   33.7023   -2.7506   18.7218 C   0  0  0  0  0  0
   33.6197   -3.2256   20.1104 N   0  0  2  0  0  0
   32.2203   -3.1702   20.5502 C   0  0  0  0  0  0
   32.0396   -3.7558   21.9618 C   0  0  0  0  0  0
   32.9235   -3.1452   22.9609 N   0  0  0  0  0  0
   34.3113   -3.1240   22.4887 C   0  0  0  0  0  0
   34.5043   -2.5287   21.0604 C   0  0  1  0  0  0
   36.0090   -2.5858   20.7177 C   0  0  0  0  0  0
   32.4603   -2.5417   24.1194 C   0  0  0  0  0  0
   31.5427   -1.4965   24.0304 C   0  0  0  0  0  0
   30.9786   -0.9457   25.1743 C   0  0  0  0  0  0
   31.3173   -1.4426   26.4363 C   0  0  0  0  0  0
   32.2755   -2.4590   26.5360 C   0  0  0  0  0  0
   32.8555   -2.9937   25.3823 C   0  0  0  0  0  0
   30.6526   -0.8426   27.6917 C   0  0  2  0  0  0
   29.1097   -0.7976   27.5315 C   0  0  0  0  0  0
   28.3736   -1.9392   27.1826 C   0  0  0  0  0  0
   26.9994   -1.8729   26.9539 C   0  0  0  0  0  0
   26.3349   -0.6560   27.0673 C   0  0  0  0  0  0
   27.0378    0.4726   27.4640 C   0  0  0  0  0  0
   28.4086    0.4145   27.7143 C   0  0  0  0  0  0
   29.1505    1.6492   28.1892 C   0  0  0  0  0  0
   30.4190    1.2463   28.9501 C   0  0  0  0  0  0
   31.2423    0.4722   28.0242 N   0  0  0  0  0  0
   32.5917    0.7423   27.9860 C   0  0  0  0  0  0
   33.0139    1.7487   27.1227 C   0  0  0  0  0  0
   34.3485    2.0942   27.0592 C   0  0  0  0  0  0
   35.2602    1.4372   27.8666 C   0  0  0  0  0  0
   34.8592    0.4207   28.7325 C   0  0  0  0  0  0
   33.5134    0.0663   28.7901 C   0  0  0  0  0  0
   25.0028   -0.5420   26.7739 O   0  0  0  0  0  0
   33.7161   -3.6394   16.7351 H   0  0  0  0  0  0
   32.7381   -4.5303   17.8967 H   0  0  0  0  0  0
   34.4940   -4.6352   17.9638 H   0  0  0  0  0  0
   34.6154   -2.1943   18.5222 H   0  0  0  0  0  0
   32.8823   -2.0718   18.4769 H   0  0  0  0  0  0
   31.8532   -2.1445   20.5267 H   0  0  0  0  0  0
   31.5963   -3.7385   19.8581 H   0  0  0  0  0  0
   31.0017   -3.6217   22.2634 H   0  0  0  0  0  0
   32.1990   -4.8358   21.9531 H   0  0  0  0  0  0
   34.8915   -2.5432   23.2052 H   0  0  0  0  0  0
   34.6828   -4.1445   22.5086 H   0  0  0  0  0  0
   34.2134   -1.4791   21.0639 H   0  0  0  0  0  0
   36.6095   -2.1359   21.5071 H   0  0  0  0  0  0
   36.3432   -3.6161   20.5936 H   0  0  0  0  0  0
   36.2560   -2.0460   19.8056 H   0  0  0  0  0  0
   31.2596   -1.1158   23.0662 H   0  0  0  0  0  0
   30.2614   -0.1433   25.0792 H   0  0  0  0  0  0
   32.5672   -2.8407   27.5027 H   0  0  0  0  0  0
   33.5728   -3.7976   25.4656 H   0  0  0  0  0  0
   30.8684   -1.5188   28.5207 H   0  0  0  0  0  0
   28.8796   -2.8867   27.0639 H   0  0  0  0  0  0
   26.4602   -2.7605   26.6578 H   0  0  0  0  0  0
   26.5168    1.4123   27.5748 H   0  0  0  0  0  0
   28.5106    2.2615   28.8234 H   0  0  0  0  0  0
   29.4162    2.2598   27.3256 H   0  0  0  0  0  0
   30.2035    0.6833   29.8597 H   0  0  0  0  0  0
   30.9398    2.1546   29.2585 H   0  0  0  0  0  0
   32.3114    2.2577   26.4878 H   0  0  0  0  0  0
   34.6775    2.8488   26.3668 H   0  0  0  0  0  0
   36.2966    1.7197   27.7908 H   0  0  0  0  0  0
   35.5879   -0.0871   29.3480 H   0  0  0  0  0  0
   33.1872   -0.7150   29.4603 H   0  0  0  0  0  0
   24.7279    0.3799   26.6944 H   0  0  0  0  0  0
  1  2  1  0  0  0
  1 33  1  0  0  0
  1 34  1  0  0  0
  1 35  1  0  0  0
  2  3  1  0  0  0
  2 36  1  0  0  0
  2 37  1  0  0  0
  3  8  1  0  0  0
  3  4  1  0  0  0
  4  5  1  0  0  0
  4 38  1  0  0  0
  4 39  1  0  0  0
  5  6  1  0  0  0
  5 40  1  0  0  0
  5 41  1  0  0  0
  6  7  1  0  0  0
  6 10  1  0  0  0
  7  8  1  0  0  0
  7 42  1  0  0  0
  7 43  1  0  0  0
  8  9  1  0  0  0
  8 44  1  0  0  0
  9 45  1  0  0  0
  9 46  1  0  0  0
  9 47  1  0  0  0
 10 15  1  0  0  0
 10 11  2  0  0  0
 11 12  1  0  0  0
 11 48  1  0  0  0
 12 13  2  0  0  0
 12 49  1  0  0  0
 13 14  1  0  0  0
 13 16  1  0  0  0
 14 15  2  0  0  0
 14 50  1  0  0  0
 15 51  1  0  0  0
 16 25  1  0  0  0
 16 17  1  0  0  0
 16 52  1  0  0  0
 17 22  2  0  0  0
 17 18  1  0  0  0
 18 19  2  0  0  0
 18 53  1  0  0  0
 19 20  1  0  0  0
 19 54  1  0  0  0
 20 21  2  0  0  0
 20 32  1  0  0  0
 21 22  1  0  0  0
 21 55  1  0  0  0
 22 23  1  0  0  0
 23 24  1  0  0  0
 23 56  1  0  0  0
 23 57  1  0  0  0
 24 25  1  0  0  0
 24 58  1  0  0  0
 24 59  1  0  0  0
 25 26  1  0  0  0
 26 31  1  0  0  0
 26 27  2  0  0  0
 27 28  1  0  0  0
 27 60  1  0  0  0
 28 29  2  0  0  0
 28 61  1  0  0  0
 29 30  1  0  0  0
 29 62  1  0  0  0
 30 31  2  0  0  0
 30 63  1  0  0  0
 31 64  1  0  0  0
 32 65  1  0  0  0
M  END
> <s_m_entry_id>
17106

> <s_m_entry_name>
ligand_docking-pose.33

> <s_m_Source_Path>
/home/csk/Desktop/cluster/DUD-E-result/esr1

> <s_m_Source_File>
ligand_docking-pose.sdf

> <i_m_Source_File_Index>
33

> <i_lp_mmshare_version>
53161

> <i_f3d_flags>
0

> <r_lp_tautomer_probability>
0.999999999997365

> <s_lp_Force_Field>
OPLS_2005

> <r_lp_Energy>
55.833306

> <b_lp_Chiralities_Consistent>
1

> <s_lp_Variant>
323288-1

> <s_i_glide_gridfile>
glide-grid_1sj0

> <i_i_glide_lignum>
1614

> <i_i_glide_rotatable_bonds>
5

> <r_i_docking_score>
-10.553714328951

> <r_i_glide_ligand_efficiency>
-0.32980357277972

> <r_i_glide_ligand_efficiency_sa>
-1.04706107553718

> <r_i_glide_ligand_efficiency_ln>
-2.36326432163947

> <r_i_glide_gscore>
-10.553714328951

> <r_i_glide_lipo>
-5.60354567310022

> <r_i_glide_hbond>
-0.351375772973053

> <r_i_glide_metal>
0

> <r_i_glide_rewards>
-1.91658175783546

> <r_i_glide_evdw>
-53.0014228820801

> <r_i_glide_ecoul>
-2.38640904426575

> <r_i_glide_erotb>
0.325821375701561

> <r_i_glide_esite>
0

> <r_i_glide_emodel>
-66.9666615085703

> <r_i_glide_energy>
-55.3878319263458

> <r_i_glide_einternal>
10.1659088134766

> <i_i_glide_confnum>
19

> <i_i_glide_posenum>
312

> <r_i_glide_eff_state_penalty>
0

> <s_user_duplicate_titles>
323288

> <s_m_subgroup_title>
dock_pv

> <s_m_subgroupid>
dock_pv1

> <b_m_subgroup_collapsed>
0

$$$$
164184
                    3D
 Schrodinger Suite 2021-1.
 64 68  0  0  1  0            999 V2000
   30.7303   -1.7864   29.1156 C   0  0  0  0  0  0
   30.5941   -0.8246   27.9086 C   0  0  1  0  0  0
   29.0709   -0.6380   27.6183 C   0  0  0  0  0  0
   28.2514   -1.7287   27.2734 C   0  0  0  0  0  0
   26.8778   -1.5831   27.0818 C   0  0  0  0  0  0
   26.3026   -0.3250   27.1952 C   0  0  0  0  0  0
   27.1014    0.7754   27.4641 C   0  0  0  0  0  0
   28.4636    0.6336   27.7147 C   0  0  0  0  0  0
   29.2812    1.8391   28.1332 C   0  0  0  0  0  0
   30.4394    1.3944   29.0244 C   0  0  0  0  0  0
   31.2612    0.4574   28.2554 N   0  0  0  0  0  0
   32.6025    0.7444   28.0858 C   0  0  0  0  0  0
   32.9305    1.7832   27.2216 C   0  0  0  0  0  0
   34.2454    2.1887   27.0666 C   0  0  0  0  0  0
   35.2461    1.5375   27.7806 C   0  0  0  0  0  0
   34.9292    0.4917   28.6508 C   0  0  0  0  0  0
   33.6057    0.0941   28.8078 C   0  0  0  0  0  0
   24.9553   -0.1428   27.0631 O   0  0  0  0  0  0
   31.2385   -1.3962   26.6103 C   0  0  0  0  0  0
   32.0323   -2.5547   26.5810 C   0  0  0  0  0  0
   32.6316   -2.9807   25.3973 C   0  0  0  0  0  0
   32.4481   -2.2521   24.2179 C   0  0  0  0  0  0
   31.6595   -1.1090   24.2390 C   0  0  0  0  0  0
   31.0565   -0.6870   25.4154 C   0  0  0  0  0  0
   33.0464   -2.5445   23.0148 O   0  0  0  0  0  0
   33.3043   -3.8977   22.6432 C   0  0  0  0  0  0
   34.3124   -3.8975   21.4742 C   0  0  0  0  0  0
   33.9156   -3.0145   20.3729 N   0  0  0  0  0  0
   32.7656   -3.4892   19.6146 C   0  0  0  0  0  0
   32.7502   -2.6284   18.3515 C   0  0  0  0  0  0
   34.2161   -2.2238   18.1603 C   0  0  0  0  0  0
   34.9389   -2.8637   19.3495 C   0  0  0  0  0  0
   30.0812   -2.6512   29.0035 H   0  0  0  0  0  0
   31.7463   -2.1398   29.2660 H   0  0  0  0  0  0
   30.4604   -1.3138   30.0526 H   0  0  0  0  0  0
   28.6823   -2.7150   27.1725 H   0  0  0  0  0  0
   26.2628   -2.4418   26.8489 H   0  0  0  0  0  0
   26.6500    1.7508   27.5491 H   0  0  0  0  0  0
   28.6609    2.5545   28.6714 H   0  0  0  0  0  0
   29.6599    2.3460   27.2468 H   0  0  0  0  0  0
   30.0816    0.9613   29.9578 H   0  0  0  0  0  0
   31.0275    2.2663   29.3123 H   0  0  0  0  0  0
   32.1460    2.2578   26.6635 H   0  0  0  0  0  0
   34.4725    3.0047   26.3946 H   0  0  0  0  0  0
   36.2706    1.8483   27.6441 H   0  0  0  0  0  0
   35.7122   -0.0073   29.2037 H   0  0  0  0  0  0
   33.3687   -0.6935   29.5050 H   0  0  0  0  0  0
   24.7133    0.8000   27.0639 H   0  0  0  0  0  0
   32.2223   -3.1401   27.4634 H   0  0  0  0  0  0
   33.2604   -3.8557   25.4258 H   0  0  0  0  0  0
   31.5294   -0.5430   23.3309 H   0  0  0  0  0  0
   30.4588    0.2132   25.4068 H   0  0  0  0  0  0
   32.3702   -4.3791   22.3488 H   0  0  0  0  0  0
   33.7201   -4.4978   23.4523 H   0  0  0  0  0  0
   34.4496   -4.9158   21.1058 H   0  0  0  0  0  0
   35.2800   -3.5682   21.8571 H   0  0  0  0  0  0
   31.8594   -3.3773   20.2115 H   0  0  0  0  0  0
   32.8424   -4.5566   19.3987 H   0  0  0  0  0  0
   32.1051   -1.7578   18.4824 H   0  0  0  0  0  0
   32.3673   -3.1921   17.5009 H   0  0  0  0  0  0
   34.6184   -2.5906   17.2159 H   0  0  0  0  0  0
   34.3360   -1.1401   18.1699 H   0  0  0  0  0  0
   35.4159   -3.8148   19.0970 H   0  0  0  0  0  0
   35.7379   -2.2309   19.7398 H   0  0  0  0  0  0
  1  2  1  0  0  0
  1 33  1  0  0  0
  1 34  1  0  0  0
  1 35  1  0  0  0
  2 11  1  0  0  0
  2  3  1  0  0  0
  2 19  1  0  0  0
  3  8  2  0  0  0
  3  4  1  0  0  0
  4  5  2  0  0  0
  4 36  1  0  0  0
  5  6  1  0  0  0
  5 37  1  0  0  0
  6  7  2  0  0  0
  6 18  1  0  0  0
  7  8  1  0  0  0
  7 38  1  0  0  0
  8  9  1  0  0  0
  9 10  1  0  0  0
  9 39  1  0  0  0
  9 40  1  0  0  0
 10 11  1  0  0  0
 10 41  1  0  0  0
 10 42  1  0  0  0
 11 12  1  0  0  0
 12 17  1  0  0  0
 12 13  2  0  0  0
 13 14  1  0  0  0
 13 43  1  0  0  0
 14 15  2  0  0  0
 14 44  1  0  0  0
 15 16  1  0  0  0
 15 45  1  0  0  0
 16 17  2  0  0  0
 16 46  1  0  0  0
 17 47  1  0  0  0
 18 48  1  0  0  0
 19 24  1  0  0  0
 19 20  2  0  0  0
 20 21  1  0  0  0
 20 49  1  0  0  0
 21 22  2  0  0  0
 21 50  1  0  0  0
 22 23  1  0  0  0
 22 25  1  0  0  0
 23 24  2  0  0  0
 23 51  1  0  0  0
 24 52  1  0  0  0
 25 26  1  0  0  0
 26 27  1  0  0  0
 26 53  1  0  0  0
 26 54  1  0  0  0
 27 28  1  0  0  0
 27 55  1  0  0  0
 27 56  1  0  0  0
 28 32  1  0  0  0
 28 29  1  0  0  0
 29 30  1  0  0  0
 29 57  1  0  0  0
 29 58  1  0  0  0
 30 31  1  0  0  0
 30 59  1  0  0  0
 30 60  1  0  0  0
 31 32  1  0  0  0
 31 61  1  0  0  0
 31 62  1  0  0  0
 32 63  1  0  0  0
 32 64  1  0  0  0
M  END
> <s_m_entry_id>
17107

> <s_m_entry_name>
ligand_docking-pose.34

> <s_m_Source_Path>
/home/csk/Desktop/cluster/DUD-E-result/esr1

> <s_m_Source_File>
ligand_docking-pose.sdf

> <i_m_Source_File_Index>
34

> <i_lp_mmshare_version>
53161

> <i_f3d_flags>
0

> <r_lp_tautomer_probability>
0.999999999997365

> <s_lp_Force_Field>
OPLS_2005

> <r_lp_Energy>
58.953941

> <b_lp_Chiralities_Consistent>
1

> <s_lp_Variant>
164184-2

> <s_i_glide_gridfile>
glide-grid_1sj0

> <i_i_glide_lignum>
894

> <i_i_glide_rotatable_bonds>
7

> <r_i_docking_score>
-10.5427514771547

> <r_i_glide_ligand_efficiency>
-0.329460983661085

> <r_i_glide_ligand_efficiency_sa>
-1.04597342288381

> <r_i_glide_ligand_efficiency_ln>
-2.36080944028623

> <r_i_glide_gscore>
-10.5427514771547

> <r_i_glide_lipo>
-5.9280456945761

> <r_i_glide_hbond>
-0.323026982721865

> <r_i_glide_metal>
0

> <r_i_glide_rewards>
-1.38373104248195

> <r_i_glide_evdw>
-48.3027076721191

> <r_i_glide_ecoul>
-6.89060544967651

> <r_i_glide_erotb>
0.540778443682617

> <r_i_glide_esite>
0

> <r_i_glide_emodel>
-75.5581567166215

> <r_i_glide_energy>
-55.1933131217957

> <r_i_glide_einternal>
7.66977977752686

> <i_i_glide_confnum>
1

> <i_i_glide_posenum>
14

> <r_i_glide_eff_state_penalty>
0

> <s_user_duplicate_titles>
164184

> <s_m_subgroup_title>
dock_pv

> <s_m_subgroupid>
dock_pv1

> <b_m_subgroup_collapsed>
0

$$$$
302025
                    3D
 Schrodinger Suite 2021-1.
 67 71  0  0  1  0            999 V2000
   33.4883   -5.7122   17.6428 C   0  0  0  0  0  0
   34.1181   -4.6965   18.6094 C   0  0  1  0  0  0
   34.6549   -3.4359   17.9221 C   0  0  0  0  0  0
   34.0195   -2.2725   18.6911 C   0  0  0  0  0  0
   33.5416   -2.7917   19.9697 N   0  0  1  0  0  0
   33.1098   -4.1430   19.6258 C   0  0  0  0  0  0
   34.5580   -2.7452   21.0279 C   0  0  0  0  0  0
   34.0137   -3.0996   22.4300 C   0  0  0  0  0  0
   32.8843   -2.2867   22.7523 O   0  0  0  0  0  0
   32.4215   -2.2356   24.0515 C   0  0  0  0  0  0
   31.3173   -1.4159   24.2788 C   0  0  0  0  0  0
   30.7781   -1.2827   25.5509 C   0  0  0  0  0  0
   31.3646   -1.9363   26.6377 C   0  0  0  0  0  0
   32.4608   -2.7792   26.4117 C   0  0  0  0  0  0
   32.9799   -2.9410   25.1280 C   0  0  0  0  0  0
   30.8587   -1.7310   28.0775 C   0  0  1  0  0  0
   30.7146   -0.2751   28.5932 C   0  0  2  0  0  0
   29.4572    0.4714   28.0569 C   0  0  1  0  0  0
   28.2990   -0.5012   27.8638 C   0  0  0  0  0  0
   27.0352   -0.0582   27.4610 C   0  0  0  0  0  0
   25.9942   -0.9589   27.2750 C   0  0  0  0  0  0
   26.1842   -2.3056   27.5503 C   0  0  0  0  0  0
   27.4435   -2.7892   27.8640 C   0  0  0  0  0  0
   28.4951   -1.8937   27.9991 C   0  0  0  0  0  0
   29.6830   -2.4749   28.3696 O   0  0  0  0  0  0
   24.7899   -0.5384   26.7958 O   0  0  0  0  0  0
   29.1165    1.7159   28.9031 C   0  0  0  0  0  0
   32.0308    0.4732   28.4504 C   0  0  0  0  0  0
   32.2353    1.3438   27.3777 C   0  0  0  0  0  0
   33.4590    1.9462   27.1916 C   0  0  0  0  0  0
   34.4762    1.6621   28.0801 C   0  0  0  0  0  0
   34.3053    0.8068   29.1629 C   0  0  0  0  0  0
   33.0674    0.2096   29.3516 C   0  0  0  0  0  0
   35.6614    2.2578   27.8637 O   0  0  0  0  0  0
   34.9254   -5.1951   19.1455 H   0  0  0  0  0  0
   31.6252   -2.1631   28.7171 H   0  0  0  0  0  0
   30.5675   -0.3636   29.6702 H   0  0  0  0  0  0
   29.6260    0.8404   27.0516 H   0  0  0  0  0  0
   32.6406   -5.2841   17.1074 H   0  0  0  0  0  0
   33.1229   -6.5858   18.1841 H   0  0  0  0  0  0
   34.2124   -6.0573   16.9056 H   0  0  0  0  0  0
   35.7428   -3.3930   17.9879 H   0  0  0  0  0  0
   34.3859   -3.3901   16.8666 H   0  0  0  0  0  0
   34.7493   -1.4759   18.8503 H   0  0  0  0  0  0
   33.2068   -1.7944   18.1404 H   0  0  0  0  0  0
   32.0814   -4.1374   19.2606 H   0  0  0  0  0  0
   33.0647   -4.7959   20.4977 H   0  0  0  0  0  0
   35.3902   -3.4070   20.7781 H   0  0  0  0  0  0
   34.9733   -1.7404   21.0645 H   0  0  0  0  0  0
   33.7395   -4.1537   22.4944 H   0  0  0  0  0  0
   34.8243   -2.9370   23.1423 H   0  0  0  0  0  0
   30.8624   -0.8786   23.4642 H   0  0  0  0  0  0
   29.9022   -0.6667   25.6632 H   0  0  0  0  0  0
   32.9232   -3.3055   27.2323 H   0  0  0  0  0  0
   33.8234   -3.6010   24.9892 H   0  0  0  0  0  0
   26.8670    0.9898   27.2629 H   0  0  0  0  0  0
   25.3601   -2.9955   27.4641 H   0  0  0  0  0  0
   27.5957   -3.8453   28.0173 H   0  0  0  0  0  0
   24.7388    0.4166   26.6634 H   0  0  0  0  0  0
   28.2582    2.2565   28.5089 H   0  0  0  0  0  0
   28.8955    1.4571   29.9358 H   0  0  0  0  0  0
   29.9518    2.4161   28.9219 H   0  0  0  0  0  0
   31.4651    1.5515   26.6644 H   0  0  0  0  0  0
   33.6237    2.6119   26.3570 H   0  0  0  0  0  0
   35.1208    0.5984   29.8413 H   0  0  0  0  0  0
   32.9280   -0.4754   30.1743 H   0  0  0  0  0  0
   36.3804    1.8728   28.3813 H   0  0  0  0  0  0
  1  2  1  0  0  0
  1 39  1  0  0  0
  1 40  1  0  0  0
  1 41  1  0  0  0
  2 35  1  0  0  0
  2  6  1  0  0  0
  2  3  1  0  0  0
  3  4  1  0  0  0
  3 42  1  0  0  0
  3 43  1  0  0  0
  4  5  1  0  0  0
  4 44  1  0  0  0
  4 45  1  0  0  0
  5  6  1  0  0  0
  5  7  1  0  0  0
  6 46  1  0  0  0
  6 47  1  0  0  0
  7  8  1  0  0  0
  7 48  1  0  0  0
  7 49  1  0  0  0
  8  9  1  0  0  0
  8 50  1  0  0  0
  8 51  1  0  0  0
  9 10  1  0  0  0
 10 15  1  0  0  0
 10 11  2  0  0  0
 11 12  1  0  0  0
 11 52  1  0  0  0
 12 13  2  0  0  0
 12 53  1  0  0  0
 13 14  1  0  0  0
 13 16  1  0  0  0
 14 15  2  0  0  0
 14 54  1  0  0  0
 15 55  1  0  0  0
 16 36  1  0  0  0
 16 25  1  0  0  0
 16 17  1  0  0  0
 17 37  1  0  0  0
 17 18  1  0  0  0
 17 28  1  0  0  0
 18 38  1  0  0  0
 18 19  1  0  0  0
 18 27  1  0  0  0
 19 24  2  0  0  0
 19 20  1  0  0  0
 20 21  2  0  0  0
 20 56  1  0  0  0
 21 22  1  0  0  0
 21 26  1  0  0  0
 22 23  2  0  0  0
 22 57  1  0  0  0
 23 24  1  0  0  0
 23 58  1  0  0  0
 24 25  1  0  0  0
 26 59  1  0  0  0
 27 60  1  0  0  0
 27 61  1  0  0  0
 27 62  1  0  0  0
 28 33  1  0  0  0
 28 29  2  0  0  0
 29 30  1  0  0  0
 29 63  1  0  0  0
 30 31  2  0  0  0
 30 64  1  0  0  0
 31 32  1  0  0  0
 31 34  1  0  0  0
 32 33  2  0  0  0
 32 65  1  0  0  0
 33 66  1  0  0  0
 34 67  1  0  0  0
M  END
> <s_m_entry_id>
17108

> <s_m_entry_name>
ligand_docking-pose.35

> <s_m_Source_Path>
/home/csk/Desktop/cluster/DUD-E-result/esr1

> <s_m_Source_File>
ligand_docking-pose.sdf

> <i_m_Source_File_Index>
35

> <i_lp_mmshare_version>
53161

> <i_f3d_flags>
0

> <r_lp_tautomer_probability>
0.999999999997365

> <s_lp_Force_Field>
OPLS_2005

> <r_lp_Energy>
50.263814

> <b_lp_Chiralities_Consistent>
1

> <s_lp_Variant>
302025-1

> <s_i_glide_gridfile>
glide-grid_1sj0

> <i_i_glide_lignum>
1573

> <i_i_glide_rotatable_bonds>
8

> <r_i_docking_score>
-10.5391009674707

> <r_i_glide_ligand_efficiency>
-0.309973557866786

> <r_i_glide_ligand_efficiency_sa>
-1.00419399496883

> <r_i_glide_ligand_efficiency_ln>
-2.32838301548338

> <r_i_glide_gscore>
-10.5391009674707

> <r_i_glide_lipo>
-5.58174621956728

> <r_i_glide_hbond>
-0.680012204362749

> <r_i_glide_metal>
0

> <r_i_glide_rewards>
-1.17561395439734

> <r_i_glide_evdw>
-51.6796951293945

> <r_i_glide_ecoul>
-7.26235914230347

> <r_i_glide_erotb>
0.571610038671894

> <r_i_glide_esite>
0

> <r_i_glide_emodel>
-86.8080919457282

> <r_i_glide_energy>
-58.942054271698

> <r_i_glide_einternal>
9.66389846801758

> <i_i_glide_confnum>
4

> <i_i_glide_posenum>
171

> <r_i_glide_eff_state_penalty>
0

> <s_user_duplicate_titles>
302025

> <s_m_subgroup_title>
dock_pv

> <s_m_subgroupid>
dock_pv1

> <b_m_subgroup_collapsed>
0

$$$$
52347
                    3D
 Schrodinger Suite 2021-1.
 42 44  0  0  1  0            999 V2000
   30.0600    0.8499   29.3743 C   0  0  0  0  0  0
   30.8232    0.0536   28.3182 C   0  0  0  0  0  0
   30.3236   -0.9676   27.5554 C   0  0  0  0  0  0
   28.9621   -1.5543   27.6848 C   0  0  0  0  0  0
   27.7972   -0.7784   27.6278 C   0  0  0  0  0  0
   26.5479   -1.3746   27.8011 C   0  0  0  0  0  0
   26.4627   -2.7512   28.0080 C   0  0  0  0  0  0
   27.6038   -3.5409   28.0046 C   0  0  0  0  0  0
   28.8452   -2.9406   27.8529 C   0  0  0  0  0  0
   25.2600   -3.3420   28.2640 O   0  0  0  0  0  0
   31.1399   -1.6188   26.4934 C   0  0  0  0  0  0
   32.1611   -2.5118   26.8302 C   0  0  0  0  0  0
   32.8999   -3.1357   25.8311 C   0  0  0  0  0  0
   32.6558   -2.8378   24.4951 C   0  0  0  0  0  0
   31.6600   -1.9302   24.1473 C   0  0  0  0  0  0
   30.8848   -1.3407   25.1450 C   0  0  0  0  0  0
   33.3961   -3.4515   23.5217 O   0  0  0  0  0  0
   32.2044    0.5483   28.1472 C   0  0  0  0  0  0
   32.5730    1.0752   26.9140 C   0  0  0  0  0  0
   33.8474    1.5701   26.7095 C   0  0  0  0  0  0
   34.7832    1.4705   27.7290 C   0  0  0  0  0  0
   34.4401    0.9473   28.9739 C   0  0  0  0  0  0
   33.1373    0.5013   29.1901 C   0  0  0  0  0  0
   36.0600    1.8580   27.4640 O   0  0  0  0  0  0
   30.4600    0.6580   30.3698 H   0  0  0  0  0  0
   30.1669    1.9170   29.1761 H   0  0  0  0  0  0
   28.9935    0.6580   29.4001 H   0  0  0  0  0  0
   27.8553    0.2873   27.4610 H   0  0  0  0  0  0
   25.6548   -0.7683   27.7880 H   0  0  0  0  0  0
   27.5321   -4.6082   28.1500 H   0  0  0  0  0  0
   29.7200   -3.5695   27.8640 H   0  0  0  0  0  0
   24.8602   -3.5789   27.4049 H   0  0  0  0  0  0
   32.3784   -2.7302   27.8640 H   0  0  0  0  0  0
   33.6600   -3.8544   26.0892 H   0  0  0  0  0  0
   31.4648   -1.7021   23.1103 H   0  0  0  0  0  0
   30.0964   -0.6544   24.8706 H   0  0  0  0  0  0
   33.0825   -3.2675   22.6335 H   0  0  0  0  0  0
   31.8686    1.0580   26.1049 H   0  0  0  0  0  0
   34.1249    1.9689   25.7455 H   0  0  0  0  0  0
   35.1759    0.8778   29.7615 H   0  0  0  0  0  0
   32.8676    0.0899   30.1519 H   0  0  0  0  0  0
   36.7071    1.5882   28.1366 H   0  0  0  0  0  0
  1  2  1  0  0  0
  1 25  1  0  0  0
  1 26  1  0  0  0
  1 27  1  0  0  0
  2  3  2  3  0  0
  2 18  1  0  0  0
  3  4  1  0  0  0
  3 11  1  0  0  0
  4  9  1  0  0  0
  4  5  2  0  0  0
  5  6  1  0  0  0
  5 28  1  0  0  0
  6  7  2  0  0  0
  6 29  1  0  0  0
  7  8  1  0  0  0
  7 10  1  0  0  0
  8  9  2  0  0  0
  8 30  1  0  0  0
  9 31  1  0  0  0
 10 32  1  0  0  0
 11 16  1  0  0  0
 11 12  2  0  0  0
 12 13  1  0  0  0
 12 33  1  0  0  0
 13 14  2  0  0  0
 13 34  1  0  0  0
 14 15  1  0  0  0
 14 17  1  0  0  0
 15 16  2  0  0  0
 15 35  1  0  0  0
 16 36  1  0  0  0
 17 37  1  0  0  0
 18 23  1  0  0  0
 18 19  2  0  0  0
 19 20  1  0  0  0
 19 38  1  0  0  0
 20 21  2  0  0  0
 20 39  1  0  0  0
 21 22  1  0  0  0
 21 24  1  0  0  0
 22 23  2  0  0  0
 22 40  1  0  0  0
 23 41  1  0  0  0
 24 42  1  0  0  0
M  END
> <s_m_entry_id>
17109

> <s_m_entry_name>
ligand_docking-pose.36

> <s_m_Source_Path>
/home/csk/Desktop/cluster/DUD-E-result/esr1

> <s_m_Source_File>
ligand_docking-pose.sdf

> <i_m_Source_File_Index>
36

> <i_lp_mmshare_version>
53161

> <i_f3d_flags>
0

> <r_lp_tautomer_probability>
1

> <s_lp_Force_Field>
OPLS_2005

> <r_lp_Energy>
27.809267

> <b_lp_Chiralities_Consistent>
1

> <s_lp_Variant>
52347-1

> <s_i_glide_gridfile>
glide-grid_1sj0

> <i_i_glide_lignum>
1278

> <i_i_glide_rotatable_bonds>
6

> <r_i_docking_score>
-10.5311152712867

> <r_i_glide_ligand_efficiency>
-0.438796469636947

> <r_i_glide_ligand_efficiency_sa>
-1.26570803823176

> <r_i_glide_ligand_efficiency_ln>
-2.52057912581028

> <r_i_glide_gscore>
-10.5311152712867

> <r_i_glide_lipo>
-5.14129691960266

> <r_i_glide_hbond>
-0.460091915925526

> <r_i_glide_metal>
0

> <r_i_glide_rewards>
-2.13841486363636

> <r_i_glide_evdw>
-36.3495864868164

> <r_i_glide_ecoul>
-9.06741809844971

> <r_i_glide_erotb>
0.386280466986089

> <r_i_glide_esite>
0

> <r_i_glide_emodel>
-60.984562359761

> <r_i_glide_energy>
-45.4170045852661

> <r_i_glide_einternal>
7.42556428909302

> <i_i_glide_confnum>
7

> <i_i_glide_posenum>
194

> <r_i_glide_eff_state_penalty>
0

> <s_user_duplicate_titles>
52347

> <s_m_subgroup_title>
dock_pv

> <s_m_subgroupid>
dock_pv1

> <b_m_subgroup_collapsed>
0

$$$$
332039
                    3D
 Schrodinger Suite 2021-1.
 61 65  0  0  1  0            999 V2000
   35.4359   -0.4388   17.0800 C   0  0  0  0  0  0
   35.5925   -1.3438   18.3173 C   0  0  2  0  0  0
   36.3941   -2.6319   18.0553 C   0  0  0  0  0  0
   35.4865   -3.7593   18.5557 C   0  0  0  0  0  0
   34.5939   -3.1289   19.5170 N   0  0  1  0  0  0
   34.2598   -1.8748   18.8547 C   0  0  0  0  0  0
   33.4341   -3.9573   19.8752 C   0  0  0  0  0  0
   32.6329   -3.3633   21.0541 C   0  0  0  0  0  0
   33.4309   -3.4040   22.2332 O   0  0  0  0  0  0
   32.9150   -2.9507   23.4283 C   0  0  0  0  0  0
   33.5888   -3.3559   24.5723 C   0  0  0  0  0  0
   33.1256   -3.0110   25.8309 C   0  0  0  0  0  0
   31.9984   -2.2008   25.9751 C   0  0  0  0  0  0
   31.3399   -1.7427   24.8225 C   0  0  0  0  0  0
   31.7882   -2.1317   23.5580 C   0  0  0  0  0  0
   31.6062   -1.7890   27.3613 C   0  0  0  0  0  0
   32.2510   -2.1416   28.3477 O   0  0  0  0  0  0
   30.5999   -0.7601   27.5465 C   0  0  0  0  0  0
   29.1823   -0.8925   27.4146 C   0  0  0  0  0  0
   28.4033   -2.0241   27.1133 C   0  0  0  0  0  0
   27.0239   -1.8956   26.9468 C   0  0  0  0  0  0
   26.3909   -0.6647   27.0937 C   0  0  0  0  0  0
   27.1135    0.4650   27.4628 C   0  0  0  0  0  0
   28.4987    0.3456   27.6180 C   0  0  0  0  0  0
   29.5934    1.6258   28.0654 S   0  0  0  0  0  0
   30.9374    0.5414   27.8660 C   0  0  0  0  0  0
   32.2998    1.0909   28.0085 C   0  0  0  0  0  0
   33.0161    0.9219   29.1949 C   0  0  0  0  0  0
   34.3243    1.3900   29.2679 C   0  0  0  0  0  0
   34.8507    2.0795   28.1807 C   0  0  0  0  0  0
   34.1593    2.2306   26.9961 C   0  0  0  0  0  0
   32.9056    1.6691   26.8928 C   0  0  0  0  0  0
   36.0600    2.6578   28.2639 O   0  0  0  0  0  0
   25.0484   -0.5423   26.8564 O   0  0  0  0  0  0
   36.0731   -0.7589   19.1059 H   0  0  0  0  0  0
   34.9615   -0.9671   16.2539 H   0  0  0  0  0  0
   34.8272    0.4368   17.3100 H   0  0  0  0  0  0
   36.4031   -0.0758   16.7381 H   0  0  0  0  0  0
   37.3321   -2.6257   18.6101 H   0  0  0  0  0  0
   36.6305   -2.7680   16.9975 H   0  0  0  0  0  0
   36.0437   -4.5511   19.0597 H   0  0  0  0  0  0
   34.9433   -4.2580   17.7470 H   0  0  0  0  0  0
   33.5102   -2.0219   18.0723 H   0  0  0  0  0  0
   33.7880   -1.1776   19.5402 H   0  0  0  0  0  0
   33.7833   -4.9479   20.1769 H   0  0  0  0  0  0
   32.7861   -4.1090   19.0092 H   0  0  0  0  0  0
   31.7279   -3.9543   21.2073 H   0  0  0  0  0  0
   32.3165   -2.3509   20.8225 H   0  0  0  0  0  0
   34.4585   -3.9865   24.4876 H   0  0  0  0  0  0
   33.6603   -3.3775   26.6939 H   0  0  0  0  0  0
   30.4803   -1.0928   24.8858 H   0  0  0  0  0  0
   31.2592   -1.7899   22.6858 H   0  0  0  0  0  0
   28.8678   -2.9903   26.9861 H   0  0  0  0  0  0
   26.4480   -2.7661   26.6700 H   0  0  0  0  0  0
   26.6204    1.4172   27.6013 H   0  0  0  0  0  0
   32.5700    0.4149   30.0422 H   0  0  0  0  0  0
   34.8910    1.2865   30.1787 H   0  0  0  0  0  0
   34.6259    2.6812   26.1372 H   0  0  0  0  0  0
   32.4603    1.6673   25.9235 H   0  0  0  0  0  0
   36.7315    2.0797   28.6634 H   0  0  0  0  0  0
   24.7601    0.3754   26.7761 H   0  0  0  0  0  0
  1  2  1  0  0  0
  1 36  1  0  0  0
  1 37  1  0  0  0
  1 38  1  0  0  0
  2 35  1  0  0  0
  2  6  1  0  0  0
  2  3  1  0  0  0
  3  4  1  0  0  0
  3 39  1  0  0  0
  3 40  1  0  0  0
  4  5  1  0  0  0
  4 41  1  0  0  0
  4 42  1  0  0  0
  5  6  1  0  0  0
  5  7  1  0  0  0
  6 43  1  0  0  0
  6 44  1  0  0  0
  7  8  1  0  0  0
  7 45  1  0  0  0
  7 46  1  0  0  0
  8  9  1  0  0  0
  8 47  1  0  0  0
  8 48  1  0  0  0
  9 10  1  0  0  0
 10 15  1  0  0  0
 10 11  2  0  0  0
 11 12  1  0  0  0
 11 49  1  0  0  0
 12 13  2  0  0  0
 12 50  1  0  0  0
 13 14  1  0  0  0
 13 16  1  0  0  0
 14 15  2  0  0  0
 14 51  1  0  0  0
 15 52  1  0  0  0
 16 17  2  0  0  0
 16 18  1  0  0  0
 18 26  2  0  0  0
 18 19  1  0  0  0
 19 24  2  0  0  0
 19 20  1  0  0  0
 20 21  2  0  0  0
 20 53  1  0  0  0
 21 22  1  0  0  0
 21 54  1  0  0  0
 22 23  2  0  0  0
 22 34  1  0  0  0
 23 24  1  0  0  0
 23 55  1  0  0  0
 24 25  1  0  0  0
 25 26  1  0  0  0
 26 27  1  0  0  0
 27 32  1  0  0  0
 27 28  2  0  0  0
 28 29  1  0  0  0
 28 56  1  0  0  0
 29 30  2  0  0  0
 29 57  1  0  0  0
 30 31  1  0  0  0
 30 33  1  0  0  0
 31 32  2  0  0  0
 31 58  1  0  0  0
 32 59  1  0  0  0
 33 60  1  0  0  0
 34 61  1  0  0  0
M  END
> <s_m_entry_id>
17110

> <s_m_entry_name>
ligand_docking-pose.37

> <s_m_Source_Path>
/home/csk/Desktop/cluster/DUD-E-result/esr1

> <s_m_Source_File>
ligand_docking-pose.sdf

> <i_m_Source_File_Index>
37

> <i_lp_mmshare_version>
53161

> <i_f3d_flags>
0

> <r_lp_tautomer_probability>
0.999999999997365

> <s_lp_Force_Field>
OPLS_2005

> <r_lp_Energy>
51.492635

> <b_lp_Chiralities_Consistent>
1

> <s_lp_Variant>
332039-1

> <s_i_glide_gridfile>
glide-grid_1sj0

> <i_i_glide_lignum>
1576

> <i_i_glide_rotatable_bonds>
9

> <r_i_docking_score>
-10.5303563223414

> <r_i_glide_ligand_efficiency>
-0.309716362421807

> <r_i_glide_ligand_efficiency_sa>
-1.00336078157102

> <r_i_glide_ligand_efficiency_ln>
-2.32645107809533

> <r_i_glide_gscore>
-10.5303563223414

> <r_i_glide_lipo>
-5.61973582388538

> <r_i_glide_hbond>
-0.625231791144082

> <r_i_glide_metal>
0

> <r_i_glide_rewards>
-1.3612364048089

> <r_i_glide_evdw>
-38.1644515991211

> <r_i_glide_ecoul>
-10.9818592071533

> <r_i_glide_erotb>
0.631349158525988

> <r_i_glide_esite>
0

> <r_i_glide_emodel>
-51.6346229749692

> <r_i_glide_energy>
-49.1463108062744

> <r_i_glide_einternal>
11.2000179290771

> <i_i_glide_confnum>
1

> <i_i_glide_posenum>
5

> <r_i_glide_eff_state_penalty>
0

> <s_user_duplicate_titles>
332039

> <s_m_subgroup_title>
dock_pv

> <s_m_subgroupid>
dock_pv1

> <b_m_subgroup_collapsed>
0

$$$$
326298
                    3D
 Schrodinger Suite 2021-1.
 59 64  0  0  1  0            999 V2000
   34.0047    1.0581   29.8651 C   0  0  0  0  0  0
   34.5483   -0.1571   29.4640 C   0  0  0  0  0  0
   33.7615   -1.1415   28.8719 C   0  0  0  0  0  0
   32.4479   -0.8041   28.5601 C   0  0  0  0  0  0
   31.8977    0.4299   28.9587 C   0  0  0  0  0  0
   32.6563    1.3536   29.6629 C   0  0  0  0  0  0
   30.5817    0.4628   28.5276 C   0  0  0  0  0  0
   30.2800   -0.7272   27.9142 C   0  0  0  0  0  0
   31.4349   -1.4740   27.8781 N   0  0  0  0  0  0
   31.6633   -2.7218   27.1701 C   0  0  0  0  0  0
   32.1511   -2.5916   25.7402 C   0  0  0  0  0  0
   33.0859   -3.5191   25.3060 C   0  0  0  0  0  0
   33.4547   -3.5717   23.9751 C   0  0  0  0  0  0
   32.9909   -2.6156   23.0705 C   0  0  0  0  0  0
   32.0626   -1.6705   23.5161 C   0  0  0  0  0  0
   31.6340   -1.6556   24.8424 C   0  0  0  0  0  0
   33.4087   -2.5421   21.7548 O   0  0  0  0  0  0
   34.5221   -3.3245   21.2984 C   0  0  0  0  0  0
   35.4794   -2.4755   20.4398 C   0  0  0  0  0  0
   34.8780   -1.8739   19.2480 N   0  0  0  0  0  0
   35.8332   -0.9414   18.6320 C   0  0  0  0  0  0
   35.3120   -0.3708   17.2977 C   0  0  0  0  0  0
   34.9713   -1.4403   16.4227 O   0  0  0  0  0  0
   33.9450   -2.2657   16.9647 C   0  0  0  0  0  0
   34.3956   -2.8888   18.2991 C   0  0  0  0  0  0
   28.9425   -0.8201   27.5261 C   0  0  0  0  0  0
   28.2855   -1.9216   26.9728 C   0  0  0  0  0  0
   26.9295   -1.8056   26.7006 C   0  0  0  0  0  0
   26.2225   -0.6302   26.9563 C   0  0  0  0  0  0
   26.8688    0.4931   27.4641 C   0  0  0  0  0  0
   28.2244    0.3856   27.7836 C   0  0  0  0  0  0
   29.2701    1.5885   28.5481 S   0  0  0  0  0  0
   24.8885   -0.5420   26.6641 O   0  0  0  0  0  0
   34.6345    1.7783   30.3659 H   0  0  0  0  0  0
   35.5878   -0.3654   29.6747 H   0  0  0  0  0  0
   34.1502   -2.1205   28.6640 H   0  0  0  0  0  0
   32.2052    2.2580   30.0195 H   0  0  0  0  0  0
   30.7719   -3.3417   27.2036 H   0  0  0  0  0  0
   32.4549   -3.2499   27.7153 H   0  0  0  0  0  0
   33.4604   -4.2750   25.9789 H   0  0  0  0  0  0
   34.0601   -4.4037   23.6714 H   0  0  0  0  0  0
   31.6737   -0.9364   22.8330 H   0  0  0  0  0  0
   30.8969   -0.9313   25.1572 H   0  0  0  0  0  0
   34.1567   -4.2002   20.7612 H   0  0  0  0  0  0
   35.1540   -3.7065   22.0952 H   0  0  0  0  0  0
   36.3385   -3.0850   20.1518 H   0  0  0  0  0  0
   35.8717   -1.6773   21.0705 H   0  0  0  0  0  0
   36.7820   -1.4501   18.4508 H   0  0  0  0  0  0
   36.0525   -0.1368   19.3337 H   0  0  0  0  0  0
   34.4556    0.2847   17.4636 H   0  0  0  0  0  0
   36.0827    0.2395   16.8258 H   0  0  0  0  0  0
   33.0220   -1.6968   17.0910 H   0  0  0  0  0  0
   33.7251   -3.0638   16.2567 H   0  0  0  0  0  0
   33.5770   -3.4596   18.7394 H   0  0  0  0  0  0
   35.1918   -3.6085   18.0992 H   0  0  0  0  0  0
   28.7862   -2.8520   26.7690 H   0  0  0  0  0  0
   26.4600   -2.6672   26.2637 H   0  0  0  0  0  0
   26.3381    1.4142   27.6473 H   0  0  0  0  0  0
   24.5847    0.3749   26.6638 H   0  0  0  0  0  0
  1  6  1  0  0  0
  1  2  2  0  0  0
  1 34  1  0  0  0
  2  3  1  0  0  0
  2 35  1  0  0  0
  3  4  2  0  0  0
  3 36  1  0  0  0
  4  9  1  0  0  0
  4  5  1  0  0  0
  5  6  2  0  0  0
  5  7  1  0  0  0
  6 37  1  0  0  0
  7 32  1  0  0  0
  7  8  2  0  0  0
  8  9  1  0  0  0
  8 26  1  0  0  0
  9 10  1  0  0  0
 10 11  1  0  0  0
 10 38  1  0  0  0
 10 39  1  0  0  0
 11 16  1  0  0  0
 11 12  2  0  0  0
 12 13  1  0  0  0
 12 40  1  0  0  0
 13 14  2  0  0  0
 13 41  1  0  0  0
 14 15  1  0  0  0
 14 17  1  0  0  0
 15 16  2  0  0  0
 15 42  1  0  0  0
 16 43  1  0  0  0
 17 18  1  0  0  0
 18 19  1  0  0  0
 18 44  1  0  0  0
 18 45  1  0  0  0
 19 20  1  0  0  0
 19 46  1  0  0  0
 19 47  1  0  0  0
 20 25  1  0  0  0
 20 21  1  0  0  0
 21 22  1  0  0  0
 21 48  1  0  0  0
 21 49  1  0  0  0
 22 23  1  0  0  0
 22 50  1  0  0  0
 22 51  1  0  0  0
 23 24  1  0  0  0
 24 25  1  0  0  0
 24 52  1  0  0  0
 24 53  1  0  0  0
 25 54  1  0  0  0
 25 55  1  0  0  0
 26 31  2  0  0  0
 26 27  1  0  0  0
 27 28  2  0  0  0
 27 56  1  0  0  0
 28 29  1  0  0  0
 28 57  1  0  0  0
 29 30  2  0  0  0
 29 33  1  0  0  0
 30 31  1  0  0  0
 30 58  1  0  0  0
 31 32  1  0  0  0
 33 59  1  0  0  0
M  END
> <s_m_entry_id>
17111

> <s_m_entry_name>
ligand_docking-pose.38

> <s_m_Source_Path>
/home/csk/Desktop/cluster/DUD-E-result/esr1

> <s_m_Source_File>
ligand_docking-pose.sdf

> <i_m_Source_File_Index>
38

> <i_lp_mmshare_version>
53161

> <i_f3d_flags>
0

> <r_lp_tautomer_probability>
1

> <s_lp_Force_Field>
OPLS_2005

> <r_lp_Energy>
65.538618

> <b_lp_Chiralities_Consistent>
1

> <s_lp_Variant>
326298-1

> <s_i_glide_gridfile>
glide-grid_1sj0

> <i_i_glide_lignum>
69

> <i_i_glide_rotatable_bonds>
7

> <r_i_docking_score>
-10.506644566726

> <r_i_glide_ligand_efficiency>
-0.318383168688667

> <r_i_glide_ligand_efficiency_sa>
-1.02122494247151

> <r_i_glide_ligand_efficiency_ln>
-2.33662335114575

> <r_i_glide_gscore>
-10.506644566726

> <r_i_glide_lipo>
-6.19720236584048

> <r_i_glide_hbond>
-0.365977952290499

> <r_i_glide_metal>
0

> <r_i_glide_rewards>
-1.46773228056686

> <r_i_glide_evdw>
-44.8934745788574

> <r_i_glide_ecoul>
-4.72866868972778

> <r_i_glide_erotb>
0.478242064373884

> <r_i_glide_esite>
0

> <r_i_glide_emodel>
-66.4781397623137

> <r_i_glide_energy>
-49.6221432685852

> <r_i_glide_einternal>
5.65853071212769

> <i_i_glide_confnum>
7

> <i_i_glide_posenum>
107

> <r_i_glide_eff_state_penalty>
0

> <s_user_duplicate_titles>
326298

> <s_m_subgroup_title>
dock_pv

> <s_m_subgroupid>
dock_pv1

> <b_m_subgroup_collapsed>
0

$$$$
150298
                    3D
 Schrodinger Suite 2021-1.
 37 39  0  0  1  0            999 V2000
   32.6688   -2.6951   24.0737 C   0  0  0  0  0  0
   31.7865   -1.6216   24.0122 C   0  0  0  0  0  0
   31.1856   -1.1527   25.1771 C   0  0  0  0  0  0
   31.4679   -1.7514   26.4131 C   0  0  0  0  0  0
   32.3286   -2.8547   26.4518 C   0  0  0  0  0  0
   32.9419   -3.3124   25.2897 C   0  0  0  0  0  0
   30.8669   -1.1893   27.7196 C   0  0  2  0  0  0
   29.3194   -1.2543   27.6641 C   0  0  0  0  0  0
   28.6670   -2.4706   27.4197 C   0  0  0  0  0  0
   27.3065   -2.5170   27.1187 C   0  0  0  0  0  0
   26.5657   -1.3402   27.1003 C   0  0  0  0  0  0
   27.1662   -0.1420   27.4592 C   0  0  0  0  0  0
   28.5319   -0.0863   27.7462 C   0  0  0  0  0  0
   29.1919    1.2224   28.1155 C   0  0  0  0  0  0
   30.5752    1.3026   27.4721 C   0  0  0  0  0  0
   31.3630    0.1847   28.0293 N   0  0  0  0  0  0
   32.6344    0.4557   28.4595 C   0  0  0  0  0  0
   33.1333    1.5766   28.3104 O   0  0  0  0  0  0
   33.4180   -0.5326   29.3564 C   0  0  0  0  0  0
   32.8600   -0.5420   30.5678 F   0  0  0  0  0  0
   33.4166   -1.7686   28.8751 F   0  0  0  0  0  0
   34.6908   -0.1423   29.4642 F   0  0  0  0  0  0
   25.2601   -1.3420   26.6991 O   0  0  0  0  0  0
   33.1407   -3.0554   23.1710 H   0  0  0  0  0  0
   31.5782   -1.1507   23.0641 H   0  0  0  0  0  0
   30.4992   -0.3241   25.1080 H   0  0  0  0  0  0
   32.5447   -3.3575   27.3811 H   0  0  0  0  0  0
   33.6304   -4.1420   25.3290 H   0  0  0  0  0  0
   31.1776   -1.8565   28.5227 H   0  0  0  0  0  0
   29.2439   -3.3817   27.3661 H   0  0  0  0  0  0
   26.8471   -3.4583   26.8520 H   0  0  0  0  0  0
   26.5710    0.7601   27.4675 H   0  0  0  0  0  0
   29.2699    1.3172   29.2001 H   0  0  0  0  0  0
   28.5863    2.0679   27.7869 H   0  0  0  0  0  0
   30.9771    2.2581   27.7906 H   0  0  0  0  0  0
   30.5034    1.3124   26.3879 H   0  0  0  0  0  0
   25.0063   -2.1998   26.2909 H   0  0  0  0  0  0
  1  6  1  0  0  0
  1  2  2  0  0  0
  1 24  1  0  0  0
  2  3  1  0  0  0
  2 25  1  0  0  0
  3  4  2  0  0  0
  3 26  1  0  0  0
  4  5  1  0  0  0
  4  7  1  0  0  0
  5  6  2  0  0  0
  5 27  1  0  0  0
  6 28  1  0  0  0
  7 16  1  0  0  0
  7  8  1  0  0  0
  7 29  1  0  0  0
  8 13  2  0  0  0
  8  9  1  0  0  0
  9 10  2  0  0  0
  9 30  1  0  0  0
 10 11  1  0  0  0
 10 31  1  0  0  0
 11 12  2  0  0  0
 11 23  1  0  0  0
 12 13  1  0  0  0
 12 32  1  0  0  0
 13 14  1  0  0  0
 14 15  1  0  0  0
 14 33  1  0  0  0
 14 34  1  0  0  0
 15 16  1  0  0  0
 15 35  1  0  0  0
 15 36  1  0  0  0
 16 17  1  0  0  0
 17 18  2  0  0  0
 17 19  1  0  0  0
 19 20  1  0  0  0
 19 21  1  0  0  0
 19 22  1  0  0  0
 23 37  1  0  0  0
M  END
> <s_m_entry_id>
17112

> <s_m_entry_name>
ligand_docking-pose.39

> <s_m_Source_Path>
/home/csk/Desktop/cluster/DUD-E-result/esr1

> <s_m_Source_File>
ligand_docking-pose.sdf

> <i_m_Source_File_Index>
39

> <i_lp_mmshare_version>
53161

> <i_f3d_flags>
0

> <r_lp_tautomer_probability>
0.999999999997365

> <s_lp_Force_Field>
OPLS_2005

> <r_lp_Energy>
26.775623

> <b_lp_Chiralities_Consistent>
1

> <s_lp_Variant>
150298-1

> <s_i_glide_gridfile>
glide-grid_1sj0

> <i_i_glide_lignum>
184

> <i_i_glide_rotatable_bonds>
4

> <r_i_docking_score>
-10.4927442844346

> <r_i_glide_ligand_efficiency>
-0.456206273236289

> <r_i_glide_ligand_efficiency_sa>
-1.29738995510184

> <r_i_glide_ligand_efficiency_ln>
-2.53724071092121

> <r_i_glide_gscore>
-10.4927442844346

> <r_i_glide_lipo>
-4.11903035881064

> <r_i_glide_hbond>
-0.20416911769667

> <r_i_glide_metal>
0

> <r_i_glide_rewards>
-3.66951809329901

> <r_i_glide_evdw>
-39.3094367980957

> <r_i_glide_ecoul>
-5.25303316116333

> <r_i_glide_erotb>
0.253400099450967

> <r_i_glide_esite>
0

> <r_i_glide_emodel>
-72.5084382876639

> <r_i_glide_energy>
-44.562469959259

> <r_i_glide_einternal>
1.30152308940887

> <i_i_glide_confnum>
11

> <i_i_glide_posenum>
185

> <r_i_glide_eff_state_penalty>
0

> <s_user_duplicate_titles>
150298

> <s_m_subgroup_title>
dock_pv

> <s_m_subgroupid>
dock_pv1

> <b_m_subgroup_collapsed>
0

$$$$
174304
                    3D
 Schrodinger Suite 2021-1.
 50 52  0  0  1  0            999 V2000
   30.9435    0.9381   30.6204 C   0  0  0  0  0  0
   30.3628    0.9838   29.1948 C   0  0  0  0  0  0
   31.1670    0.2195   28.1298 C   0  0  0  0  0  0
   30.6851   -0.7860   27.3474 C   0  0  0  0  0  0
   29.3226   -1.3446   27.4696 C   0  0  0  0  0  0
   28.1702   -0.5673   27.2998 C   0  0  0  0  0  0
   26.9137   -1.1502   27.4420 C   0  0  0  0  0  0
   26.8214   -2.5092   27.7273 C   0  0  0  0  0  0
   27.9482   -3.2962   27.8649 C   0  0  0  0  0  0
   29.1954   -2.7091   27.7493 C   0  0  0  0  0  0
   25.6129   -3.1064   27.8641 O   0  0  0  0  0  0
   31.4803   -1.4599   26.2871 C   0  0  0  0  0  0
   32.3936   -2.4642   26.6143 C   0  0  0  0  0  0
   33.0000   -3.2093   25.6084 C   0  0  0  0  0  0
   32.7155   -2.9614   24.2677 C   0  0  0  0  0  0
   31.8512   -1.9144   23.9333 C   0  0  0  0  0  0
   31.2240   -1.1793   24.9403 C   0  0  0  0  0  0
   33.3442   -3.7709   23.3431 O   0  0  0  0  0  0
   32.6791   -4.1410   22.1231 C   0  0  0  0  0  0
   33.6208   -3.8609   20.9381 C   0  0  0  0  0  0
   34.5877   -3.1029   21.0067 O   0  0  0  0  0  0
   33.2616   -4.5416   19.8047 O   0  0  0  0  0  0
   32.5608    0.6634   28.0041 C   0  0  0  0  0  0
   32.8578    1.7615   27.2015 C   0  0  0  0  0  0
   34.1593    2.2251   27.1060 C   0  0  0  0  0  0
   35.1564    1.6015   27.8473 C   0  0  0  0  0  0
   34.8687    0.5126   28.6646 C   0  0  0  0  0  0
   33.5654    0.0378   28.7446 C   0  0  0  0  0  0
   30.2904    1.4563   31.3226 H   0  0  0  0  0  0
   31.0571   -0.0876   30.9779 H   0  0  0  0  0  0
   31.9187    1.4254   30.6733 H   0  0  0  0  0  0
   30.3152    2.0239   28.8786 H   0  0  0  0  0  0
   29.3275    0.6582   29.2368 H   0  0  0  0  0  0
   28.2526    0.4846   27.0674 H   0  0  0  0  0  0
   26.0220   -0.5536   27.3197 H   0  0  0  0  0  0
   27.8585   -4.3502   28.0740 H   0  0  0  0  0  0
   30.0596   -3.3405   27.8634 H   0  0  0  0  0  0
   25.2581   -3.3422   26.9740 H   0  0  0  0  0  0
   32.5859   -2.7138   27.6461 H   0  0  0  0  0  0
   33.6611   -4.0205   25.8640 H   0  0  0  0  0  0
   31.6545   -1.6705   22.9028 H   0  0  0  0  0  0
   30.5118   -0.4109   24.6756 H   0  0  0  0  0  0
   32.4599   -5.2105   22.1643 H   0  0  0  0  0  0
   31.7274   -3.6365   21.9512 H   0  0  0  0  0  0
   32.5085   -5.1509   19.8794 H   0  0  0  0  0  0
   32.0653    2.2483   26.6637 H   0  0  0  0  0  0
   34.3954    3.0577   26.4657 H   0  0  0  0  0  0
   36.1685    1.9659   27.7760 H   0  0  0  0  0  0
   35.6588    0.0420   29.2271 H   0  0  0  0  0  0
   33.3370   -0.8003   29.3880 H   0  0  0  0  0  0
  1  2  1  0  0  0
  1 29  1  0  0  0
  1 30  1  0  0  0
  1 31  1  0  0  0
  2  3  1  0  0  0
  2 32  1  0  0  0
  2 33  1  0  0  0
  3  4  2  0  0  0
  3 23  1  0  0  0
  4  5  1  0  0  0
  4 12  1  0  0  0
  5 10  1  0  0  0
  5  6  2  0  0  0
  6  7  1  0  0  0
  6 34  1  0  0  0
  7  8  2  0  0  0
  7 35  1  0  0  0
  8  9  1  0  0  0
  8 11  1  0  0  0
  9 10  2  0  0  0
  9 36  1  0  0  0
 10 37  1  0  0  0
 11 38  1  0  0  0
 12 17  1  0  0  0
 12 13  2  0  0  0
 13 14  1  0  0  0
 13 39  1  0  0  0
 14 15  2  0  0  0
 14 40  1  0  0  0
 15 16  1  0  0  0
 15 18  1  0  0  0
 16 17  2  0  0  0
 16 41  1  0  0  0
 17 42  1  0  0  0
 18 19  1  0  0  0
 19 20  1  0  0  0
 19 43  1  0  0  0
 19 44  1  0  0  0
 20 21  2  0  0  0
 20 22  1  0  0  0
 22 45  1  0  0  0
 23 28  1  0  0  0
 23 24  2  0  0  0
 24 25  1  0  0  0
 24 46  1  0  0  0
 25 26  2  0  0  0
 25 47  1  0  0  0
 26 27  1  0  0  0
 26 48  1  0  0  0
 27 28  2  0  0  0
 27 49  1  0  0  0
 28 50  1  0  0  0
M  END
> <s_m_entry_id>
17113

> <s_m_entry_name>
ligand_docking-pose.40

> <s_m_Source_Path>
/home/csk/Desktop/cluster/DUD-E-result/esr1

> <s_m_Source_File>
ligand_docking-pose.sdf

> <i_m_Source_File_Index>
40

> <i_lp_mmshare_version>
53161

> <i_f3d_flags>
0

> <r_lp_tautomer_probability>
1

> <s_lp_Force_Field>
OPLS_2005

> <r_lp_Energy>
32.862851

> <b_lp_Chiralities_Consistent>
1

> <s_lp_Variant>
174304-1

> <s_i_glide_gridfile>
glide-grid_1sj0

> <i_i_glide_lignum>
1401

> <i_i_glide_rotatable_bonds>
9

> <r_i_docking_score>
-10.4885844359217

> <r_i_glide_ligand_efficiency>
-0.374592301282919

> <r_i_glide_ligand_efficiency_sa>
-1.1374828497618

> <r_i_glide_ligand_efficiency_ln>
-2.4210732460314

> <r_i_glide_gscore>
-10.4885844359217

> <r_i_glide_lipo>
-5.31543830821334

> <r_i_glide_hbond>
-0.152

> <r_i_glide_metal>
0

> <r_i_glide_rewards>
-1.53423866412647

> <r_i_glide_evdw>
-46.7111473083496

> <r_i_glide_ecoul>
-13.8025026321411

> <r_i_glide_erotb>
0.965435473820379

> <r_i_glide_esite>
-0.0464101771636557

> <r_i_glide_emodel>
-90.3064789686772

> <r_i_glide_energy>
-60.5136499404907

> <r_i_glide_einternal>
14.8096685409546

> <i_i_glide_confnum>
110

> <i_i_glide_posenum>
201

> <r_i_glide_eff_state_penalty>
0

> <s_user_duplicate_titles>
174304

> <s_m_subgroup_title>
dock_pv

> <s_m_subgroupid>
dock_pv1

> <b_m_subgroup_collapsed>
0

$$$$
112794
                    3D
 Schrodinger Suite 2021-1.
 63 66  0  0  1  0            999 V2000
   34.2267    1.6130   27.5657 C   0  0  0  0  0  0
   33.1902    0.6039   28.1487 C   0  0  2  0  0  0
   32.9464   -0.5271   27.0921 C   0  0  0  0  0  0
   31.5774   -1.2273   26.9789 C   0  0  1  0  0  0
   30.5508   -0.6434   27.9759 C   0  0  2  0  0  0
   29.1567   -1.2532   27.8636 C   0  0  0  0  0  0
   29.0393   -2.6493   27.8648 C   0  0  0  0  0  0
   27.8066   -3.2689   27.8631 C   0  0  0  0  0  0
   26.6705   -2.4844   27.8633 C   0  0  0  0  0  0
   26.7484   -1.0959   27.8340 C   0  0  0  0  0  0
   27.9905   -0.4574   27.8212 C   0  0  0  0  0  0
   28.0895    1.0648   27.7629 C   0  0  0  0  0  0
   29.3209    1.5348   28.5485 C   0  0  0  0  0  0
   30.5949    0.9069   27.9432 C   0  0  1  0  0  0
   31.9094    1.3896   28.6219 C   0  0  1  0  0  0
   31.9044    1.3027   30.1719 C   0  0  0  0  0  0
   33.2853    0.8240   30.6022 C   0  0  0  0  0  0
   33.7434   -0.0502   29.4442 C   0  0  2  0  0  0
   35.1135   -0.3888   29.4639 O   0  0  0  0  0  0
   25.4734   -3.1043   27.8640 O   0  0  0  0  0  0
   31.0897   -1.4577   25.5056 C   0  0  0  0  0  0
   31.7892   -2.5625   24.6741 C   0  0  0  0  0  0
   33.3072   -2.3954   24.5146 C   0  0  0  0  0  0
   33.9513   -3.1063   23.3191 C   0  0  0  0  0  0
   33.5143   -2.5421   22.0908 O   0  0  0  0  0  0
   34.3763   -2.9300   20.7084 S   0  0  0  0  0  0
   33.9231   -2.0610   19.6202 O   0  0  0  0  0  0
   35.8015   -3.0245   21.0455 O   0  0  0  0  0  0
   33.6608   -4.6365   20.4229 C   0  0  0  0  0  0
   31.7717   -2.2342   27.3519 H   0  0  0  0  0  0
   33.2346   -1.0072   29.5848 H   0  0  0  0  0  0
   35.1320    1.1063   27.2279 H   0  0  0  0  0  0
   33.8246    2.1574   26.7105 H   0  0  0  0  0  0
   34.5383    2.3534   28.3006 H   0  0  0  0  0  0
   32.9701    0.0519   26.1681 H   0  0  0  0  0  0
   33.7568   -1.2447   27.0640 H   0  0  0  0  0  0
   30.8540   -0.9630   28.9741 H   0  0  0  0  0  0
   29.9152   -3.2779   27.8725 H   0  0  0  0  0  0
   27.7359   -4.3470   27.8658 H   0  0  0  0  0  0
   25.8397   -0.5126   27.8109 H   0  0  0  0  0  0
   28.1724    1.3768   26.7205 H   0  0  0  0  0  0
   27.1842    1.5343   28.1495 H   0  0  0  0  0  0
   29.4004    2.6220   28.5245 H   0  0  0  0  0  0
   29.2222    1.2906   29.6058 H   0  0  0  0  0  0
   30.6265    1.2077   26.8935 H   0  0  0  0  0  0
   32.0162    2.4433   28.3592 H   0  0  0  0  0  0
   31.6595    2.2580   30.6319 H   0  0  0  0  0  0
   31.1593    0.5957   30.5362 H   0  0  0  0  0  0
   33.9728    1.6610   30.7336 H   0  0  0  0  0  0
   33.2612    0.2819   31.5479 H   0  0  0  0  0  0
   35.2936   -0.8712   30.2770 H   0  0  0  0  0  0
   25.2600   -3.3421   26.9303 H   0  0  0  0  0  0
   30.0329   -1.7189   25.4970 H   0  0  0  0  0  0
   31.1303   -0.5137   24.9603 H   0  0  0  0  0  0
   31.5800   -3.5416   25.1078 H   0  0  0  0  0  0
   31.3288   -2.5693   23.6843 H   0  0  0  0  0  0
   33.5396   -1.3420   24.4211 H   0  0  0  0  0  0
   33.7983   -2.7434   25.4230 H   0  0  0  0  0  0
   35.0259   -2.9422   23.4083 H   0  0  0  0  0  0
   33.7575   -4.1792   23.3508 H   0  0  0  0  0  0
   33.9672   -4.9892   19.4403 H   0  0  0  0  0  0
   34.0185   -5.3192   21.1880 H   0  0  0  0  0  0
   32.5768   -4.5420   20.4648 H   0  0  0  0  0  0
  1  2  1  0  0  0
  1 32  1  0  0  0
  1 33  1  0  0  0
  1 34  1  0  0  0
  2 15  1  0  0  0
  2 18  1  0  0  0
  2  3  1  0  0  0
  3  4  1  0  0  0
  3 35  1  0  0  0
  3 36  1  0  0  0
  4 30  1  0  0  0
  4  5  1  0  0  0
  4 21  1  0  0  0
  5 14  1  0  0  0
  5  6  1  0  0  0
  5 37  1  0  0  0
  6 11  2  0  0  0
  6  7  1  0  0  0
  7  8  2  0  0  0
  7 38  1  0  0  0
  8  9  1  0  0  0
  8 39  1  0  0  0
  9 10  2  0  0  0
  9 20  1  0  0  0
 10 11  1  0  0  0
 10 40  1  0  0  0
 11 12  1  0  0  0
 12 13  1  0  0  0
 12 41  1  0  0  0
 12 42  1  0  0  0
 13 14  1  0  0  0
 13 43  1  0  0  0
 13 44  1  0  0  0
 14 15  1  0  0  0
 14 45  1  0  0  0
 15 16  1  0  0  0
 15 46  1  0  0  0
 16 17  1  0  0  0
 16 47  1  0  0  0
 16 48  1  0  0  0
 17 18  1  0  0  0
 17 49  1  0  0  0
 17 50  1  0  0  0
 18 31  1  0  0  0
 18 19  1  0  0  0
 19 51  1  0  0  0
 20 52  1  0  0  0
 21 22  1  0  0  0
 21 53  1  0  0  0
 21 54  1  0  0  0
 22 23  1  0  0  0
 22 55  1  0  0  0
 22 56  1  0  0  0
 23 24  1  0  0  0
 23 57  1  0  0  0
 23 58  1  0  0  0
 24 25  1  0  0  0
 24 59  1  0  0  0
 24 60  1  0  0  0
 25 26  1  0  0  0
 26 27  2  0  0  0
 26 28  2  0  0  0
 26 29  1  0  0  0
 29 61  1  0  0  0
 29 62  1  0  0  0
 29 63  1  0  0  0
M  END
> <s_m_entry_id>
17114

> <s_m_entry_name>
ligand_docking-pose.41

> <s_m_Source_Path>
/home/csk/Desktop/cluster/DUD-E-result/esr1

> <s_m_Source_File>
ligand_docking-pose.sdf

> <i_m_Source_File_Index>
41

> <i_lp_mmshare_version>
53161

> <i_f3d_flags>
0

> <r_lp_tautomer_probability>
0.999999999997365

> <s_lp_Force_Field>
OPLS_2005

> <r_lp_Energy>
46.611188

> <b_lp_Chiralities_Consistent>
1

> <s_lp_Variant>
112794-2

> <s_i_glide_gridfile>
glide-grid_1sj0

> <i_i_glide_lignum>
835

> <i_i_glide_rotatable_bonds>
8

> <r_i_docking_score>
-10.4875590408926

> <r_i_glide_ligand_efficiency>
-0.36163996692733

> <r_i_glide_ligand_efficiency_sa>
-1.11107255398421

> <r_i_glide_ligand_efficiency_ln>
-2.40138507881319

> <r_i_glide_gscore>
-10.4875590408926

> <r_i_glide_lipo>
-5.56724175475765

> <r_i_glide_hbond>
-0.16

> <r_i_glide_metal>
0

> <r_i_glide_rewards>
-1.4990771857457

> <r_i_glide_evdw>
-40.2880516052246

> <r_i_glide_ecoul>
-10.9009571075439

> <r_i_glide_erotb>
0.3883060460036

> <r_i_glide_esite>
0

> <r_i_glide_emodel>
-74.6877861051224

> <r_i_glide_energy>
-51.1890087127686

> <r_i_glide_einternal>
7.99409770965576

> <i_i_glide_confnum>
31

> <i_i_glide_posenum>
222

> <r_i_glide_eff_state_penalty>
0

> <s_user_duplicate_titles>
112794

> <s_m_subgroup_title>
dock_pv

> <s_m_subgroupid>
dock_pv1

> <b_m_subgroup_collapsed>
0

$$$$
149597
                    3D
 Schrodinger Suite 2021-1.
 42 45  0  0  1  0            999 V2000
   32.6600   -2.6491   24.4748 C   0  0  0  0  0  0
   32.9763   -3.1345   25.7407 C   0  0  0  0  0  0
   32.3952   -2.5635   26.8693 C   0  0  0  0  0  0
   31.4600   -1.5351   26.7273 C   0  0  0  0  0  0
   31.1543   -1.0456   25.4489 C   0  0  0  0  0  0
   31.7600   -1.5976   24.3239 C   0  0  0  0  0  0
   30.7449   -0.9734   27.9678 C   0  0  2  0  0  0
   29.2216   -0.9685   27.7292 C   0  0  0  0  0  0
   28.5561   -2.1505   27.3750 C   0  0  0  0  0  0
   27.2072   -2.1480   27.0376 C   0  0  0  0  0  0
   26.4939   -0.9567   27.0639 C   0  0  0  0  0  0
   27.1247    0.2187   27.4640 C   0  0  0  0  0  0
   28.4841    0.2282   27.7951 C   0  0  0  0  0  0
   29.1910    1.5031   28.2228 C   0  0  0  0  0  0
   30.3730    1.1812   29.1568 C   0  0  0  0  0  0
   31.3198    0.2949   28.4811 N   0  0  0  0  0  0
   32.5918    0.7596   28.2132 C   0  0  0  0  0  0
   32.8420    1.4027   27.0024 C   0  0  0  0  0  0
   34.0873    1.9587   26.7499 C   0  0  0  0  0  0
   35.0888    1.8539   27.7104 C   0  0  0  0  0  0
   34.8585    1.1902   28.9140 C   0  0  0  0  0  0
   33.6022    0.6481   29.1715 C   0  0  0  0  0  0
   25.1854   -0.9422   26.6641 O   0  0  0  0  0  0
   33.1162   -3.0933   23.6025 H   0  0  0  0  0  0
   33.6602   -3.9608   25.8426 H   0  0  0  0  0  0
   32.6486   -2.9416   27.8485 H   0  0  0  0  0  0
   30.4405   -0.2431   25.3271 H   0  0  0  0  0  0
   31.5224   -1.2241   23.3392 H   0  0  0  0  0  0
   30.8987   -1.7054   28.7636 H   0  0  0  0  0  0
   29.1066   -3.0776   27.3160 H   0  0  0  0  0  0
   26.7322   -3.0679   26.7263 H   0  0  0  0  0  0
   26.5555    1.1362   27.4874 H   0  0  0  0  0  0
   29.5566    2.0303   27.3407 H   0  0  0  0  0  0
   28.4946    2.1797   28.7186 H   0  0  0  0  0  0
   30.8660    2.1133   29.4379 H   0  0  0  0  0  0
   30.0597    0.7364   30.0968 H   0  0  0  0  0  0
   32.0608    1.4662   26.2649 H   0  0  0  0  0  0
   34.2838    2.4594   25.8138 H   0  0  0  0  0  0
   36.0617    2.2735   27.5105 H   0  0  0  0  0  0
   35.6497    1.1048   29.6452 H   0  0  0  0  0  0
   33.4118    0.1491   30.1107 H   0  0  0  0  0  0
   24.9379   -1.7942   26.2652 H   0  0  0  0  0  0
  1  6  1  0  0  0
  1  2  2  0  0  0
  1 24  1  0  0  0
  2  3  1  0  0  0
  2 25  1  0  0  0
  3  4  2  0  0  0
  3 26  1  0  0  0
  4  5  1  0  0  0
  4  7  1  0  0  0
  5  6  2  0  0  0
  5 27  1  0  0  0
  6 28  1  0  0  0
  7 16  1  0  0  0
  7  8  1  0  0  0
  7 29  1  0  0  0
  8 13  2  0  0  0
  8  9  1  0  0  0
  9 10  2  0  0  0
  9 30  1  0  0  0
 10 11  1  0  0  0
 10 31  1  0  0  0
 11 12  2  0  0  0
 11 23  1  0  0  0
 12 13  1  0  0  0
 12 32  1  0  0  0
 13 14  1  0  0  0
 14 15  1  0  0  0
 14 33  1  0  0  0
 14 34  1  0  0  0
 15 16  1  0  0  0
 15 35  1  0  0  0
 15 36  1  0  0  0
 16 17  1  0  0  0
 17 22  1  0  0  0
 17 18  2  0  0  0
 18 19  1  0  0  0
 18 37  1  0  0  0
 19 20  2  0  0  0
 19 38  1  0  0  0
 20 21  1  0  0  0
 20 39  1  0  0  0
 21 22  2  0  0  0
 21 40  1  0  0  0
 22 41  1  0  0  0
 23 42  1  0  0  0
M  END
> <s_m_entry_id>
17115

> <s_m_entry_name>
ligand_docking-pose.42

> <s_m_Source_Path>
/home/csk/Desktop/cluster/DUD-E-result/esr1

> <s_m_Source_File>
ligand_docking-pose.sdf

> <i_m_Source_File_Index>
42

> <i_lp_mmshare_version>
53161

> <i_f3d_flags>
0

> <r_lp_tautomer_probability>
0.999999999997365

> <s_lp_Force_Field>
OPLS_2005

> <r_lp_Energy>
26.213061

> <b_lp_Chiralities_Consistent>
1

> <s_lp_Variant>
149597-1

> <s_i_glide_gridfile>
glide-grid_1sj0

> <i_i_glide_lignum>
180

> <i_i_glide_rotatable_bonds>
3

> <r_i_docking_score>
-10.4769526315489

> <r_i_glide_ligand_efficiency>
-0.455519679632561

> <r_i_glide_ligand_efficiency_sa>
-1.29543737422566

> <r_i_glide_ligand_efficiency_ln>
-2.53342214606265

> <r_i_glide_gscore>
-10.4769526315489

> <r_i_glide_lipo>
-5.23671985742915

> <r_i_glide_hbond>
-0.188685546487228

> <r_i_glide_metal>
0

> <r_i_glide_rewards>
-2.51049386143252

> <r_i_glide_evdw>
-46.3541831970215

> <r_i_glide_ecoul>
-3.37925171852112

> <r_i_glide_erotb>
0.28354355142924

> <r_i_glide_esite>
0

> <r_i_glide_emodel>
-74.4764471983251

> <r_i_glide_energy>
-49.7334349155426

> <r_i_glide_einternal>
3.59671664237976

> <i_i_glide_confnum>
18

> <i_i_glide_posenum>
9

> <r_i_glide_eff_state_penalty>
0

> <s_user_duplicate_titles>
149597

> <s_m_subgroup_title>
dock_pv

> <s_m_subgroupid>
dock_pv1

> <b_m_subgroup_collapsed>
0

$$$$
149598
                    3D
 Schrodinger Suite 2021-1.
 48 51  0  0  1  0            999 V2000
   35.2600    1.6441   27.9782 C   0  0  0  0  0  0
   34.4202    2.1245   26.9932 C   0  0  0  0  0  0
   33.0697    1.8542   27.0591 C   0  0  0  0  0  0
   32.5606    1.0664   28.0875 C   0  0  0  0  0  0
   33.4037    0.6048   29.1038 C   0  0  0  0  0  0
   34.7658    0.8953   29.0466 C   0  0  0  0  0  0
   31.2293    0.7125   28.0092 N   0  0  0  0  0  0
   30.2800    1.4240   28.8606 C   0  0  0  0  0  0
   28.9690    1.5548   28.0778 C   0  0  0  0  0  0
   28.4295    0.1866   27.7087 C   0  0  0  0  0  0
   27.0677    0.0139   27.4546 C   0  0  0  0  0  0
   26.5662   -1.2259   27.0842 C   0  0  0  0  0  0
   27.4013   -2.3335   27.0688 C   0  0  0  0  0  0
   28.7544   -2.1753   27.3550 C   0  0  0  0  0  0
   29.3122   -0.9111   27.6052 C   0  0  0  0  0  0
   30.8450   -0.6998   27.7485 C   0  0  1  0  0  0
   31.6755   -1.3040   26.5433 C   0  0  0  0  0  0
   32.1722   -2.7507   26.7531 C   0  0  0  0  0  0
   33.1307   -3.1892   25.6303 C   0  0  0  0  0  0
   32.4857   -3.0361   24.2419 C   0  0  0  0  0  0
   31.9403   -1.6196   24.0125 C   0  0  0  0  0  0
   31.0105   -1.1579   25.1498 C   0  0  0  0  0  0
   25.2598   -1.3419   26.7115 O   0  0  0  0  0  0
   36.3105    1.8562   27.8640 H   0  0  0  0  0  0
   34.8262    2.6580   26.1519 H   0  0  0  0  0  0
   32.4399    2.2064   26.2640 H   0  0  0  0  0  0
   33.0140   -0.0066   29.9043 H   0  0  0  0  0  0
   35.4393    0.5219   29.8040 H   0  0  0  0  0  0
   30.6520    2.4295   29.0631 H   0  0  0  0  0  0
   30.1451    0.9413   29.8299 H   0  0  0  0  0  0
   29.1378    2.1356   27.1699 H   0  0  0  0  0  0
   28.2380    2.1114   28.6635 H   0  0  0  0  0  0
   26.4019    0.8640   27.4836 H   0  0  0  0  0  0
   27.0131   -3.3085   26.8078 H   0  0  0  0  0  0
   29.3733   -3.0547   27.3196 H   0  0  0  0  0  0
   31.1310   -1.2317   28.6576 H   0  0  0  0  0  0
   32.6132   -0.7604   26.4458 H   0  0  0  0  0  0
   32.7013   -2.8167   27.7051 H   0  0  0  0  0  0
   31.3454   -3.4462   26.8441 H   0  0  0  0  0  0
   34.0430   -2.5932   25.6688 H   0  0  0  0  0  0
   33.4366   -4.2198   25.7934 H   0  0  0  0  0  0
   33.2025   -3.2961   23.4619 H   0  0  0  0  0  0
   31.6644   -3.7418   24.1505 H   0  0  0  0  0  0
   32.7842   -0.9422   23.9324 H   0  0  0  0  0  0
   31.4106   -1.5741   23.0637 H   0  0  0  0  0  0
   30.0645   -1.6941   25.1024 H   0  0  0  0  0  0
   30.7411   -0.1146   24.9901 H   0  0  0  0  0  0
   25.0547   -2.2111   26.3026 H   0  0  0  0  0  0
  1  6  1  0  0  0
  1  2  2  0  0  0
  1 24  1  0  0  0
  2  3  1  0  0  0
  2 25  1  0  0  0
  3  4  2  0  0  0
  3 26  1  0  0  0
  4  5  1  0  0  0
  4  7  1  0  0  0
  5  6  2  0  0  0
  5 27  1  0  0  0
  6 28  1  0  0  0
  7 16  1  0  0  0
  7  8  1  0  0  0
  8  9  1  0  0  0
  8 29  1  0  0  0
  8 30  1  0  0  0
  9 10  1  0  0  0
  9 31  1  0  0  0
  9 32  1  0  0  0
 10 15  2  0  0  0
 10 11  1  0  0  0
 11 12  2  0  0  0
 11 33  1  0  0  0
 12 13  1  0  0  0
 12 23  1  0  0  0
 13 14  2  0  0  0
 13 34  1  0  0  0
 14 15  1  0  0  0
 14 35  1  0  0  0
 15 16  1  0  0  0
 16 17  1  0  0  0
 16 36  1  0  0  0
 17 22  1  0  0  0
 17 18  1  0  0  0
 17 37  1  0  0  0
 18 19  1  0  0  0
 18 38  1  0  0  0
 18 39  1  0  0  0
 19 20  1  0  0  0
 19 40  1  0  0  0
 19 41  1  0  0  0
 20 21  1  0  0  0
 20 42  1  0  0  0
 20 43  1  0  0  0
 21 22  1  0  0  0
 21 44  1  0  0  0
 21 45  1  0  0  0
 22 46  1  0  0  0
 22 47  1  0  0  0
 23 48  1  0  0  0
M  END
> <s_m_entry_id>
17116

> <s_m_entry_name>
ligand_docking-pose.43

> <s_m_Source_Path>
/home/csk/Desktop/cluster/DUD-E-result/esr1

> <s_m_Source_File>
ligand_docking-pose.sdf

> <i_m_Source_File_Index>
43

> <i_lp_mmshare_version>
53161

> <i_f3d_flags>
0

> <r_lp_tautomer_probability>
0.999999999997365

> <s_lp_Force_Field>
OPLS_2005

> <r_lp_Energy>
34.09374

> <b_lp_Chiralities_Consistent>
1

> <s_lp_Variant>
149598-1

> <s_i_glide_gridfile>
glide-grid_1sj0

> <i_i_glide_lignum>
614

> <i_i_glide_rotatable_bonds>
3

> <r_i_docking_score>
-10.4667061862955

> <r_i_glide_ligand_efficiency>
-0.455074182012846

> <r_i_glide_ligand_efficiency_sa>
-1.29417043825667

> <r_i_glide_ligand_efficiency_ln>
-2.53094446269074

> <r_i_glide_gscore>
-10.4667061862955

> <r_i_glide_lipo>
-5.07258585621063

> <r_i_glide_hbond>
-0.205418309460158

> <r_i_glide_metal>
0

> <r_i_glide_rewards>
-2.50485999740835

> <r_i_glide_evdw>
-40.513557434082

> <r_i_glide_ecoul>
-6.21335983276367

> <r_i_glide_erotb>
0.273839823402322

> <r_i_glide_esite>
0

> <r_i_glide_emodel>
-63.6828238679296

> <r_i_glide_energy>
-46.7269172668457

> <r_i_glide_einternal>
2.92589545249939

> <i_i_glide_confnum>
26

> <i_i_glide_posenum>
97

> <r_i_glide_eff_state_penalty>
0

> <s_user_duplicate_titles>
149598

> <s_m_subgroup_title>
dock_pv

> <s_m_subgroupid>
dock_pv1

> <b_m_subgroup_collapsed>
0

$$$$
332082
                    3D
 Schrodinger Suite 2021-1.
 66 70  0  0  1  0            999 V2000
   29.4856    2.0811   28.3203 C   0  0  0  0  0  0
   29.6840    0.6101   28.0443 C   0  0  0  0  0  0
   28.6707   -0.3568   27.7812 C   0  0  0  0  0  0
   27.2800   -0.2847   27.6531 C   0  0  0  0  0  0
   26.5759   -1.4428   27.3671 C   0  0  0  0  0  0
   27.1957   -2.6757   27.3149 C   0  0  0  0  0  0
   28.5708   -2.7938   27.4623 C   0  0  0  0  0  0
   29.3057   -1.6172   27.6269 C   0  0  0  0  0  0
   30.6663   -1.3909   27.6272 N   0  0  0  0  0  0
   30.8799   -0.0644   27.9113 C   0  0  0  0  0  0
   32.2244    0.5036   27.9787 C   0  0  0  0  0  0
   32.9287    0.4784   29.1762 C   0  0  0  0  0  0
   34.1416    1.1455   29.2443 C   0  0  0  0  0  0
   34.5861    1.8449   28.1258 C   0  0  0  0  0  0
   33.9255    1.8053   26.9110 C   0  0  0  0  0  0
   32.7346    1.1073   26.8359 C   0  0  0  0  0  0
   35.6600    2.6558   28.2439 O   0  0  0  0  0  0
   31.7095   -2.3479   27.2589 C   0  0  0  0  0  0
   32.1619   -2.3731   25.8047 C   0  0  0  0  0  0
   31.6550   -1.5132   24.8252 C   0  0  0  0  0  0
   32.0476   -1.6758   23.4986 C   0  0  0  0  0  0
   32.8955   -2.7180   23.1230 C   0  0  0  0  0  0
   33.4233   -3.5453   24.1159 C   0  0  0  0  0  0
   33.0819   -3.3555   25.4469 C   0  0  0  0  0  0
   33.1310   -2.8699   21.7728 O   0  0  0  0  0  0
   33.8720   -3.9971   21.2964 C   0  0  0  0  0  0
   34.2101   -3.7816   19.8074 C   0  0  0  0  0  0
   34.9993   -2.5601   19.6048 N   0  0  1  0  0  0
   36.3454   -2.5888   20.1637 C   0  0  0  0  0  0
   37.0577   -1.3880   19.5385 C   0  0  0  0  0  0
   36.2779   -1.1094   18.2393 C   0  0  2  0  0  0
   35.2339   -2.2352   18.2070 C   0  0  0  0  0  0
   37.1639   -1.0645   16.9829 C   0  0  0  0  0  0
   25.2579   -1.3412   27.0509 O   0  0  0  0  0  0
   35.7545   -0.1527   18.3207 H   0  0  0  0  0  0
   30.1993    2.4495   29.0628 H   0  0  0  0  0  0
   29.6570    2.6523   27.4087 H   0  0  0  0  0  0
   28.4776    2.3083   28.6767 H   0  0  0  0  0  0
   26.7635    0.6579   27.6986 H   0  0  0  0  0  0
   26.6178   -3.5580   27.0793 H   0  0  0  0  0  0
   29.0332   -3.7462   27.3429 H   0  0  0  0  0  0
   32.5189    0.0007   30.0533 H   0  0  0  0  0  0
   34.6832    1.2073   30.1752 H   0  0  0  0  0  0
   34.3101    2.3251   26.0452 H   0  0  0  0  0  0
   32.2004    1.0592   25.9059 H   0  0  0  0  0  0
   36.0652    2.8511   27.3930 H   0  0  0  0  0  0
   31.3183   -3.3396   27.4385 H   0  0  0  0  0  0
   32.5687   -2.2108   27.9137 H   0  0  0  0  0  0
   30.9409   -0.7411   25.0770 H   0  0  0  0  0  0
   31.6741   -1.0110   22.7399 H   0  0  0  0  0  0
   34.0497   -4.3874   23.8735 H   0  0  0  0  0  0
   33.4847   -4.0272   26.1967 H   0  0  0  0  0  0
   33.2755   -4.9028   21.4155 H   0  0  0  0  0  0
   34.7949   -4.1480   21.8567 H   0  0  0  0  0  0
   33.2721   -3.7030   19.2473 H   0  0  0  0  0  0
   34.7509   -4.6498   19.4209 H   0  0  0  0  0  0
   36.8520   -3.5376   19.9723 H   0  0  0  0  0  0
   36.2924   -2.5024   21.2504 H   0  0  0  0  0  0
   38.1155   -1.6008   19.3681 H   0  0  0  0  0  0
   36.9992   -0.5383   20.2213 H   0  0  0  0  0  0
   34.3013   -1.9465   17.7181 H   0  0  0  0  0  0
   35.5637   -3.1128   17.6418 H   0  0  0  0  0  0
   37.7229   -1.9910   16.8467 H   0  0  0  0  0  0
   37.8830   -0.2490   17.0450 H   0  0  0  0  0  0
   36.5781   -0.8906   16.0820 H   0  0  0  0  0  0
   24.9763   -2.1367   26.5529 H   0  0  0  0  0  0
  1  2  1  0  0  0
  1 36  1  0  0  0
  1 37  1  0  0  0
  1 38  1  0  0  0
  2 10  2  0  0  0
  2  3  1  0  0  0
  3  8  2  0  0  0
  3  4  1  0  0  0
  4  5  2  0  0  0
  4 39  1  0  0  0
  5  6  1  0  0  0
  5 34  1  0  0  0
  6  7  2  0  0  0
  6 40  1  0  0  0
  7  8  1  0  0  0
  7 41  1  0  0  0
  8  9  1  0  0  0
  9 10  1  0  0  0
  9 18  1  0  0  0
 10 11  1  0  0  0
 11 16  1  0  0  0
 11 12  2  0  0  0
 12 13  1  0  0  0
 12 42  1  0  0  0
 13 14  2  0  0  0
 13 43  1  0  0  0
 14 15  1  0  0  0
 14 17  1  0  0  0
 15 16  2  0  0  0
 15 44  1  0  0  0
 16 45  1  0  0  0
 17 46  1  0  0  0
 18 19  1  0  0  0
 18 47  1  0  0  0
 18 48  1  0  0  0
 19 24  1  0  0  0
 19 20  2  0  0  0
 20 21  1  0  0  0
 20 49  1  0  0  0
 21 22  2  0  0  0
 21 50  1  0  0  0
 22 23  1  0  0  0
 22 25  1  0  0  0
 23 24  2  0  0  0
 23 51  1  0  0  0
 24 52  1  0  0  0
 25 26  1  0  0  0
 26 27  1  0  0  0
 26 53  1  0  0  0
 26 54  1  0  0  0
 27 28  1  0  0  0
 27 55  1  0  0  0
 27 56  1  0  0  0
 28 32  1  0  0  0
 28 29  1  0  0  0
 29 30  1  0  0  0
 29 57  1  0  0  0
 29 58  1  0  0  0
 30 31  1  0  0  0
 30 59  1  0  0  0
 30 60  1  0  0  0
 31 35  1  0  0  0
 31 32  1  0  0  0
 31 33  1  0  0  0
 32 61  1  0  0  0
 32 62  1  0  0  0
 33 63  1  0  0  0
 33 64  1  0  0  0
 33 65  1  0  0  0
 34 66  1  0  0  0
M  END
> <s_m_entry_id>
17117

> <s_m_entry_name>
ligand_docking-pose.44

> <s_m_Source_Path>
/home/csk/Desktop/cluster/DUD-E-result/esr1

> <s_m_Source_File>
ligand_docking-pose.sdf

> <i_m_Source_File_Index>
44

> <i_lp_mmshare_version>
53161

> <i_f3d_flags>
0

> <r_lp_tautomer_probability>
0.999999999997365

> <s_lp_Force_Field>
OPLS_2005

> <r_lp_Energy>
40.63056

> <b_lp_Chiralities_Consistent>
1

> <s_lp_Variant>
332082-1

> <s_i_glide_gridfile>
glide-grid_1sj0

> <i_i_glide_lignum>
906

> <i_i_glide_rotatable_bonds>
9

> <r_i_docking_score>
-10.4518261862561

> <r_i_glide_ligand_efficiency>
-0.307406652536945

> <r_i_glide_ligand_efficiency_sa>
-0.995878218179287

> <r_i_glide_ligand_efficiency_ln>
-2.30910156833839

> <r_i_glide_gscore>
-10.4518261862561

> <r_i_glide_lipo>
-6.00706556392734

> <r_i_glide_hbond>
-0.30420267043325

> <r_i_glide_metal>
0

> <r_i_glide_rewards>
-1.47533514769795

> <r_i_glide_evdw>
-48.4922142028809

> <r_i_glide_ecoul>
-4.75352096557617

> <r_i_glide_erotb>
0.472416050782861

> <r_i_glide_esite>
0

> <r_i_glide_emodel>
-67.5139155955298

> <r_i_glide_energy>
-53.245735168457

> <r_i_glide_einternal>
10.9178466796875

> <i_i_glide_confnum>
4

> <i_i_glide_posenum>
11

> <r_i_glide_eff_state_penalty>
0

> <s_user_duplicate_titles>
332082

> <s_m_subgroup_title>
dock_pv

> <s_m_subgroupid>
dock_pv1

> <b_m_subgroup_collapsed>
0

$$$$
326324
                    3D
 Schrodinger Suite 2021-1.
 59 64  0  0  1  0            999 V2000
   31.5201   -1.7499   24.6631 C   0  0  0  0  0  0
   32.0596   -1.7026   23.3819 C   0  0  0  0  0  0
   33.0985   -2.5471   23.0002 C   0  0  0  0  0  0
   33.6599   -3.3798   23.9627 C   0  0  0  0  0  0
   33.1653   -3.4095   25.2530 C   0  0  0  0  0  0
   32.0507   -2.6489   25.5875 C   0  0  0  0  0  0
   31.3996   -2.8689   26.9394 C   0  0  0  0  0  0
   31.2981   -1.6593   27.7310 N   0  0  0  0  0  0
   32.3957   -1.0982   28.3738 C   0  0  0  0  0  0
   33.6600   -1.5906   28.6642 C   0  0  0  0  0  0
   34.5935   -0.6784   29.1474 C   0  0  0  0  0  0
   34.2622    0.6382   29.4269 C   0  0  0  0  0  0
   32.9545    1.1031   29.2591 C   0  0  0  0  0  0
   32.0284    0.2231   28.7005 C   0  0  0  0  0  0
   30.6952    0.3745   28.3393 C   0  0  0  0  0  0
   30.2305   -0.8015   27.8007 C   0  0  0  0  0  0
   28.8705   -0.7788   27.4816 C   0  0  0  0  0  0
   28.0589   -1.8399   27.0527 C   0  0  0  0  0  0
   26.6996   -1.5986   26.8892 C   0  0  0  0  0  0
   26.1542   -0.3332   27.0784 C   0  0  0  0  0  0
   26.9506    0.7428   27.4641 C   0  0  0  0  0  0
   28.3043    0.5097   27.7089 C   0  0  0  0  0  0
   29.5106    1.6310   28.3602 S   0  0  0  0  0  0
   24.8044   -0.1421   26.9821 O   0  0  0  0  0  0
   35.2594    1.4579   29.8635 O   0  0  0  0  0  0
   33.5096   -2.5209   21.6817 O   0  0  0  0  0  0
   34.6518   -3.2796   21.2828 C   0  0  0  0  0  0
   34.9670   -3.0309   19.7941 C   0  0  0  0  0  0
   33.9552   -3.5846   18.8919 N   0  0  0  0  0  0
   34.1872   -3.2514   17.4954 C   0  0  0  0  0  0
   33.2463   -4.1809   16.7333 C   0  0  0  0  0  0
   33.2277   -5.4552   17.5771 C   0  0  0  0  0  0
   33.8869   -5.0444   18.8987 C   0  0  0  0  0  0
   30.6739   -1.1266   24.9151 H   0  0  0  0  0  0
   31.6601   -1.0149   22.6642 H   0  0  0  0  0  0
   34.4599   -4.0436   23.7132 H   0  0  0  0  0  0
   33.5978   -4.1063   25.9554 H   0  0  0  0  0  0
   30.4316   -3.3421   26.8335 H   0  0  0  0  0  0
   32.0526   -3.5579   27.4640 H   0  0  0  0  0  0
   33.9302   -2.6180   28.4746 H   0  0  0  0  0  0
   35.6031   -1.0171   29.3290 H   0  0  0  0  0  0
   32.6584    2.1087   29.4984 H   0  0  0  0  0  0
   28.4304   -2.8404   26.9138 H   0  0  0  0  0  0
   26.0602   -2.4278   26.6415 H   0  0  0  0  0  0
   26.5253    1.7174   27.6445 H   0  0  0  0  0  0
   24.5631    0.7999   27.0625 H   0  0  0  0  0  0
   36.1424    1.2167   29.5442 H   0  0  0  0  0  0
   34.4918   -4.3427   21.4686 H   0  0  0  0  0  0
   35.5161   -2.9724   21.8743 H   0  0  0  0  0  0
   35.9495   -3.4403   19.5522 H   0  0  0  0  0  0
   35.0280   -1.9540   19.6301 H   0  0  0  0  0  0
   35.2342   -3.3733   17.2085 H   0  0  0  0  0  0
   33.9561   -2.1961   17.3408 H   0  0  0  0  0  0
   33.5920   -4.3597   15.7145 H   0  0  0  0  0  0
   32.2507   -3.7407   16.6639 H   0  0  0  0  0  0
   32.2060   -5.8030   17.7327 H   0  0  0  0  0  0
   33.7923   -6.2557   17.0983 H   0  0  0  0  0  0
   33.3018   -5.3787   19.7569 H   0  0  0  0  0  0
   34.8702   -5.5059   19.0129 H   0  0  0  0  0  0
  1  6  1  0  0  0
  1  2  2  0  0  0
  1 34  1  0  0  0
  2  3  1  0  0  0
  2 35  1  0  0  0
  3  4  2  0  0  0
  3 26  1  0  0  0
  4  5  1  0  0  0
  4 36  1  0  0  0
  5  6  2  0  0  0
  5 37  1  0  0  0
  6  7  1  0  0  0
  7  8  1  0  0  0
  7 38  1  0  0  0
  7 39  1  0  0  0
  8 16  1  0  0  0
  8  9  1  0  0  0
  9 14  2  0  0  0
  9 10  1  0  0  0
 10 11  2  0  0  0
 10 40  1  0  0  0
 11 12  1  0  0  0
 11 41  1  0  0  0
 12 13  2  0  0  0
 12 25  1  0  0  0
 13 14  1  0  0  0
 13 42  1  0  0  0
 14 15  1  0  0  0
 15 23  1  0  0  0
 15 16  2  0  0  0
 16 17  1  0  0  0
 17 22  2  0  0  0
 17 18  1  0  0  0
 18 19  2  0  0  0
 18 43  1  0  0  0
 19 20  1  0  0  0
 19 44  1  0  0  0
 20 21  2  0  0  0
 20 24  1  0  0  0
 21 22  1  0  0  0
 21 45  1  0  0  0
 22 23  1  0  0  0
 24 46  1  0  0  0
 25 47  1  0  0  0
 26 27  1  0  0  0
 27 28  1  0  0  0
 27 48  1  0  0  0
 27 49  1  0  0  0
 28 29  1  0  0  0
 28 50  1  0  0  0
 28 51  1  0  0  0
 29 33  1  0  0  0
 29 30  1  0  0  0
 30 31  1  0  0  0
 30 52  1  0  0  0
 30 53  1  0  0  0
 31 32  1  0  0  0
 31 54  1  0  0  0
 31 55  1  0  0  0
 32 33  1  0  0  0
 32 56  1  0  0  0
 32 57  1  0  0  0
 33 58  1  0  0  0
 33 59  1  0  0  0
M  END
> <s_m_entry_id>
17118

> <s_m_entry_name>
ligand_docking-pose.45

> <s_m_Source_Path>
/home/csk/Desktop/cluster/DUD-E-result/esr1

> <s_m_Source_File>
ligand_docking-pose.sdf

> <i_m_Source_File_Index>
45

> <i_lp_mmshare_version>
53161

> <i_f3d_flags>
0

> <r_lp_tautomer_probability>
1

> <s_lp_Force_Field>
OPLS_2005

> <r_lp_Energy>
68.254206

> <b_lp_Chiralities_Consistent>
1

> <s_lp_Variant>
326324-1

> <s_i_glide_gridfile>
glide-grid_1sj0

> <i_i_glide_lignum>
568

> <i_i_glide_rotatable_bonds>
8

> <r_i_docking_score>
-10.4448119996218

> <r_i_glide_ligand_efficiency>
-0.316509454533993

> <r_i_glide_ligand_efficiency_sa>
-1.0152149400028

> <r_i_glide_ligand_efficiency_ln>
-2.32287210837366

> <r_i_glide_gscore>
-10.4448119996218

> <r_i_glide_lipo>
-5.57988291519556

> <r_i_glide_hbond>
-0.62031302267605

> <r_i_glide_metal>
0

> <r_i_glide_rewards>
-1.30037077184547

> <r_i_glide_evdw>
-34.3250846862793

> <r_i_glide_ecoul>
-11.3748874664307

> <r_i_glide_erotb>
0.478242064373884

> <r_i_glide_esite>
0

> <r_i_glide_emodel>
-42.5741295310021

> <r_i_glide_energy>
-45.69997215271

> <r_i_glide_einternal>
6.78713083267212

> <i_i_glide_confnum>
3

> <i_i_glide_posenum>
37

> <r_i_glide_eff_state_penalty>
0

> <s_user_duplicate_titles>
326324

> <s_m_subgroup_title>
dock_pv

> <s_m_subgroupid>
dock_pv1

> <b_m_subgroup_collapsed>
0

$$$$
150268
                    3D
 Schrodinger Suite 2021-1.
 45 48  0  0  1  0            999 V2000
   32.4486   -2.2909   23.6756 C   0  0  0  0  0  0
   33.0282   -3.1402   24.6135 C   0  0  0  0  0  0
   32.8133   -2.9135   25.9702 C   0  0  0  0  0  0
   32.0292   -1.8339   26.3900 C   0  0  0  0  0  0
   31.4604   -0.9810   25.4396 C   0  0  0  0  0  0
   31.6642   -1.2155   24.0859 C   0  0  0  0  0  0
   31.8374   -1.6263   27.8926 C   0  0  0  0  0  0
   30.8090   -0.5826   28.4093 C   0  0  2  0  0  0
   29.3622   -0.8153   27.8958 C   0  0  0  0  0  0
   28.8640   -2.0905   27.5700 C   0  0  0  0  0  0
   27.5473   -2.2749   27.1539 C   0  0  0  0  0  0
   26.6869   -1.1870   27.0937 C   0  0  0  0  0  0
   27.1420    0.0746   27.4569 C   0  0  0  0  0  0
   28.4703    0.2793   27.8391 C   0  0  0  0  0  0
   28.9729    1.6848   28.1458 C   0  0  0  0  0  0
   30.2869    1.6641   28.9482 C   0  0  0  0  0  0
   31.2452    0.8143   28.2472 N   0  0  0  0  0  0
   32.5828    1.1638   28.1985 C   0  0  0  0  0  0
   33.4752    0.8794   29.2388 C   0  0  0  0  0  0
   34.8231    1.2048   29.0968 C   0  0  0  0  0  0
   35.2575    1.8577   27.9466 C   0  0  0  0  0  0
   34.3672    2.1775   26.9348 C   0  0  0  0  0  0
   33.0331    1.8363   27.0666 C   0  0  0  0  0  0
   25.3989   -1.3420   26.6641 O   0  0  0  0  0  0
   32.6113   -2.4661   22.6222 H   0  0  0  0  0  0
   33.6358   -3.9737   24.2914 H   0  0  0  0  0  0
   33.2606   -3.5774   26.6959 H   0  0  0  0  0  0
   30.8605   -0.1341   25.7349 H   0  0  0  0  0  0
   31.2315   -0.5443   23.3647 H   0  0  0  0  0  0
   31.5104   -2.5420   28.3280 H   0  0  0  0  0  0
   32.8212   -1.4761   28.3347 H   0  0  0  0  0  0
   30.7635   -0.7619   29.4857 H   0  0  0  0  0  0
   29.4988   -2.9622   27.6152 H   0  0  0  0  0  0
   27.1996   -3.2607   26.8784 H   0  0  0  0  0  0
   26.4617    0.9126   27.4018 H   0  0  0  0  0  0
   28.2091    2.2607   28.6639 H   0  0  0  0  0  0
   29.1472    2.2033   27.2018 H   0  0  0  0  0  0
   30.1327    1.3611   29.9856 H   0  0  0  0  0  0
   30.6902    2.6665   28.9956 H   0  0  0  0  0  0
   33.1342    0.3718   30.1287 H   0  0  0  0  0  0
   35.5381    0.9544   29.8639 H   0  0  0  0  0  0
   36.2970    2.1184   27.8303 H   0  0  0  0  0  0
   34.7133    2.6578   26.0346 H   0  0  0  0  0  0
   32.3573    2.0603   26.2643 H   0  0  0  0  0  0
   25.2100   -2.2210   26.2741 H   0  0  0  0  0  0
  1  6  1  0  0  0
  1  2  2  0  0  0
  1 25  1  0  0  0
  2  3  1  0  0  0
  2 26  1  0  0  0
  3  4  2  0  0  0
  3 27  1  0  0  0
  4  5  1  0  0  0
  4  7  1  0  0  0
  5  6  2  0  0  0
  5 28  1  0  0  0
  6 29  1  0  0  0
  7  8  1  0  0  0
  7 30  1  0  0  0
  7 31  1  0  0  0
  8 17  1  0  0  0
  8  9  1  0  0  0
  8 32  1  0  0  0
  9 14  2  0  0  0
  9 10  1  0  0  0
 10 11  2  0  0  0
 10 33  1  0  0  0
 11 12  1  0  0  0
 11 34  1  0  0  0
 12 13  2  0  0  0
 12 24  1  0  0  0
 13 14  1  0  0  0
 13 35  1  0  0  0
 14 15  1  0  0  0
 15 16  1  0  0  0
 15 36  1  0  0  0
 15 37  1  0  0  0
 16 17  1  0  0  0
 16 38  1  0  0  0
 16 39  1  0  0  0
 17 18  1  0  0  0
 18 23  1  0  0  0
 18 19  2  0  0  0
 19 20  1  0  0  0
 19 40  1  0  0  0
 20 21  2  0  0  0
 20 41  1  0  0  0
 21 22  1  0  0  0
 21 42  1  0  0  0
 22 23  2  0  0  0
 22 43  1  0  0  0
 23 44  1  0  0  0
 24 45  1  0  0  0
M  END
> <s_m_entry_id>
17119

> <s_m_entry_name>
ligand_docking-pose.46

> <s_m_Source_Path>
/home/csk/Desktop/cluster/DUD-E-result/esr1

> <s_m_Source_File>
ligand_docking-pose.sdf

> <i_m_Source_File_Index>
46

> <i_lp_mmshare_version>
53161

> <i_f3d_flags>
0

> <r_lp_tautomer_probability>
0.999999999997365

> <s_lp_Force_Field>
OPLS_2005

> <r_lp_Energy>
26.767815

> <b_lp_Chiralities_Consistent>
1

> <s_lp_Variant>
150268-1

> <s_i_glide_gridfile>
glide-grid_1sj0

> <i_i_glide_lignum>
399

> <i_i_glide_rotatable_bonds>
4

> <r_i_docking_score>
-10.4317620393916

> <r_i_glide_ligand_efficiency>
-0.434656751641316

> <r_i_glide_ligand_efficiency_sa>
-1.25376702524363

> <r_i_glide_ligand_efficiency_ln>
-2.49679933839504

> <r_i_glide_gscore>
-10.4317620393916

> <r_i_glide_lipo>
-5.36871432048841

> <r_i_glide_hbond>
-0.16332260309262

> <r_i_glide_metal>
0

> <r_i_glide_rewards>
-2.39213549780711

> <r_i_glide_evdw>
-41.0709495544434

> <r_i_glide_ecoul>
-5.64480495452881

> <r_i_glide_erotb>
0.392678602898037

> <r_i_glide_esite>
0

> <r_i_glide_emodel>
-71.27169838223

> <r_i_glide_energy>
-46.7157545089722

> <r_i_glide_einternal>
5.33747863769531

> <i_i_glide_confnum>
39

> <i_i_glide_posenum>
116

> <r_i_glide_eff_state_penalty>
0

> <s_user_duplicate_titles>
150268

> <s_m_subgroup_title>
dock_pv

> <s_m_subgroupid>
dock_pv1

> <b_m_subgroup_collapsed>
0

$$$$
323325
                    3D
 Schrodinger Suite 2021-1.
 60 64  0  0  1  0            999 V2000
   34.8676   -3.9506   19.1986 C   0  0  0  0  0  0
   34.1279   -3.4914   20.3703 N   0  0  1  0  0  0
   33.1026   -4.4671   20.7542 C   0  0  0  0  0  0
   32.2681   -4.0281   21.9894 C   0  0  0  0  0  0
   33.1625   -3.6229   23.1896 C   0  0  0  0  0  0
   34.1901   -2.6362   22.6474 C   0  0  0  0  0  0
   35.0210   -3.1776   21.4791 C   0  0  0  0  0  0
   32.4445   -2.9344   24.3575 C   0  0  0  0  0  0
   31.6039   -1.8390   24.1309 C   0  0  0  0  0  0
   31.0094   -1.1747   25.1980 C   0  0  0  0  0  0
   31.2639   -1.5824   26.5113 C   0  0  0  0  0  0
   32.1407   -2.6449   26.7415 C   0  0  0  0  0  0
   32.7138   -3.3282   25.6714 C   0  0  0  0  0  0
   30.5939   -0.8481   27.6877 C   0  0  2  0  0  0
   29.0589   -0.8890   27.5288 C   0  0  0  0  0  0
   28.4006   -2.0882   27.2208 C   0  0  0  0  0  0
   27.0344   -2.1157   26.9686 C   0  0  0  0  0  0
   26.2955   -0.9421   27.0448 C   0  0  0  0  0  0
   26.9114    0.2380   27.4438 C   0  0  0  0  0  0
   28.2888    0.2840   27.6714 C   0  0  0  0  0  0
   28.9708    1.5913   28.0343 C   0  0  0  0  0  0
   30.3132    1.3345   28.7345 C   0  0  0  0  0  0
   31.1504    0.5135   27.8571 N   0  0  0  0  0  0
   32.5140    0.7259   27.9068 C   0  0  0  0  0  0
   33.0592    1.7035   27.0743 C   0  0  0  0  0  0
   34.4254    1.9358   27.0583 C   0  0  0  0  0  0
   35.2599    1.1807   27.8640 C   0  0  0  0  0  0
   34.7349    0.2057   28.7061 C   0  0  0  0  0  0
   33.3603   -0.0189   28.7369 C   0  0  0  0  0  0
   35.5617   -0.5423   29.4640 F   0  0  0  0  0  0
   24.9831   -0.9421   26.6642 O   0  0  0  0  0  0
   34.1945   -4.0909   18.3518 H   0  0  0  0  0  0
   35.6174   -3.2164   18.9005 H   0  0  0  0  0  0
   35.3729   -4.8987   19.3852 H   0  0  0  0  0  0
   32.4599   -4.5419   19.8822 H   0  0  0  0  0  0
   33.5420   -5.4544   20.9102 H   0  0  0  0  0  0
   31.5741   -3.2459   21.6822 H   0  0  0  0  0  0
   31.6569   -4.8865   22.2720 H   0  0  0  0  0  0
   33.6600   -4.5124   23.5812 H   0  0  0  0  0  0
   34.8602   -2.3884   23.4636 H   0  0  0  0  0  0
   33.6599   -1.7422   22.3115 H   0  0  0  0  0  0
   35.7531   -2.4309   21.1682 H   0  0  0  0  0  0
   35.5762   -4.0703   21.7662 H   0  0  0  0  0  0
   31.4085   -1.4954   23.1268 H   0  0  0  0  0  0
   30.3520   -0.3386   25.0081 H   0  0  0  0  0  0
   32.3849   -2.9412   27.7499 H   0  0  0  0  0  0
   33.3946   -4.1420   25.8669 H   0  0  0  0  0  0
   30.8187   -1.4177   28.5912 H   0  0  0  0  0  0
   28.9653   -3.0048   27.1222 H   0  0  0  0  0  0
   26.5655   -3.0429   26.6723 H   0  0  0  0  0  0
   26.3270    1.1439   27.4970 H   0  0  0  0  0  0
   28.3252    2.2020   28.6642 H   0  0  0  0  0  0
   29.1429    2.1687   27.1247 H   0  0  0  0  0  0
   30.1875    0.8828   29.7199 H   0  0  0  0  0  0
   30.7915    2.3001   28.9038 H   0  0  0  0  0  0
   32.4335    2.2582   26.3997 H   0  0  0  0  0  0
   34.8480    2.6579   26.3786 H   0  0  0  0  0  0
   36.3212    1.3308   27.7804 H   0  0  0  0  0  0
   32.9635   -0.7836   29.3865 H   0  0  0  0  0  0
   24.7622   -1.8014   26.2634 H   0  0  0  0  0  0
  1  2  1  0  0  0
  1 32  1  0  0  0
  1 33  1  0  0  0
  1 34  1  0  0  0
  2  7  1  0  0  0
  2  3  1  0  0  0
  3  4  1  0  0  0
  3 35  1  0  0  0
  3 36  1  0  0  0
  4  5  1  0  0  0
  4 37  1  0  0  0
  4 38  1  0  0  0
  5  6  1  0  0  0
  5  8  1  0  0  0
  5 39  1  0  0  0
  6  7  1  0  0  0
  6 40  1  0  0  0
  6 41  1  0  0  0
  7 42  1  0  0  0
  7 43  1  0  0  0
  8 13  1  0  0  0
  8  9  2  0  0  0
  9 10  1  0  0  0
  9 44  1  0  0  0
 10 11  2  0  0  0
 10 45  1  0  0  0
 11 12  1  0  0  0
 11 14  1  0  0  0
 12 13  2  0  0  0
 12 46  1  0  0  0
 13 47  1  0  0  0
 14 23  1  0  0  0
 14 15  1  0  0  0
 14 48  1  0  0  0
 15 20  2  0  0  0
 15 16  1  0  0  0
 16 17  2  0  0  0
 16 49  1  0  0  0
 17 18  1  0  0  0
 17 50  1  0  0  0
 18 19  2  0  0  0
 18 31  1  0  0  0
 19 20  1  0  0  0
 19 51  1  0  0  0
 20 21  1  0  0  0
 21 22  1  0  0  0
 21 52  1  0  0  0
 21 53  1  0  0  0
 22 23  1  0  0  0
 22 54  1  0  0  0
 22 55  1  0  0  0
 23 24  1  0  0  0
 24 29  1  0  0  0
 24 25  2  0  0  0
 25 26  1  0  0  0
 25 56  1  0  0  0
 26 27  2  0  0  0
 26 57  1  0  0  0
 27 28  1  0  0  0
 27 58  1  0  0  0
 28 29  2  0  0  0
 28 30  1  0  0  0
 29 59  1  0  0  0
 31 60  1  0  0  0
M  END
> <s_m_entry_id>
17120

> <s_m_entry_name>
ligand_docking-pose.47

> <s_m_Source_Path>
/home/csk/Desktop/cluster/DUD-E-result/esr1

> <s_m_Source_File>
ligand_docking-pose.sdf

> <i_m_Source_File_Index>
47

> <i_lp_mmshare_version>
53161

> <i_f3d_flags>
0

> <r_lp_tautomer_probability>
0.999999999997365

> <s_lp_Force_Field>
OPLS_2005

> <r_lp_Energy>
36.088036

> <b_lp_Chiralities_Consistent>
1

> <s_lp_Variant>
323325-1

> <s_i_glide_gridfile>
glide-grid_1sj0

> <i_i_glide_lignum>
1676

> <i_i_glide_rotatable_bonds>
4

> <r_i_docking_score>
-10.4168049783508

> <r_i_glide_ligand_efficiency>
-0.336025967043575

> <r_i_glide_ligand_efficiency_sa>
-1.0555854703635

> <r_i_glide_ligand_efficiency_ln>
-2.34930875935181

> <r_i_glide_gscore>
-10.4168049783508

> <r_i_glide_lipo>
-5.56848669038685

> <r_i_glide_hbond>
-0.241488058133594

> <r_i_glide_metal>
0

> <r_i_glide_rewards>
-1.94852560457843

> <r_i_glide_evdw>
-46.6655235290527

> <r_i_glide_ecoul>
-3.76108860969543

> <r_i_glide_erotb>
0.239134842655018

> <r_i_glide_esite>
0

> <r_i_glide_emodel>
-65.1531933715304

> <r_i_glide_energy>
-50.4266121387482

> <r_i_glide_einternal>
3.552983045578

> <i_i_glide_confnum>
54

> <i_i_glide_posenum>
88

> <r_i_glide_eff_state_penalty>
0

> <s_user_duplicate_titles>
323325

> <s_m_subgroup_title>
dock_pv

> <s_m_subgroupid>
dock_pv1

> <b_m_subgroup_collapsed>
0

$$$$
86405
                    3D
 Schrodinger Suite 2021-1.
 63 67  0  0  1  0            999 V2000
   35.0074    1.2496   28.2026 C   0  0  0  0  0  0
   34.5211    0.4406   29.2240 C   0  0  0  0  0  0
   33.1509    0.2414   29.3418 C   0  0  0  0  0  0
   32.2838    0.8428   28.4256 C   0  0  0  0  0  0
   32.8001    1.6414   27.3977 C   0  0  0  0  0  0
   34.1621    1.8553   27.2889 C   0  0  0  0  0  0
   30.7825    0.5742   28.5256 C   0  0  1  0  0  0
   29.9099    1.6868   27.8994 C   0  0  0  0  0  0
   28.5447    1.4791   28.2075 O   0  0  0  0  0  0
   28.0717    0.2486   27.8185 C   0  0  0  0  0  0
   26.7325    0.2271   27.4640 C   0  0  0  0  0  0
   26.1485   -0.9602   27.0581 C   0  0  0  0  0  0
   26.8904   -2.1414   27.0613 C   0  0  0  0  0  0
   28.2314   -2.1200   27.4339 C   0  0  0  0  0  0
   28.8571   -0.9200   27.7900 C   0  0  0  0  0  0
   30.3652   -0.8462   28.0320 C   0  0  1  0  0  0
   31.1507   -1.3633   26.8109 C   0  0  0  0  0  0
   30.8411   -0.9341   25.5128 C   0  0  0  0  0  0
   31.5458   -1.4347   24.4197 C   0  0  0  0  0  0
   32.5494   -2.3803   24.6224 C   0  0  0  0  0  0
   32.8634   -2.8121   25.9068 C   0  0  0  0  0  0
   32.1760   -2.2959   26.9991 C   0  0  0  0  0  0
   33.4975   -2.9965   23.2677 S   0  0  0  0  0  0
   32.3569   -3.6516   22.0070 C   0  0  0  0  0  0
   32.5408   -3.2258   20.5310 C   0  0  0  0  0  0
   33.7529   -3.7116   19.8406 N   0  0  0  0  0  0
   33.6150   -3.5240   18.3852 C   0  0  0  0  0  0
   33.6730   -2.0370   17.9511 C   0  0  0  0  0  0
   34.9425   -1.3365   18.4702 C   0  0  0  0  0  0
   35.1552   -1.6213   19.9680 C   0  0  0  0  0  0
   35.0336   -3.1308   20.2805 C   0  0  0  0  0  0
   24.8602   -0.9420   26.6136 O   0  0  0  0  0  0
   30.5665    0.6265   29.5948 H   0  0  0  0  0  0
   30.5802   -1.5464   28.8426 H   0  0  0  0  0  0
   36.0599    1.4054   28.0907 H   0  0  0  0  0  0
   35.2072   -0.0349   29.9080 H   0  0  0  0  0  0
   32.7690   -0.3933   30.1280 H   0  0  0  0  0  0
   32.1613    2.0949   26.6634 H   0  0  0  0  0  0
   34.5635    2.4646   26.4928 H   0  0  0  0  0  0
   30.1917    2.6579   28.2969 H   0  0  0  0  0  0
   30.0231    1.7164   26.8146 H   0  0  0  0  0  0
   26.1552    1.1385   27.4640 H   0  0  0  0  0  0
   26.4602   -3.0760   26.7357 H   0  0  0  0  0  0
   28.8057   -3.0349   27.3873 H   0  0  0  0  0  0
   30.0533   -0.2136   25.3491 H   0  0  0  0  0  0
   31.3126   -1.0877   23.4252 H   0  0  0  0  0  0
   33.6521   -3.5345   26.0569 H   0  0  0  0  0  0
   32.4481   -2.6207   27.9921 H   0  0  0  0  0  0
   31.3412   -3.3930   22.3050 H   0  0  0  0  0  0
   32.4020   -4.7399   22.0658 H   0  0  0  0  0  0
   32.4658   -2.1427   20.4582 H   0  0  0  0  0  0
   31.6744   -3.6196   19.9950 H   0  0  0  0  0  0
   32.6826   -3.9799   18.0473 H   0  0  0  0  0  0
   34.4056   -4.0916   17.8915 H   0  0  0  0  0  0
   32.7697   -1.5129   18.2650 H   0  0  0  0  0  0
   33.6597   -1.9844   16.8626 H   0  0  0  0  0  0
   35.8061   -1.6978   17.9096 H   0  0  0  0  0  0
   34.8875   -0.2631   18.2879 H   0  0  0  0  0  0
   36.1425   -1.2710   20.2705 H   0  0  0  0  0  0
   34.4603   -1.0522   20.5825 H   0  0  0  0  0  0
   35.2063   -3.3149   21.3362 H   0  0  0  0  0  0
   35.8323   -3.6792   19.7774 H   0  0  0  0  0  0
   24.6374   -1.8030   26.2153 H   0  0  0  0  0  0
  1  6  1  0  0  0
  1  2  2  0  0  0
  1 35  1  0  0  0
  2  3  1  0  0  0
  2 36  1  0  0  0
  3  4  2  0  0  0
  3 37  1  0  0  0
  4  5  1  0  0  0
  4  7  1  0  0  0
  5  6  2  0  0  0
  5 38  1  0  0  0
  6 39  1  0  0  0
  7 33  1  0  0  0
  7 16  1  0  0  0
  7  8  1  0  0  0
  8  9  1  0  0  0
  8 40  1  0  0  0
  8 41  1  0  0  0
  9 10  1  0  0  0
 10 15  2  0  0  0
 10 11  1  0  0  0
 11 12  2  0  0  0
 11 42  1  0  0  0
 12 13  1  0  0  0
 12 32  1  0  0  0
 13 14  2  0  0  0
 13 43  1  0  0  0
 14 15  1  0  0  0
 14 44  1  0  0  0
 15 16  1  0  0  0
 16 34  1  0  0  0
 16 17  1  0  0  0
 17 22  1  0  0  0
 17 18  2  0  0  0
 18 19  1  0  0  0
 18 45  1  0  0  0
 19 20  2  0  0  0
 19 46  1  0  0  0
 20 21  1  0  0  0
 20 23  1  0  0  0
 21 22  2  0  0  0
 21 47  1  0  0  0
 22 48  1  0  0  0
 23 24  1  0  0  0
 24 25  1  0  0  0
 24 49  1  0  0  0
 24 50  1  0  0  0
 25 26  1  0  0  0
 25 51  1  0  0  0
 25 52  1  0  0  0
 26 31  1  0  0  0
 26 27  1  0  0  0
 27 28  1  0  0  0
 27 53  1  0  0  0
 27 54  1  0  0  0
 28 29  1  0  0  0
 28 55  1  0  0  0
 28 56  1  0  0  0
 29 30  1  0  0  0
 29 57  1  0  0  0
 29 58  1  0  0  0
 30 31  1  0  0  0
 30 59  1  0  0  0
 30 60  1  0  0  0
 31 61  1  0  0  0
 31 62  1  0  0  0
 32 63  1  0  0  0
M  END
> <s_m_entry_id>
17121

> <s_m_entry_name>
ligand_docking-pose.48

> <s_m_Source_Path>
/home/csk/Desktop/cluster/DUD-E-result/esr1

> <s_m_Source_File>
ligand_docking-pose.sdf

> <i_m_Source_File_Index>
48

> <i_lp_mmshare_version>
53161

> <i_f3d_flags>
0

> <r_lp_tautomer_probability>
1

> <s_lp_Force_Field>
OPLS_2005

> <r_lp_Energy>
30.926277

> <b_lp_Chiralities_Consistent>
1

> <s_lp_Variant>
86405-1

> <s_i_glide_gridfile>
glide-grid_1sj0

> <i_i_glide_lignum>
565

> <i_i_glide_rotatable_bonds>
7

> <r_i_docking_score>
-10.4162142050383

> <r_i_glide_ligand_efficiency>
-0.325506693907448

> <r_i_glide_ligand_efficiency_sa>
-1.03341933546889

> <r_i_glide_ligand_efficiency_ln>
-2.3324742957836

> <r_i_glide_gscore>
-10.4162142050383

> <r_i_glide_lipo>
-5.92306915713873

> <r_i_glide_hbond>
-0.280895057585928

> <r_i_glide_metal>
0

> <r_i_glide_rewards>
-1.27079154545454

> <r_i_glide_evdw>
-55.1550102233887

> <r_i_glide_ecoul>
-3.57593703269958

> <r_i_glide_erotb>
0.352682621215244

> <r_i_glide_esite>
0

> <r_i_glide_emodel>
-91.0796809333326

> <r_i_glide_energy>
-58.7309472560883

> <r_i_glide_einternal>
4.34954977035522

> <i_i_glide_confnum>
5

> <i_i_glide_posenum>
159

> <r_i_glide_eff_state_penalty>
0

> <s_user_duplicate_titles>
86405

> <s_m_subgroup_title>
dock_pv

> <s_m_subgroupid>
dock_pv1

> <b_m_subgroup_collapsed>
0

$$$$
88199
                    3D
 Schrodinger Suite 2021-1.
 68 72  0  0  1  0            999 V2000
   32.8061   -2.9900   25.9669 C   0  0  0  0  0  0
   33.2594   -3.2398   24.6702 C   0  0  0  0  0  0
   32.8421   -2.4180   23.6142 C   0  0  0  0  0  0
   31.9650   -1.3707   23.8692 C   0  0  0  0  0  0
   31.5144   -1.1207   25.1554 C   0  0  0  0  0  0
   31.9343   -1.9265   26.2206 C   0  0  0  0  0  0
   31.4872   -1.6552   27.6634 C   0  0  0  0  0  0
   30.5027   -0.5646   27.7902 N   0  0  0  0  0  0
   29.1207   -0.7611   27.6203 C   0  0  0  0  0  0
   28.6110   -1.9852   27.1493 C   0  0  0  0  0  0
   27.2602   -2.1389   26.8438 C   0  0  0  0  0  0
   26.3975   -1.0601   26.9913 C   0  0  0  0  0  0
   26.8775    0.1499   27.4641 C   0  0  0  0  0  0
   28.2211    0.3131   27.8033 C   0  0  0  0  0  0
   28.6659    1.6273   28.4032 C   0  0  0  0  0  0
   30.1420    1.8581   28.1992 C   0  0  0  0  0  0
   31.0229    0.6259   28.5079 C   0  0  2  0  0  0
   32.4885    0.9924   28.2213 C   0  0  0  0  0  0
   32.8178    1.5664   26.9945 C   0  0  0  0  0  0
   34.1249    1.8500   26.6641 C   0  0  0  0  0  0
   35.1320    1.4577   27.5275 C   0  0  0  0  0  0
   34.8362    0.9286   28.7845 C   0  0  0  0  0  0
   33.5050    0.7127   29.1422 C   0  0  0  0  0  0
   36.4138    1.4787   27.0640 O   0  0  0  0  0  0
   25.0775   -1.1646   26.6640 O   0  0  0  0  0  0
   33.2394   -2.5405   22.3012 O   0  0  0  0  0  0
   34.2989   -3.4178   21.9406 C   0  0  0  0  0  0
   34.8773   -3.0102   20.5657 C   0  0  0  0  0  0
   33.8706   -2.6886   19.5370 N   0  0  0  0  0  0
   34.5050   -2.1997   18.3017 C   0  0  0  0  0  0
   35.2720   -3.3010   17.5294 C   0  0  0  0  0  0
   34.3845   -4.5260   17.2445 C   0  0  0  0  0  0
   33.6600   -4.9843   18.5230 C   0  0  0  0  0  0
   32.9555   -3.8041   19.2342 C   0  0  0  0  0  0
   33.1379   -3.6244   26.7759 H   0  0  0  0  0  0
   33.9280   -4.0697   24.4995 H   0  0  0  0  0  0
   31.6561   -0.7254   23.0640 H   0  0  0  0  0  0
   30.8486   -0.2849   25.3086 H   0  0  0  0  0  0
   31.0559   -2.5420   28.1084 H   0  0  0  0  0  0
   32.3825   -1.4903   28.2603 H   0  0  0  0  0  0
   29.2570   -2.8336   26.9862 H   0  0  0  0  0  0
   26.8931   -3.0842   26.4690 H   0  0  0  0  0  0
   26.1910    0.9769   27.5690 H   0  0  0  0  0  0
   28.0669    2.4500   28.0177 H   0  0  0  0  0  0
   28.5053    1.6095   29.4641 H   0  0  0  0  0  0
   30.4681    2.6580   28.8517 H   0  0  0  0  0  0
   30.2504    2.2022   27.1740 H   0  0  0  0  0  0
   30.9622    0.4105   29.5765 H   0  0  0  0  0  0
   32.0602    1.7529   26.2640 H   0  0  0  0  0  0
   34.3648    2.2581   25.6934 H   0  0  0  0  0  0
   35.6298    0.6326   29.4548 H   0  0  0  0  0  0
   33.2741    0.2662   30.0982 H   0  0  0  0  0  0
   37.0633    1.3109   27.7653 H   0  0  0  0  0  0
   24.8599   -2.0106   26.2305 H   0  0  0  0  0  0
   33.9510   -4.4519   21.9330 H   0  0  0  0  0  0
   35.1111   -3.3420   22.6637 H   0  0  0  0  0  0
   35.5469   -3.7983   20.2221 H   0  0  0  0  0  0
   35.5003   -2.1277   20.7189 H   0  0  0  0  0  0
   35.1736   -1.3715   18.5414 H   0  0  0  0  0  0
   33.7265   -1.7707   17.6684 H   0  0  0  0  0  0
   36.1773   -3.5827   18.0675 H   0  0  0  0  0  0
   35.6292   -2.8880   16.5857 H   0  0  0  0  0  0
   33.6436   -4.2665   16.4863 H   0  0  0  0  0  0
   34.9784   -5.3412   16.8300 H   0  0  0  0  0  0
   32.9132   -5.7363   18.2634 H   0  0  0  0  0  0
   34.3368   -5.4920   19.2112 H   0  0  0  0  0  0
   32.4627   -4.1436   20.1462 H   0  0  0  0  0  0
   32.1485   -3.4204   18.6080 H   0  0  0  0  0  0
  1  6  1  0  0  0
  1  2  2  0  0  0
  1 35  1  0  0  0
  2  3  1  0  0  0
  2 36  1  0  0  0
  3  4  2  0  0  0
  3 26  1  0  0  0
  4  5  1  0  0  0
  4 37  1  0  0  0
  5  6  2  0  0  0
  5 38  1  0  0  0
  6  7  1  0  0  0
  7  8  1  0  0  0
  7 39  1  0  0  0
  7 40  1  0  0  0
  8 17  1  0  0  0
  8  9  1  0  0  0
  9 14  2  0  0  0
  9 10  1  0  0  0
 10 11  2  0  0  0
 10 41  1  0  0  0
 11 12  1  0  0  0
 11 42  1  0  0  0
 12 13  2  0  0  0
 12 25  1  0  0  0
 13 14  1  0  0  0
 13 43  1  0  0  0
 14 15  1  0  0  0
 15 16  1  0  0  0
 15 44  1  0  0  0
 15 45  1  0  0  0
 16 17  1  0  0  0
 16 46  1  0  0  0
 16 47  1  0  0  0
 17 18  1  0  0  0
 17 48  1  0  0  0
 18 23  1  0  0  0
 18 19  2  0  0  0
 19 20  1  0  0  0
 19 49  1  0  0  0
 20 21  2  0  0  0
 20 50  1  0  0  0
 21 22  1  0  0  0
 21 24  1  0  0  0
 22 23  2  0  0  0
 22 51  1  0  0  0
 23 52  1  0  0  0
 24 53  1  0  0  0
 25 54  1  0  0  0
 26 27  1  0  0  0
 27 28  1  0  0  0
 27 55  1  0  0  0
 27 56  1  0  0  0
 28 29  1  0  0  0
 28 57  1  0  0  0
 28 58  1  0  0  0
 29 34  1  0  0  0
 29 30  1  0  0  0
 30 31  1  0  0  0
 30 59  1  0  0  0
 30 60  1  0  0  0
 31 32  1  0  0  0
 31 61  1  0  0  0
 31 62  1  0  0  0
 32 33  1  0  0  0
 32 63  1  0  0  0
 32 64  1  0  0  0
 33 34  1  0  0  0
 33 65  1  0  0  0
 33 66  1  0  0  0
 34 67  1  0  0  0
 34 68  1  0  0  0
M  END
> <s_m_entry_id>
17122

> <s_m_entry_name>
ligand_docking-pose.49

> <s_m_Source_Path>
/home/csk/Desktop/cluster/DUD-E-result/esr1

> <s_m_Source_File>
ligand_docking-pose.sdf

> <i_m_Source_File_Index>
49

> <i_lp_mmshare_version>
53161

> <i_f3d_flags>
0

> <r_lp_tautomer_probability>
0.99999999999473

> <s_lp_Force_Field>
OPLS_2005

> <r_lp_Energy>
37.006159

> <b_lp_Chiralities_Consistent>
1

> <s_lp_Variant>
88199-2

> <s_i_glide_gridfile>
glide-grid_1sj0

> <i_i_glide_lignum>
575

> <i_i_glide_rotatable_bonds>
9

> <r_i_docking_score>
-10.4122998342142

> <r_i_glide_ligand_efficiency>
-0.306244112771006

> <r_i_glide_ligand_efficiency_sa>
-0.992112040638522

> <r_i_glide_ligand_efficiency_ln>
-2.3003690884957

> <r_i_glide_gscore>
-10.4122998342142

> <r_i_glide_lipo>
-5.55973545611082

> <r_i_glide_hbond>
-0.531529386934695

> <r_i_glide_metal>
0

> <r_i_glide_rewards>
-1.31463469283547

> <r_i_glide_evdw>
-36.1293983459473

> <r_i_glide_ecoul>
-10.677490234375

> <r_i_glide_erotb>
0.401693154120401

> <r_i_glide_esite>
0

> <r_i_glide_emodel>
-71.1351161202757

> <r_i_glide_energy>
-46.8068885803223

> <r_i_glide_einternal>
5.5932092666626

> <i_i_glide_confnum>
2

> <i_i_glide_posenum>
10

> <r_i_glide_eff_state_penalty>
0

> <s_user_duplicate_titles>
88199

> <s_m_subgroup_title>
dock_pv

> <s_m_subgroupid>
dock_pv1

> <b_m_subgroup_collapsed>
0

$$$$
149574
                    3D
 Schrodinger Suite 2021-1.
 37 39  0  0  1  0            999 V2000
   31.1936   -1.1759   25.1943 C   0  0  0  0  0  0
   31.8101   -1.6475   24.0384 C   0  0  0  0  0  0
   32.7023   -2.7117   24.1174 C   0  0  0  0  0  0
   32.9642   -3.3204   25.3392 C   0  0  0  0  0  0
   32.3358   -2.8614   26.4915 C   0  0  0  0  0  0
   31.4704   -1.7631   26.4374 C   0  0  0  0  0  0
   30.8651   -1.1903   27.7369 C   0  0  2  0  0  0
   29.3184   -1.2538   27.6782 C   0  0  0  0  0  0
   28.6646   -2.4718   27.4445 C   0  0  0  0  0  0
   27.3040   -2.5181   27.1437 C   0  0  0  0  0  0
   26.5656   -1.3400   27.1161 C   0  0  0  0  0  0
   27.1677   -0.1398   27.4640 C   0  0  0  0  0  0
   28.5333   -0.0835   27.7493 C   0  0  0  0  0  0
   29.1949    1.2282   28.1055 C   0  0  0  0  0  0
   30.5797    1.2989   27.4640 C   0  0  0  0  0  0
   31.3630    0.1852   28.0361 N   0  0  0  0  0  0
   32.6335    0.4574   28.4686 C   0  0  0  0  0  0
   33.1343    1.5762   28.3121 O   0  0  0  0  0  0
   33.4139   -0.5248   29.3754 C   0  0  0  0  0  0
   32.8600   -0.5157   30.5889 F   0  0  0  0  0  0
   33.4039   -1.7670   28.9111 F   0  0  0  0  0  0
   34.6897   -0.1419   29.4719 F   0  0  0  0  0  0
   25.2600   -1.3420   26.7165 O   0  0  0  0  0  0
   33.5701   -3.3420   22.5467 Br  0  0  0  0  0  0
   30.5025   -0.3523   25.1134 H   0  0  0  0  0  0
   31.6093   -1.1846   23.0842 H   0  0  0  0  0  0
   33.6600   -4.1420   25.3910 H   0  0  0  0  0  0
   32.5474   -3.3568   27.4257 H   0  0  0  0  0  0
   31.1713   -1.8511   28.5470 H   0  0  0  0  0  0
   29.2391   -3.3851   27.4006 H   0  0  0  0  0  0
   26.8419   -3.4607   26.8862 H   0  0  0  0  0  0
   26.5735    0.7630   27.4669 H   0  0  0  0  0  0
   29.2703    1.3352   29.1892 H   0  0  0  0  0  0
   28.5915    2.0708   27.7658 H   0  0  0  0  0  0
   30.9835    2.2580   27.7702 H   0  0  0  0  0  0
   30.5102    1.2951   26.3797 H   0  0  0  0  0  0
   25.0069   -2.1983   26.3055 H   0  0  0  0  0  0
  1  6  1  0  0  0
  1  2  2  0  0  0
  1 25  1  0  0  0
  2  3  1  0  0  0
  2 26  1  0  0  0
  3  4  2  0  0  0
  3 24  1  0  0  0
  4  5  1  0  0  0
  4 27  1  0  0  0
  5  6  2  0  0  0
  5 28  1  0  0  0
  6  7  1  0  0  0
  7 16  1  0  0  0
  7  8  1  0  0  0
  7 29  1  0  0  0
  8 13  2  0  0  0
  8  9  1  0  0  0
  9 10  2  0  0  0
  9 30  1  0  0  0
 10 11  1  0  0  0
 10 31  1  0  0  0
 11 12  2  0  0  0
 11 23  1  0  0  0
 12 13  1  0  0  0
 12 32  1  0  0  0
 13 14  1  0  0  0
 14 15  1  0  0  0
 14 33  1  0  0  0
 14 34  1  0  0  0
 15 16  1  0  0  0
 15 35  1  0  0  0
 15 36  1  0  0  0
 16 17  1  0  0  0
 17 18  2  0  0  0
 17 19  1  0  0  0
 19 20  1  0  0  0
 19 21  1  0  0  0
 19 22  1  0  0  0
 23 37  1  0  0  0
M  END
> <s_m_entry_id>
17123

> <s_m_entry_name>
ligand_docking-pose.50

> <s_m_Source_Path>
/home/csk/Desktop/cluster/DUD-E-result/esr1

> <s_m_Source_File>
ligand_docking-pose.sdf

> <i_m_Source_File_Index>
50

> <i_lp_mmshare_version>
53161

> <i_f3d_flags>
0

> <r_lp_tautomer_probability>
0.999999999997365

> <s_lp_Force_Field>
OPLS_2005

> <r_lp_Energy>
25.972313

> <b_lp_Chiralities_Consistent>
1

> <s_lp_Variant>
149574-1

> <s_i_glide_gridfile>
glide-grid_1sj0

> <i_i_glide_lignum>
186

> <i_i_glide_rotatable_bonds>
4

> <r_i_docking_score>
-10.4090104517701

> <r_i_glide_ligand_efficiency>
-0.433708768823753

> <r_i_glide_ligand_efficiency_sa>
-1.25103256962394

> <r_i_glide_ligand_efficiency_ln>
-2.49135383947488

> <r_i_glide_gscore>
-10.4090104517701

> <r_i_glide_lipo>
-4.36322664499129

> <r_i_glide_hbond>
-0.205827407675772

> <r_i_glide_metal>
0

> <r_i_glide_rewards>
-3.0960934276312

> <r_i_glide_evdw>
-44.0594711303711

> <r_i_glide_ecoul>
-4.74828672409058

> <r_i_glide_erotb>
0.171353593660335

> <r_i_glide_esite>
0

> <r_i_glide_emodel>
-80.4642242085956

> <r_i_glide_energy>
-48.8077578544617

> <r_i_glide_einternal>
1.20262289047241

> <i_i_glide_confnum>
14

> <i_i_glide_posenum>
379

> <r_i_glide_eff_state_penalty>
0

> <s_user_duplicate_titles>
149574

> <s_m_subgroup_title>
dock_pv

> <s_m_subgroupid>
dock_pv1

> <b_m_subgroup_collapsed>
0

$$$$
202827
                    3D
 Schrodinger Suite 2021-1.
 54 58  0  0  1  0            999 V2000
   30.8021   -1.0020   25.8208 C   0  0  0  0  0  0
   31.2631   -1.1615   24.5294 C   0  0  0  0  0  0
   32.3368   -2.0090   24.2618 C   0  0  0  0  0  0
   32.9508   -2.6976   25.3120 C   0  0  0  0  0  0
   32.4964   -2.5290   26.6146 C   0  0  0  0  0  0
   31.4264   -1.6673   26.8774 C   0  0  0  0  0  0
   30.9782   -1.4464   28.3264 C   0  0  1  0  0  0
   30.8734    0.0133   28.8297 C   0  0  2  0  0  0
   29.3759    0.9157   28.2707 S   0  0  0  0  0  0
   28.2767   -0.4339   27.9183 C   0  0  0  0  0  0
   26.9970   -0.1585   27.4297 C   0  0  0  0  0  0
   26.0974   -1.1975   27.1929 C   0  0  0  0  0  0
   26.4611   -2.5121   27.4779 C   0  0  0  0  0  0
   27.7544   -2.8122   27.8669 C   0  0  0  0  0  0
   28.6478   -1.7777   28.1117 C   0  0  0  0  0  0
   29.8296   -2.1907   28.6644 O   0  0  0  0  0  0
   24.8644   -0.9415   26.6628 O   0  0  0  0  0  0
   32.1760    0.7468   28.5458 C   0  0  0  0  0  0
   32.3371    1.4581   27.3549 C   0  0  0  0  0  0
   33.5724    1.9812   27.0161 C   0  0  0  0  0  0
   34.6467    1.7705   27.8639 C   0  0  0  0  0  0
   34.5081    1.0687   29.0586 C   0  0  0  0  0  0
   33.2616    0.5663   29.4084 C   0  0  0  0  0  0
   35.8555    2.2554   27.4916 O   0  0  0  0  0  0
   32.7414   -2.1420   22.9469 N   0  0  0  0  0  0
   34.0562   -2.6525   22.5278 C   0  0  0  0  0  0
   34.0693   -4.1424   22.2534 C   0  0  0  0  0  0
   33.0555   -4.5295   21.2919 N   0  0  0  0  0  0
   31.7795   -4.1421   21.8635 C   0  0  0  0  0  0
   31.7457   -2.6175   21.9813 C   0  0  0  0  0  0
   31.7594   -1.9063   28.9347 H   0  0  0  0  0  0
   30.7660   -0.0115   29.9143 H   0  0  0  0  0  0
   29.9725   -0.3347   25.9691 H   0  0  0  0  0  0
   30.7803   -0.6154   23.7332 H   0  0  0  0  0  0
   33.7755   -3.3691   25.1308 H   0  0  0  0  0  0
   32.9888   -3.0635   27.4142 H   0  0  0  0  0  0
   26.6932    0.8601   27.2355 H   0  0  0  0  0  0
   25.7419   -3.3151   27.4362 H   0  0  0  0  0  0
   28.0357   -3.8360   28.0670 H   0  0  0  0  0  0
   24.5522   -1.7043   26.1524 H   0  0  0  0  0  0
   31.5170    1.5767   26.6653 H   0  0  0  0  0  0
   33.7065    2.5136   26.0863 H   0  0  0  0  0  0
   35.3589    0.9085   29.7038 H   0  0  0  0  0  0
   33.1556   -0.0047   30.3195 H   0  0  0  0  0  0
   36.5790    1.9269   28.0424 H   0  0  0  0  0  0
   34.3705   -2.1422   21.6171 H   0  0  0  0  0  0
   34.8073   -2.4579   23.2925 H   0  0  0  0  0  0
   33.9389   -4.6720   23.1967 H   0  0  0  0  0  0
   35.0375   -4.4481   21.8635 H   0  0  0  0  0  0
   33.0447   -5.5273   21.1045 H   0  0  0  0  0  0
   31.6604   -4.6366   22.8273 H   0  0  0  0  0  0
   30.9545   -4.4865   21.2457 H   0  0  0  0  0  0
   30.7398   -2.3269   22.2641 H   0  0  0  0  0  0
   31.9342   -2.1502   21.0126 H   0  0  0  0  0  0
  1  6  1  0  0  0
  1  2  2  0  0  0
  1 33  1  0  0  0
  2  3  1  0  0  0
  2 34  1  0  0  0
  3  4  2  0  0  0
  3 25  1  0  0  0
  4  5  1  0  0  0
  4 35  1  0  0  0
  5  6  2  0  0  0
  5 36  1  0  0  0
  6  7  1  0  0  0
  7 31  1  0  0  0
  7 16  1  0  0  0
  7  8  1  0  0  0
  8 32  1  0  0  0
  8  9  1  0  0  0
  8 18  1  0  0  0
  9 10  1  0  0  0
 10 15  2  0  0  0
 10 11  1  0  0  0
 11 12  2  0  0  0
 11 37  1  0  0  0
 12 13  1  0  0  0
 12 17  1  0  0  0
 13 14  2  0  0  0
 13 38  1  0  0  0
 14 15  1  0  0  0
 14 39  1  0  0  0
 15 16  1  0  0  0
 17 40  1  0  0  0
 18 23  1  0  0  0
 18 19  2  0  0  0
 19 20  1  0  0  0
 19 41  1  0  0  0
 20 21  2  0  0  0
 20 42  1  0  0  0
 21 22  1  0  0  0
 21 24  1  0  0  0
 22 23  2  0  0  0
 22 43  1  0  0  0
 23 44  1  0  0  0
 24 45  1  0  0  0
 25 30  1  0  0  0
 25 26  1  0  0  0
 26 27  1  0  0  0
 26 46  1  0  0  0
 26 47  1  0  0  0
 27 28  1  0  0  0
 27 48  1  0  0  0
 27 49  1  0  0  0
 28 29  1  0  0  0
 28 50  1  0  0  0
 29 30  1  0  0  0
 29 51  1  0  0  0
 29 52  1  0  0  0
 30 53  1  0  0  0
 30 54  1  0  0  0
M  END
> <s_m_entry_id>
17124

> <s_m_entry_name>
ligand_docking-pose.51

> <s_m_Source_Path>
/home/csk/Desktop/cluster/DUD-E-result/esr1

> <s_m_Source_File>
ligand_docking-pose.sdf

> <i_m_Source_File_Index>
51

> <i_lp_mmshare_version>
53161

> <i_f3d_flags>
0

> <r_lp_tautomer_probability>
0.999999999997365

> <s_lp_Force_Field>
OPLS_2005

> <r_lp_Energy>
45.589432

> <b_lp_Chiralities_Consistent>
1

> <s_lp_Variant>
202827-1

> <s_i_glide_gridfile>
glide-grid_1sj0

> <i_i_glide_lignum>
553

> <i_i_glide_rotatable_bonds>
5

> <r_i_docking_score>
-10.4078857821691

> <r_i_glide_ligand_efficiency>
-0.346929526072302

> <r_i_glide_ligand_efficiency_sa>
-1.07799069946487

> <r_i_glide_ligand_efficiency_ln>
-2.36478505270727

> <r_i_glide_gscore>
-10.4078857821691

> <r_i_glide_lipo>
-5.33181574052812

> <r_i_glide_hbond>
-0.590058202884534

> <r_i_glide_metal>
0

> <r_i_glide_rewards>
-1.71755290230906

> <r_i_glide_evdw>
-39.2782707214355

> <r_i_glide_ecoul>
-6.93060636520386

> <r_i_glide_erotb>
0.235045554405012

> <r_i_glide_esite>
0

> <r_i_glide_emodel>
-52.4521697080485

> <r_i_glide_energy>
-46.2088770866394

> <r_i_glide_einternal>
13.0061807632446

> <i_i_glide_confnum>
36

> <i_i_glide_posenum>
367

> <r_i_glide_eff_state_penalty>
0

> <s_user_duplicate_titles>
202827

> <s_m_subgroup_title>
dock_pv

> <s_m_subgroupid>
dock_pv1

> <b_m_subgroup_collapsed>
0

$$$$
326258
                    3D
 Schrodinger Suite 2021-1.
 54 58  0  0  1  0            999 V2000
   36.1927   -1.5554   20.0276 C   0  0  0  0  0  0
   34.8602   -1.6834   19.4396 N   0  0  0  0  0  0
   34.9023   -1.2875   18.0344 C   0  0  0  0  0  0
   34.3057   -3.0399   19.5675 C   0  0  0  0  0  0
   34.0270   -3.4661   21.0241 C   0  0  0  0  0  0
   33.1168   -2.5420   21.6194 O   0  0  0  0  0  0
   32.9009   -2.5602   22.9808 C   0  0  0  0  0  0
   33.4593   -3.5040   23.8434 C   0  0  0  0  0  0
   33.1744   -3.4660   25.1995 C   0  0  0  0  0  0
   32.2439   -2.5603   25.6938 C   0  0  0  0  0  0
   31.7061   -1.5868   24.8508 C   0  0  0  0  0  0
   32.0600   -1.5807   23.5061 C   0  0  0  0  0  0
   31.7414   -2.7594   27.1116 C   0  0  0  0  0  0
   31.4859   -1.5489   27.8667 N   0  0  0  0  0  0
   32.4788   -0.8466   28.5452 C   0  0  0  0  0  0
   33.7975   -1.1473   28.8641 C   0  0  0  0  0  0
   34.5531   -0.1443   29.4640 C   0  0  0  0  0  0
   33.9768    1.0580   29.8593 C   0  0  0  0  0  0
   32.6321    1.3407   29.6104 C   0  0  0  0  0  0
   31.8992    0.3834   28.9178 C   0  0  0  0  0  0
   30.5867    0.3693   28.4748 C   0  0  0  0  0  0
   30.3045   -0.8533   27.9221 C   0  0  0  0  0  0
   28.9596   -1.0202   27.5833 C   0  0  0  0  0  0
   28.3163   -2.1874   27.1490 C   0  0  0  0  0  0
   26.9574   -2.1253   26.8750 C   0  0  0  0  0  0
   26.2399   -0.9419   27.0080 C   0  0  0  0  0  0
   26.8504    0.2272   27.4640 C   0  0  0  0  0  0
   28.2158    0.1832   27.7715 C   0  0  0  0  0  0
   29.2583    1.4626   28.4298 S   0  0  0  0  0  0
   24.9177   -0.9420   26.6640 O   0  0  0  0  0  0
   36.1719   -1.7428   21.1008 H   0  0  0  0  0  0
   36.5743   -0.5421   19.8966 H   0  0  0  0  0  0
   36.9031   -2.2476   19.5723 H   0  0  0  0  0  0
   33.9045   -1.3194   17.5941 H   0  0  0  0  0  0
   35.2660   -0.2638   17.9309 H   0  0  0  0  0  0
   35.5528   -1.9402   17.4494 H   0  0  0  0  0  0
   33.3611   -3.0904   19.0228 H   0  0  0  0  0  0
   34.9714   -3.7647   19.0950 H   0  0  0  0  0  0
   33.5851   -4.4642   21.0341 H   0  0  0  0  0  0
   34.9651   -3.5280   21.5770 H   0  0  0  0  0  0
   34.0600   -4.3133   23.4714 H   0  0  0  0  0  0
   33.5900   -4.2251   25.8431 H   0  0  0  0  0  0
   30.9931   -0.8620   25.2156 H   0  0  0  0  0  0
   31.6600   -0.8223   22.8598 H   0  0  0  0  0  0
   30.8351   -3.3420   27.0640 H   0  0  0  0  0  0
   32.4743   -3.3420   27.6664 H   0  0  0  0  0  0
   34.2089   -2.1181   28.6640 H   0  0  0  0  0  0
   35.5932   -0.3301   29.6916 H   0  0  0  0  0  0
   34.5864    1.7907   30.3672 H   0  0  0  0  0  0
   32.1686    2.2580   29.9291 H   0  0  0  0  0  0
   28.8190   -3.1345   27.0599 H   0  0  0  0  0  0
   26.4600   -3.0249   26.5479 H   0  0  0  0  0  0
   26.2839    1.1396   27.5659 H   0  0  0  0  0  0
   24.6832   -1.7954   26.2579 H   0  0  0  0  0  0
  1  2  1  0  0  0
  1 31  1  0  0  0
  1 32  1  0  0  0
  1 33  1  0  0  0
  2  3  1  0  0  0
  2  4  1  0  0  0
  3 34  1  0  0  0
  3 35  1  0  0  0
  3 36  1  0  0  0
  4  5  1  0  0  0
  4 37  1  0  0  0
  4 38  1  0  0  0
  5  6  1  0  0  0
  5 39  1  0  0  0
  5 40  1  0  0  0
  6  7  1  0  0  0
  7 12  1  0  0  0
  7  8  2  0  0  0
  8  9  1  0  0  0
  8 41  1  0  0  0
  9 10  2  0  0  0
  9 42  1  0  0  0
 10 11  1  0  0  0
 10 13  1  0  0  0
 11 12  2  0  0  0
 11 43  1  0  0  0
 12 44  1  0  0  0
 13 14  1  0  0  0
 13 45  1  0  0  0
 13 46  1  0  0  0
 14 22  1  0  0  0
 14 15  1  0  0  0
 15 20  2  0  0  0
 15 16  1  0  0  0
 16 17  2  0  0  0
 16 47  1  0  0  0
 17 18  1  0  0  0
 17 48  1  0  0  0
 18 19  2  0  0  0
 18 49  1  0  0  0
 19 20  1  0  0  0
 19 50  1  0  0  0
 20 21  1  0  0  0
 21 29  1  0  0  0
 21 22  2  0  0  0
 22 23  1  0  0  0
 23 28  2  0  0  0
 23 24  1  0  0  0
 24 25  2  0  0  0
 24 51  1  0  0  0
 25 26  1  0  0  0
 25 52  1  0  0  0
 26 27  2  0  0  0
 26 30  1  0  0  0
 27 28  1  0  0  0
 27 53  1  0  0  0
 28 29  1  0  0  0
 30 54  1  0  0  0
M  END
> <s_m_entry_id>
17125

> <s_m_entry_name>
ligand_docking-pose.52

> <s_m_Source_Path>
/home/csk/Desktop/cluster/DUD-E-result/esr1

> <s_m_Source_File>
ligand_docking-pose.sdf

> <i_m_Source_File_Index>
52

> <i_lp_mmshare_version>
53161

> <i_f3d_flags>
0

> <r_lp_tautomer_probability>
1

> <s_lp_Force_Field>
OPLS_2005

> <r_lp_Energy>
49.867028

> <b_lp_Chiralities_Consistent>
1

> <s_lp_Variant>
326258-1

> <s_i_glide_gridfile>
glide-grid_1sj0

> <i_i_glide_lignum>
1740

> <i_i_glide_rotatable_bonds>
7

> <r_i_docking_score>
-10.3955497786448

> <r_i_glide_ligand_efficiency>
-0.346518325954826

> <r_i_glide_ligand_efficiency_sa>
-1.07671300509484

> <r_i_glide_ligand_efficiency_ln>
-2.36198217829503

> <r_i_glide_gscore>
-10.3955497786448

> <r_i_glide_lipo>
-5.764914159531

> <r_i_glide_hbond>
-0.25923010060946

> <r_i_glide_metal>
0

> <r_i_glide_rewards>
-1.81254937962309

> <r_i_glide_evdw>
-44.3481559753418

> <r_i_glide_ecoul>
-4.93330812454224

> <r_i_glide_erotb>
0.398547878567207

> <r_i_glide_esite>
0

> <r_i_glide_emodel>
-65.6282176611148

> <r_i_glide_energy>
-49.281464099884

> <r_i_glide_einternal>
1.82392883300781

> <i_i_glide_confnum>
17

> <i_i_glide_posenum>
139

> <r_i_glide_eff_state_penalty>
0

> <s_user_duplicate_titles>
326258

> <s_m_subgroup_title>
dock_pv

> <s_m_subgroupid>
dock_pv1

> <b_m_subgroup_collapsed>
0

$$$$
67420
                    3D
 Schrodinger Suite 2021-1.
 57 61  0  0  1  0            999 V2000
   31.5216   -1.7314   24.6882 C   0  0  0  0  0  0
   31.7772   -2.1421   23.3878 C   0  0  0  0  0  0
   32.7052   -3.1177   23.0938 C   0  0  0  0  0  0
   33.3799   -3.7364   24.1451 C   0  0  0  0  0  0
   33.1358   -3.3417   25.4631 C   0  0  0  0  0  0
   32.2066   -2.3308   25.7514 C   0  0  0  0  0  0
   32.0022   -1.8652   27.1650 C   0  0  0  0  0  0
   32.7494   -2.2159   28.0786 O   0  0  0  0  0  0
   30.9508   -0.8754   27.4354 C   0  0  0  0  0  0
   29.5460   -1.1341   27.3816 C   0  0  0  0  0  0
   28.8797   -2.3557   27.1728 C   0  0  0  0  0  0
   27.4919   -2.3904   27.0638 C   0  0  0  0  0  0
   26.7377   -1.2329   27.1949 C   0  0  0  0  0  0
   27.3440   -0.0065   27.4641 C   0  0  0  0  0  0
   28.7464    0.0409   27.5596 C   0  0  0  0  0  0
   29.7442    1.4506   27.8874 S   0  0  0  0  0  0
   31.1832    0.4568   27.7668 C   0  0  0  0  0  0
   32.4986    1.0098   27.9878 C   0  0  0  0  0  0
   33.2456    1.7553   27.0655 C   0  0  0  0  0  0
   34.5518    1.9664   27.4800 C   0  0  0  0  0  0
   34.8600    1.2544   29.0268 S   0  0  0  0  0  0
   33.2304    0.7135   29.1308 C   0  0  0  0  0  0
   25.3811   -1.3080   27.0432 O   0  0  0  0  0  0
   32.8556   -3.3721   21.7468 O   0  0  0  0  0  0
   33.7365   -4.3823   21.2813 C   0  0  0  0  0  0
   33.9040   -4.2432   19.7542 C   0  0  0  0  0  0
   34.4182   -2.9377   19.3155 N   0  0  0  0  0  0
   34.2244   -2.7799   17.8661 C   0  0  0  0  0  0
   34.6920   -1.3983   17.3664 C   0  0  0  0  0  0
   36.1481   -1.1149   17.7603 C   0  0  0  0  0  0
   36.3247   -1.3206   19.2733 C   0  0  0  0  0  0
   35.8055   -2.6969   19.7420 C   0  0  0  0  0  0
   30.7969   -0.9473   24.8414 H   0  0  0  0  0  0
   31.2599   -1.7418   22.5519 H   0  0  0  0  0  0
   34.0600   -4.5422   23.9509 H   0  0  0  0  0  0
   33.6595   -3.8459   26.2612 H   0  0  0  0  0  0
   29.4421   -3.2724   27.0640 H   0  0  0  0  0  0
   26.9990   -3.3346   26.8641 H   0  0  0  0  0  0
   26.7410    0.8835   27.5772 H   0  0  0  0  0  0
   32.8685    2.0749   26.1042 H   0  0  0  0  0  0
   35.3498    2.4643   26.9487 H   0  0  0  0  0  0
   32.9129    0.1257   29.9790 H   0  0  0  0  0  0
   25.1155   -2.0914   26.5318 H   0  0  0  0  0  0
   34.7024   -4.3651   21.7889 H   0  0  0  0  0  0
   33.2670   -5.3426   21.4641 H   0  0  0  0  0  0
   34.5461   -5.0431   19.3790 H   0  0  0  0  0  0
   32.9207   -4.4092   19.3086 H   0  0  0  0  0  0
   34.7482   -3.5776   17.3369 H   0  0  0  0  0  0
   33.1648   -2.8997   17.6339 H   0  0  0  0  0  0
   34.5930   -1.3560   16.2813 H   0  0  0  0  0  0
   34.0224   -0.6251   17.7458 H   0  0  0  0  0  0
   36.4320   -0.1037   17.4665 H   0  0  0  0  0  0
   36.8113   -1.7909   17.2191 H   0  0  0  0  0  0
   35.8250   -0.5320   19.8391 H   0  0  0  0  0  0
   37.3805   -1.2307   19.5315 H   0  0  0  0  0  0
   35.8664   -2.7426   20.8300 H   0  0  0  0  0  0
   36.4475   -3.4966   19.3669 H   0  0  0  0  0  0
  1  6  1  0  0  0
  1  2  2  0  0  0
  1 33  1  0  0  0
  2  3  1  0  0  0
  2 34  1  0  0  0
  3  4  2  0  0  0
  3 24  1  0  0  0
  4  5  1  0  0  0
  4 35  1  0  0  0
  5  6  2  0  0  0
  5 36  1  0  0  0
  6  7  1  0  0  0
  7  8  2  0  0  0
  7  9  1  0  0  0
  9 17  2  0  0  0
  9 10  1  0  0  0
 10 15  2  0  0  0
 10 11  1  0  0  0
 11 12  2  0  0  0
 11 37  1  0  0  0
 12 13  1  0  0  0
 12 38  1  0  0  0
 13 14  2  0  0  0
 13 23  1  0  0  0
 14 15  1  0  0  0
 14 39  1  0  0  0
 15 16  1  0  0  0
 16 17  1  0  0  0
 17 18  1  0  0  0
 18 22  2  0  0  0
 18 19  1  0  0  0
 19 20  2  0  0  0
 19 40  1  0  0  0
 20 21  1  0  0  0
 20 41  1  0  0  0
 21 22  1  0  0  0
 22 42  1  0  0  0
 23 43  1  0  0  0
 24 25  1  0  0  0
 25 26  1  0  0  0
 25 44  1  0  0  0
 25 45  1  0  0  0
 26 27  1  0  0  0
 26 46  1  0  0  0
 26 47  1  0  0  0
 27 32  1  0  0  0
 27 28  1  0  0  0
 28 29  1  0  0  0
 28 48  1  0  0  0
 28 49  1  0  0  0
 29 30  1  0  0  0
 29 50  1  0  0  0
 29 51  1  0  0  0
 30 31  1  0  0  0
 30 52  1  0  0  0
 30 53  1  0  0  0
 31 32  1  0  0  0
 31 54  1  0  0  0
 31 55  1  0  0  0
 32 56  1  0  0  0
 32 57  1  0  0  0
M  END
> <s_m_entry_id>
17126

> <s_m_entry_name>
ligand_docking-pose.53

> <s_m_Source_Path>
/home/csk/Desktop/cluster/DUD-E-result/esr1

> <s_m_Source_File>
ligand_docking-pose.sdf

> <i_m_Source_File_Index>
53

> <i_lp_mmshare_version>
53161

> <i_f3d_flags>
0

> <r_lp_tautomer_probability>
1

> <s_lp_Force_Field>
OPLS_2005

> <r_lp_Energy>
39.564065

> <b_lp_Chiralities_Consistent>
1

> <s_lp_Variant>
67420-1

> <s_i_glide_gridfile>
glide-grid_1sj0

> <i_i_glide_lignum>
593

> <i_i_glide_rotatable_bonds>
8

> <r_i_docking_score>
-10.3864661813484

> <r_i_glide_ligand_efficiency>
-0.324577068167139

> <r_i_glide_ligand_efficiency_sa>
-1.0304679577161

> <r_i_glide_ligand_efficiency_ln>
-2.32581290237893

> <r_i_glide_gscore>
-10.3864661813484

> <r_i_glide_lipo>
-5.66091101128262

> <r_i_glide_hbond>
-0.19377931641606

> <r_i_glide_metal>
0

> <r_i_glide_rewards>
-1.50094679149813

> <r_i_glide_evdw>
-52.836612701416

> <r_i_glide_ecoul>
-5.21866846084595

> <r_i_glide_erotb>
0.393801842046068

> <r_i_glide_esite>
0

> <r_i_glide_emodel>
-78.0453173890214

> <r_i_glide_energy>
-58.055281162262

> <r_i_glide_einternal>
10.5873003005981

> <i_i_glide_confnum>
1

> <i_i_glide_posenum>
4

> <r_i_glide_eff_state_penalty>
0

> <s_user_duplicate_titles>
67420

> <s_m_subgroup_title>
dock_pv

> <s_m_subgroupid>
dock_pv1

> <b_m_subgroup_collapsed>
0

$$$$
203727
                    3D
 Schrodinger Suite 2021-1.
 62 66  0  0  1  0            999 V2000
   32.4033    1.4585   27.4341 C   0  0  0  0  0  0
   33.6147    2.0820   27.2884 C   0  0  0  0  0  0
   34.5647    1.8873   28.2681 C   0  0  0  0  0  0
   34.3739    1.0520   29.3596 C   0  0  0  0  0  0
   33.1426    0.4420   29.5162 C   0  0  0  0  0  0
   32.1530    0.6602   28.5562 C   0  0  0  0  0  0
   30.8509   -0.0912   28.6648 C   0  0  2  0  0  0
   31.1143   -1.5617   28.2485 C   0  0  1  0  0  0
   29.6607   -2.5439   28.2642 S   0  0  0  0  0  0
   28.2832   -1.6627   27.7646 C   0  0  0  0  0  0
   27.1910   -2.4901   27.6102 C   0  0  0  0  0  0
   25.9562   -1.9283   27.4649 C   0  0  0  0  0  0
   25.7894   -0.5746   27.3252 C   0  0  0  0  0  0
   26.8838    0.2726   27.4657 C   0  0  0  0  0  0
   28.1435   -0.2653   27.7417 C   0  0  0  0  0  0
   29.4791    0.8601   27.9037 S   0  0  0  0  0  0
   24.5281   -0.1421   27.0611 O   0  0  0  0  0  0
   31.8410   -1.8879   26.9541 C   0  0  0  0  0  0
   32.7694   -2.9438   26.8516 C   0  0  0  0  0  0
   33.2613   -3.3377   25.5958 C   0  0  0  0  0  0
   32.8607   -2.6515   24.4483 C   0  0  0  0  0  0
   32.0241   -1.5749   24.6158 C   0  0  0  0  0  0
   31.4813   -1.1983   25.8163 C   0  0  0  0  0  0
   31.6621   -0.5441   23.1419 Br  0  0  0  0  0  0
   33.1856   -2.8883   23.1284 O   0  0  0  0  0  0
   34.0617   -3.8990   22.7079 C   0  0  0  0  0  0
   33.6454   -4.3788   21.2947 C   0  0  0  0  0  0
   34.3591   -3.7143   20.1959 N   0  0  0  0  0  0
   34.0523   -4.3871   18.9244 C   0  0  0  0  0  0
   34.8633   -3.7966   17.7503 C   0  0  0  0  0  0
   34.7120   -2.2704   17.6413 C   0  0  0  0  0  0
   34.9861   -1.6313   19.0090 C   0  0  0  0  0  0
   34.1221   -2.2676   20.1178 C   0  0  0  0  0  0
   35.6607    2.6522   28.2112 O   0  0  0  0  0  0
   30.5815   -0.0868   29.7207 H   0  0  0  0  0  0
   31.7302   -2.0134   29.0267 H   0  0  0  0  0  0
   31.6684    1.6137   26.6634 H   0  0  0  0  0  0
   33.8045    2.7352   26.4499 H   0  0  0  0  0  0
   35.1502    0.9267   30.0961 H   0  0  0  0  0  0
   32.9687   -0.1999   30.3690 H   0  0  0  0  0  0
   27.2727   -3.5683   27.6818 H   0  0  0  0  0  0
   25.0770   -2.5380   27.4256 H   0  0  0  0  0  0
   26.7542    1.3395   27.3797 H   0  0  0  0  0  0
   24.4598    0.8314   27.0364 H   0  0  0  0  0  0
   33.0737   -3.4950   27.7280 H   0  0  0  0  0  0
   33.9627   -4.1450   25.5165 H   0  0  0  0  0  0
   30.7762   -0.3856   25.8440 H   0  0  0  0  0  0
   34.0603   -4.7205   23.4179 H   0  0  0  0  0  0
   35.0427   -3.4215   22.6619 H   0  0  0  0  0  0
   32.5670   -4.2736   21.1583 H   0  0  0  0  0  0
   33.8517   -5.4420   21.2155 H   0  0  0  0  0  0
   32.9770   -4.3454   18.7286 H   0  0  0  0  0  0
   34.3006   -5.4465   19.0195 H   0  0  0  0  0  0
   34.5296   -4.2591   16.8203 H   0  0  0  0  0  0
   35.9118   -4.0860   17.8519 H   0  0  0  0  0  0
   35.3939   -1.8708   16.8901 H   0  0  0  0  0  0
   33.7015   -2.0201   17.3118 H   0  0  0  0  0  0
   36.0401   -1.7206   19.2728 H   0  0  0  0  0  0
   34.8018   -0.5600   18.9623 H   0  0  0  0  0  0
   33.0565   -2.0995   19.9494 H   0  0  0  0  0  0
   34.3682   -1.7923   21.0635 H   0  0  0  0  0  0
   36.3976    2.2666   28.7046 H   0  0  0  0  0  0
  1  6  1  0  0  0
  1  2  2  0  0  0
  1 37  1  0  0  0
  2  3  1  0  0  0
  2 38  1  0  0  0
  3  4  2  0  0  0
  3 34  1  0  0  0
  4  5  1  0  0  0
  4 39  1  0  0  0
  5  6  2  0  0  0
  5 40  1  0  0  0
  6  7  1  0  0  0
  7 35  1  0  0  0
  7 16  1  0  0  0
  7  8  1  0  0  0
  8 36  1  0  0  0
  8  9  1  0  0  0
  8 18  1  0  0  0
  9 10  1  0  0  0
 10 15  2  0  0  0
 10 11  1  0  0  0
 11 12  2  0  0  0
 11 41  1  0  0  0
 12 13  1  0  0  0
 12 42  1  0  0  0
 13 14  2  0  0  0
 13 17  1  0  0  0
 14 15  1  0  0  0
 14 43  1  0  0  0
 15 16  1  0  0  0
 17 44  1  0  0  0
 18 23  1  0  0  0
 18 19  2  0  0  0
 19 20  1  0  0  0
 19 45  1  0  0  0
 20 21  2  0  0  0
 20 46  1  0  0  0
 21 22  1  0  0  0
 21 25  1  0  0  0
 22 23  2  0  0  0
 22 24  1  0  0  0
 23 47  1  0  0  0
 25 26  1  0  0  0
 26 27  1  0  0  0
 26 48  1  0  0  0
 26 49  1  0  0  0
 27 28  1  0  0  0
 27 50  1  0  0  0
 27 51  1  0  0  0
 28 33  1  0  0  0
 28 29  1  0  0  0
 29 30  1  0  0  0
 29 52  1  0  0  0
 29 53  1  0  0  0
 30 31  1  0  0  0
 30 54  1  0  0  0
 30 55  1  0  0  0
 31 32  1  0  0  0
 31 56  1  0  0  0
 31 57  1  0  0  0
 32 33  1  0  0  0
 32 58  1  0  0  0
 32 59  1  0  0  0
 33 60  1  0  0  0
 33 61  1  0  0  0
 34 62  1  0  0  0
M  END
> <s_m_entry_id>
17127

> <s_m_entry_name>
ligand_docking-pose.54

> <s_m_Source_Path>
/home/csk/Desktop/cluster/DUD-E-result/esr1

> <s_m_Source_File>
ligand_docking-pose.sdf

> <i_m_Source_File_Index>
54

> <i_lp_mmshare_version>
53161

> <i_f3d_flags>
0

> <r_lp_tautomer_probability>
0.99999999999473

> <s_lp_Force_Field>
OPLS_2005

> <r_lp_Energy>
35.0656

> <b_lp_Chiralities_Consistent>
1

> <s_lp_Variant>
203727-1

> <s_i_glide_gridfile>
glide-grid_1sj0

> <i_i_glide_lignum>
559

> <i_i_glide_rotatable_bonds>
8

> <r_i_docking_score>
-10.3695182254974

> <r_i_glide_ligand_efficiency>
-0.304985830161689

> <r_i_glide_ligand_efficiency_sa>
-0.988035693452827

> <r_i_glide_ligand_efficiency_ln>
-2.29091743114668

> <r_i_glide_gscore>
-10.3695182254974

> <r_i_glide_lipo>
-5.91493295390057

> <r_i_glide_hbond>
-0.651367831490502

> <r_i_glide_metal>
0

> <r_i_glide_rewards>
-0.9

> <r_i_glide_evdw>
-28.9549541473389

> <r_i_glide_ecoul>
-11.4033374786377

> <r_i_glide_erotb>
0.255030889056246

> <r_i_glide_esite>
0

> <r_i_glide_emodel>
-57.7487475872851

> <r_i_glide_energy>
-40.3582916259766

> <r_i_glide_einternal>
6.08042812347412

> <i_i_glide_confnum>
3

> <i_i_glide_posenum>
6

> <r_i_glide_eff_state_penalty>
0

> <s_user_duplicate_titles>
203727

> <s_m_subgroup_title>
dock_pv

> <s_m_subgroupid>
dock_pv1

> <b_m_subgroup_collapsed>
0

$$$$
326024
                    3D
 Schrodinger Suite 2021-1.
 58 63  0  0  1  0            999 V2000
   33.9614    1.0581   29.8546 C   0  0  0  0  0  0
   34.5382   -0.1457   29.4640 C   0  0  0  0  0  0
   33.7851   -1.1483   28.8599 C   0  0  0  0  0  0
   32.4691   -0.8460   28.5323 C   0  0  0  0  0  0
   31.8874    0.3834   28.9049 C   0  0  0  0  0  0
   32.6174    1.3404   29.6013 C   0  0  0  0  0  0
   30.5758    0.3692   28.4593 C   0  0  0  0  0  0
   30.2982   -0.8492   27.8947 C   0  0  0  0  0  0
   31.4805   -1.5458   27.8449 N   0  0  0  0  0  0
   31.7400   -2.7557   27.0889 C   0  0  0  0  0  0
   32.2383   -2.5494   25.6675 C   0  0  0  0  0  0
   31.7104   -1.5627   24.8326 C   0  0  0  0  0  0
   32.0597   -1.5490   23.4858 C   0  0  0  0  0  0
   32.8745   -2.5438   22.9473 C   0  0  0  0  0  0
   33.4440   -3.4856   23.8051 C   0  0  0  0  0  0
   33.1672   -3.4515   25.1635 C   0  0  0  0  0  0
   33.0696   -2.5446   21.5813 O   0  0  0  0  0  0
   33.5247   -3.7437   20.9468 C   0  0  0  0  0  0
   33.4306   -3.6000   19.4145 C   0  0  0  0  0  0
   34.5710   -2.8893   18.8236 N   0  0  0  0  0  0
   34.4568   -2.7520   17.3777 C   0  0  0  0  0  0
   35.4774   -1.6806   16.9814 C   0  0  0  0  0  0
   35.7486   -0.9189   18.2810 C   0  0  0  0  0  0
   34.7539   -1.5170   19.2735 C   0  0  0  0  0  0
   28.9553   -1.0121   27.5442 C   0  0  0  0  0  0
   28.3172   -2.1702   27.0795 C   0  0  0  0  0  0
   26.9564   -2.1108   26.8157 C   0  0  0  0  0  0
   26.2302   -0.9385   26.9886 C   0  0  0  0  0  0
   26.8369    0.2246   27.4640 C   0  0  0  0  0  0
   28.2053    0.1835   27.7573 C   0  0  0  0  0  0
   29.2442    1.4599   28.4234 S   0  0  0  0  0  0
   24.9034   -0.9420   26.6620 O   0  0  0  0  0  0
   34.5685    1.7916   30.3646 H   0  0  0  0  0  0
   35.5769   -0.3326   29.6969 H   0  0  0  0  0  0
   34.1965   -2.1201   28.6641 H   0  0  0  0  0  0
   32.1530    2.2580   29.9183 H   0  0  0  0  0  0
   30.8357   -3.3425   27.0608 H   0  0  0  0  0  0
   32.4756   -3.3418   27.6383 H   0  0  0  0  0  0
   31.0068   -0.8327   25.2051 H   0  0  0  0  0  0
   31.6600   -0.7841   22.8474 H   0  0  0  0  0  0
   34.0600   -4.2810   23.4263 H   0  0  0  0  0  0
   33.5905   -4.2097   25.8028 H   0  0  0  0  0  0
   32.8926   -4.5795   21.2549 H   0  0  0  0  0  0
   34.5489   -3.9802   21.2419 H   0  0  0  0  0  0
   32.4977   -3.0966   19.1552 H   0  0  0  0  0  0
   33.3730   -4.5974   18.9759 H   0  0  0  0  0  0
   33.4439   -2.4899   17.0641 H   0  0  0  0  0  0
   34.6595   -3.7170   16.9103 H   0  0  0  0  0  0
   35.0681   -1.0209   16.2162 H   0  0  0  0  0  0
   36.3904   -2.1288   16.5880 H   0  0  0  0  0  0
   36.7716   -1.0679   18.6293 H   0  0  0  0  0  0
   35.6022    0.1563   18.1675 H   0  0  0  0  0  0
   35.1353   -1.5202   20.2956 H   0  0  0  0  0  0
   33.8092   -0.9756   19.3113 H   0  0  0  0  0  0
   28.8249   -3.1105   26.9590 H   0  0  0  0  0  0
   26.4625   -3.0035   26.4662 H   0  0  0  0  0  0
   26.2657    1.1309   27.5895 H   0  0  0  0  0  0
   24.6676   -1.7935   26.2527 H   0  0  0  0  0  0
  1  6  1  0  0  0
  1  2  2  0  0  0
  1 33  1  0  0  0
  2  3  1  0  0  0
  2 34  1  0  0  0
  3  4  2  0  0  0
  3 35  1  0  0  0
  4  9  1  0  0  0
  4  5  1  0  0  0
  5  6  2  0  0  0
  5  7  1  0  0  0
  6 36  1  0  0  0
  7 31  1  0  0  0
  7  8  2  0  0  0
  8  9  1  0  0  0
  8 25  1  0  0  0
  9 10  1  0  0  0
 10 11  1  0  0  0
 10 37  1  0  0  0
 10 38  1  0  0  0
 11 16  1  0  0  0
 11 12  2  0  0  0
 12 13  1  0  0  0
 12 39  1  0  0  0
 13 14  2  0  0  0
 13 40  1  0  0  0
 14 15  1  0  0  0
 14 17  1  0  0  0
 15 16  2  0  0  0
 15 41  1  0  0  0
 16 42  1  0  0  0
 17 18  1  0  0  0
 18 19  1  0  0  0
 18 43  1  0  0  0
 18 44  1  0  0  0
 19 20  1  0  0  0
 19 45  1  0  0  0
 19 46  1  0  0  0
 20 24  1  0  0  0
 20 21  1  0  0  0
 21 22  1  0  0  0
 21 47  1  0  0  0
 21 48  1  0  0  0
 22 23  1  0  0  0
 22 49  1  0  0  0
 22 50  1  0  0  0
 23 24  1  0  0  0
 23 51  1  0  0  0
 23 52  1  0  0  0
 24 53  1  0  0  0
 24 54  1  0  0  0
 25 30  2  0  0  0
 25 26  1  0  0  0
 26 27  2  0  0  0
 26 55  1  0  0  0
 27 28  1  0  0  0
 27 56  1  0  0  0
 28 29  2  0  0  0
 28 32  1  0  0  0
 29 30  1  0  0  0
 29 57  1  0  0  0
 30 31  1  0  0  0
 32 58  1  0  0  0
M  END
> <s_m_entry_id>
17128

> <s_m_entry_name>
ligand_docking-pose.55

> <s_m_Source_Path>
/home/csk/Desktop/cluster/DUD-E-result/esr1

> <s_m_Source_File>
ligand_docking-pose.sdf

> <i_m_Source_File_Index>
55

> <i_lp_mmshare_version>
53161

> <i_f3d_flags>
0

> <r_lp_tautomer_probability>
1

> <s_lp_Force_Field>
OPLS_2005

> <r_lp_Energy>
68.66769

> <b_lp_Chiralities_Consistent>
1

> <s_lp_Variant>
326024-1

> <s_i_glide_gridfile>
glide-grid_1sj0

> <i_i_glide_lignum>
66

> <i_i_glide_rotatable_bonds>
7

> <r_i_docking_score>
-10.3667479609342

> <r_i_glide_ligand_efficiency>
-0.323960873779194

> <r_i_glide_ligand_efficiency_sa>
-1.02851166247908

> <r_i_glide_ligand_efficiency_ln>
-2.3213974553298

> <r_i_glide_gscore>
-10.3667479609342

> <r_i_glide_lipo>
-5.89875805621056

> <r_i_glide_hbond>
-0.263000519857912

> <r_i_glide_metal>
0

> <r_i_glide_rewards>
-1.60826795659965

> <r_i_glide_evdw>
-44.7108154296875

> <r_i_glide_ecoul>
-4.78853893280029

> <r_i_glide_erotb>
0.357100183138324

> <r_i_glide_esite>
0

> <r_i_glide_emodel>
-64.7092735783313

> <r_i_glide_energy>
-49.4993543624878

> <r_i_glide_einternal>
6.48023557662964

> <i_i_glide_confnum>
1

> <i_i_glide_posenum>
49

> <r_i_glide_eff_state_penalty>
0

> <s_user_duplicate_titles>
326024

> <s_m_subgroup_title>
dock_pv

> <s_m_subgroupid>
dock_pv1

> <b_m_subgroup_collapsed>
0

$$$$
301897
                    3D
 Schrodinger Suite 2021-1.
 67 71  0  0  1  0            999 V2000
   29.7755    2.0106   29.0632 C   0  0  0  0  0  0
   29.9769    0.8045   28.1234 C   0  0  2  0  0  0
   28.7250   -0.0048   27.8921 C   0  0  0  0  0  0
   27.5505    0.6207   27.4662 C   0  0  0  0  0  0
   26.3910   -0.1177   27.3287 C   0  0  0  0  0  0
   26.4176   -1.4782   27.5421 C   0  0  0  0  0  0
   27.5809   -2.1517   27.8605 C   0  0  0  0  0  0
   28.7341   -1.4104   28.0361 C   0  0  0  0  0  0
   29.8274   -2.1412   28.4350 O   0  0  0  0  0  0
   31.0852   -1.5846   28.0784 C   0  0  2  0  0  0
   31.1483   -0.1120   28.5824 C   0  0  1  0  0  0
   32.4891    0.5242   28.3070 C   0  0  0  0  0  0
   32.7210    1.0944   27.0536 C   0  0  0  0  0  0
   33.9124    1.7168   26.7853 C   0  0  0  0  0  0
   34.8811    1.7026   27.7644 C   0  0  0  0  0  0
   34.6977    1.1171   29.0105 C   0  0  0  0  0  0
   33.4761    0.5267   29.2918 C   0  0  0  0  0  0
   36.0599    2.2580   27.4641 O   0  0  0  0  0  0
   31.4820   -1.8521   26.6116 C   0  0  0  0  0  0
   30.8553   -1.1969   25.5482 C   0  0  0  0  0  0
   31.3340   -1.3400   24.2538 C   0  0  0  0  0  0
   32.4170   -2.1700   23.9768 C   0  0  0  0  0  0
   32.9948   -2.8969   25.0306 C   0  0  0  0  0  0
   32.5351   -2.7307   26.3365 C   0  0  0  0  0  0
   32.8577   -2.1997   22.6643 O   0  0  0  0  0  0
   33.9348   -3.0785   22.3246 C   0  0  0  0  0  0
   34.3953   -2.9419   20.8572 C   0  0  0  0  0  0
   33.4613   -3.5530   19.9032 N   0  0  0  0  0  0
   32.3552   -2.6557   19.5317 C   0  0  0  0  0  0
   31.3293   -3.3377   18.6006 C   0  0  0  0  0  0
   31.9751   -4.0183   17.3836 C   0  0  0  0  0  0
   33.1800   -4.8726   17.8026 C   0  0  0  0  0  0
   34.1500   -4.1096   18.7302 C   0  0  0  0  0  0
   25.2600   -2.1421   27.4640 O   0  0  0  0  0  0
   30.1628    1.2243   27.1376 H   0  0  0  0  0  0
   31.8069   -2.1385   28.6815 H   0  0  0  0  0  0
   31.0588   -0.1866   29.6692 H   0  0  0  0  0  0
   28.9516    2.6562   28.7608 H   0  0  0  0  0  0
   29.5860    1.6873   30.0884 H   0  0  0  0  0  0
   30.6651    2.6437   29.0641 H   0  0  0  0  0  0
   27.5181    1.6859   27.2866 H   0  0  0  0  0  0
   25.4620    0.3571   27.0639 H   0  0  0  0  0  0
   27.5801   -3.2215   28.0134 H   0  0  0  0  0  0
   31.9936    1.0583   26.2635 H   0  0  0  0  0  0
   34.0888    2.1634   25.8174 H   0  0  0  0  0  0
   35.4917    1.1258   29.7426 H   0  0  0  0  0  0
   33.3079    0.0721   30.2564 H   0  0  0  0  0  0
   36.1662    2.5538   26.5496 H   0  0  0  0  0  0
   30.0222   -0.5341   25.7060 H   0  0  0  0  0  0
   30.8642   -0.7819   23.4635 H   0  0  0  0  0  0
   33.8217   -3.5691   24.8633 H   0  0  0  0  0  0
   33.0260   -3.2665   27.1363 H   0  0  0  0  0  0
   33.6533   -4.1156   22.5262 H   0  0  0  0  0  0
   34.7950   -2.8508   22.9592 H   0  0  0  0  0  0
   35.3668   -3.4299   20.7823 H   0  0  0  0  0  0
   34.5695   -1.8953   20.6063 H   0  0  0  0  0  0
   32.7457   -1.7422   19.0763 H   0  0  0  0  0  0
   31.8358   -2.3540   20.4405 H   0  0  0  0  0  0
   30.6197   -2.5835   18.2630 H   0  0  0  0  0  0
   30.7211   -4.0403   19.1667 H   0  0  0  0  0  0
   31.2397   -4.6279   16.8578 H   0  0  0  0  0  0
   32.3133   -3.2701   16.6734 H   0  0  0  0  0  0
   32.8604   -5.8048   18.2672 H   0  0  0  0  0  0
   33.7192   -5.1844   16.9078 H   0  0  0  0  0  0
   34.6768   -3.3173   18.1962 H   0  0  0  0  0  0
   34.9094   -4.8110   19.0791 H   0  0  0  0  0  0
   25.2600   -2.8065   26.7420 H   0  0  0  0  0  0
  1  2  1  0  0  0
  1 38  1  0  0  0
  1 39  1  0  0  0
  1 40  1  0  0  0
  2 35  1  0  0  0
  2 11  1  0  0  0
  2  3  1  0  0  0
  3  8  2  0  0  0
  3  4  1  0  0  0
  4  5  2  0  0  0
  4 41  1  0  0  0
  5  6  1  0  0  0
  5 42  1  0  0  0
  6  7  2  0  0  0
  6 34  1  0  0  0
  7  8  1  0  0  0
  7 43  1  0  0  0
  8  9  1  0  0  0
  9 10  1  0  0  0
 10 36  1  0  0  0
 10 11  1  0  0  0
 10 19  1  0  0  0
 11 37  1  0  0  0
 11 12  1  0  0  0
 12 17  1  0  0  0
 12 13  2  0  0  0
 13 14  1  0  0  0
 13 44  1  0  0  0
 14 15  2  0  0  0
 14 45  1  0  0  0
 15 16  1  0  0  0
 15 18  1  0  0  0
 16 17  2  0  0  0
 16 46  1  0  0  0
 17 47  1  0  0  0
 18 48  1  0  0  0
 19 24  1  0  0  0
 19 20  2  0  0  0
 20 21  1  0  0  0
 20 49  1  0  0  0
 21 22  2  0  0  0
 21 50  1  0  0  0
 22 23  1  0  0  0
 22 25  1  0  0  0
 23 24  2  0  0  0
 23 51  1  0  0  0
 24 52  1  0  0  0
 25 26  1  0  0  0
 26 27  1  0  0  0
 26 53  1  0  0  0
 26 54  1  0  0  0
 27 28  1  0  0  0
 27 55  1  0  0  0
 27 56  1  0  0  0
 28 33  1  0  0  0
 28 29  1  0  0  0
 29 30  1  0  0  0
 29 57  1  0  0  0
 29 58  1  0  0  0
 30 31  1  0  0  0
 30 59  1  0  0  0
 30 60  1  0  0  0
 31 32  1  0  0  0
 31 61  1  0  0  0
 31 62  1  0  0  0
 32 33  1  0  0  0
 32 63  1  0  0  0
 32 64  1  0  0  0
 33 65  1  0  0  0
 33 66  1  0  0  0
 34 67  1  0  0  0
M  END
> <s_m_entry_id>
17129

> <s_m_entry_name>
ligand_docking-pose.56

> <s_m_Source_Path>
/home/csk/Desktop/cluster/DUD-E-result/esr1

> <s_m_Source_File>
ligand_docking-pose.sdf

> <i_m_Source_File_Index>
56

> <i_lp_mmshare_version>
53161

> <i_f3d_flags>
0

> <r_lp_tautomer_probability>
0.999999999938865

> <s_lp_Force_Field>
OPLS_2005

> <r_lp_Energy>
39.283181

> <b_lp_Chiralities_Consistent>
1

> <s_lp_Variant>
301897-1

> <s_i_glide_gridfile>
glide-grid_1sj0

> <i_i_glide_lignum>
1558

> <i_i_glide_rotatable_bonds>
8

> <r_i_docking_score>
-10.3666752147048

> <r_i_glide_ligand_efficiency>
-0.304902212197201

> <r_i_glide_ligand_efficiency_sa>
-0.987764803708591

> <r_i_glide_ligand_efficiency_ln>
-2.29028933031885

> <r_i_glide_gscore>
-10.3666752147048

> <r_i_glide_lipo>
-5.82179869384696

> <r_i_glide_hbond>
-0.500106191855837

> <r_i_glide_metal>
0

> <r_i_glide_rewards>
-1.17559902552101

> <r_i_glide_evdw>
-38.3313789367676

> <r_i_glide_ecoul>
-8.57361030578613

> <r_i_glide_erotb>
0.333439189225271

> <r_i_glide_esite>
0

> <r_i_glide_emodel>
-45.8497986952388

> <r_i_glide_energy>
-46.9049892425537

> <r_i_glide_einternal>
9.45220470428467

> <i_i_glide_confnum>
1

> <i_i_glide_posenum>
2

> <r_i_glide_eff_state_penalty>
0

> <s_user_duplicate_titles>
301897

> <s_m_subgroup_title>
dock_pv

> <s_m_subgroupid>
dock_pv1

> <b_m_subgroup_collapsed>
0

$$$$
331978
                    3D
 Schrodinger Suite 2021-1.
 65 69  0  0  1  0            999 V2000
   30.9462   -2.4833   18.1075 C   0  0  0  0  0  0
   32.4022   -2.5425   18.5831 C   0  0  2  0  0  0
   33.2573   -3.5886   17.8549 C   0  0  0  0  0  0
   33.8010   -4.4890   18.9702 C   0  0  0  0  0  0
   33.7350   -3.6992   20.1935 N   0  0  1  0  0  0
   32.4748   -2.9864   20.0399 C   0  0  0  0  0  0
   33.7200   -4.5536   21.3841 C   0  0  0  0  0  0
   34.0059   -3.7998   22.6957 C   0  0  0  0  0  0
   33.0218   -2.7953   22.8977 O   0  0  0  0  0  0
   32.6223   -2.4199   24.1578 C   0  0  0  0  0  0
   33.1835   -2.8665   25.3618 C   0  0  0  0  0  0
   32.6523   -2.4328   26.5758 C   0  0  0  0  0  0
   31.5548   -1.5640   26.5940 C   0  0  0  0  0  0
   31.0136   -1.1129   25.3882 C   0  0  0  0  0  0
   31.5585   -1.5280   24.1845 C   0  0  0  0  0  0
   30.9143   -1.1473   27.9269 C   0  0  2  0  0  0
   29.4442   -1.5762   27.9399 C   0  0  0  0  0  0
   29.1447   -2.9419   27.8815 C   0  0  0  0  0  0
   27.8407   -3.4037   27.8451 C   0  0  0  0  0  0
   26.8055   -2.4880   27.8488 C   0  0  0  0  0  0
   27.0675   -1.1213   27.8640 C   0  0  0  0  0  0
   28.3817   -0.6420   27.9208 C   0  0  0  0  0  0
   28.6321    0.8614   28.0321 C   0  0  0  0  0  0
   30.0568    1.2834   27.6516 C   0  0  0  0  0  0
   31.1079    0.3522   28.2984 C   0  0  2  0  0  0
   32.5676    0.7974   28.1483 C   0  0  0  0  0  0
   32.9547    1.6431   27.1048 C   0  0  0  0  0  0
   34.2771    2.0272   26.9643 C   0  0  0  0  0  0
   35.2258    1.5661   27.8640 C   0  0  0  0  0  0
   34.8598    0.7304   28.9169 C   0  0  0  0  0  0
   33.5286    0.3494   29.0629 C   0  0  0  0  0  0
   25.5290   -2.9470   27.8640 O   0  0  0  0  0  0
   32.8536   -1.5545   18.4773 H   0  0  0  0  0  0
   31.4129   -1.7361   28.7007 H   0  0  0  0  0  0
   30.9400    0.3985   29.3773 H   0  0  0  0  0  0
   30.4602   -3.4480   18.2635 H   0  0  0  0  0  0
   30.8786   -2.2234   17.0536 H   0  0  0  0  0  0
   30.3766   -1.7416   18.6647 H   0  0  0  0  0  0
   32.6817   -4.1722   17.1355 H   0  0  0  0  0  0
   34.0743   -3.1137   17.3099 H   0  0  0  0  0  0
   33.2561   -5.4326   19.0395 H   0  0  0  0  0  0
   34.8414   -4.7666   18.7951 H   0  0  0  0  0  0
   32.4103   -2.1421   20.7200 H   0  0  0  0  0  0
   31.6248   -3.6175   20.3140 H   0  0  0  0  0  0
   32.7681   -5.0838   21.4640 H   0  0  0  0  0  0
   34.4599   -5.3387   21.2686 H   0  0  0  0  0  0
   34.0061   -4.5416   23.4928 H   0  0  0  0  0  0
   34.9942   -3.3409   22.6641 H   0  0  0  0  0  0
   34.0261   -3.5392   25.3739 H   0  0  0  0  0  0
   33.0857   -2.7880   27.4997 H   0  0  0  0  0  0
   30.1493   -0.4683   25.3701 H   0  0  0  0  0  0
   31.1324   -1.1874   23.2560 H   0  0  0  0  0  0
   29.9434   -3.6629   27.8638 H   0  0  0  0  0  0
   27.6376   -4.4642   27.8164 H   0  0  0  0  0  0
   26.2401   -0.4262   27.8702 H   0  0  0  0  0  0
   28.4630    1.1615   29.0637 H   0  0  0  0  0  0
   27.9073    1.4174   27.4353 H   0  0  0  0  0  0
   30.1991    2.3031   28.0071 H   0  0  0  0  0  0
   30.1400    1.3035   26.5683 H   0  0  0  0  0  0
   32.2524    1.9914   26.3718 H   0  0  0  0  0  0
   34.5698    2.6579   26.1407 H   0  0  0  0  0  0
   36.2549    1.8582   27.7276 H   0  0  0  0  0  0
   35.6095    0.3773   29.6100 H   0  0  0  0  0  0
   33.2502   -0.3041   29.8774 H   0  0  0  0  0  0
   25.2600   -3.2931   26.9812 H   0  0  0  0  0  0
  1  2  1  0  0  0
  1 36  1  0  0  0
  1 37  1  0  0  0
  1 38  1  0  0  0
  2 33  1  0  0  0
  2  6  1  0  0  0
  2  3  1  0  0  0
  3  4  1  0  0  0
  3 39  1  0  0  0
  3 40  1  0  0  0
  4  5  1  0  0  0
  4 41  1  0  0  0
  4 42  1  0  0  0
  5  6  1  0  0  0
  5  7  1  0  0  0
  6 43  1  0  0  0
  6 44  1  0  0  0
  7  8  1  0  0  0
  7 45  1  0  0  0
  7 46  1  0  0  0
  8  9  1  0  0  0
  8 47  1  0  0  0
  8 48  1  0  0  0
  9 10  1  0  0  0
 10 15  1  0  0  0
 10 11  2  0  0  0
 11 12  1  0  0  0
 11 49  1  0  0  0
 12 13  2  0  0  0
 12 50  1  0  0  0
 13 14  1  0  0  0
 13 16  1  0  0  0
 14 15  2  0  0  0
 14 51  1  0  0  0
 15 52  1  0  0  0
 16 34  1  0  0  0
 16 25  1  0  0  0
 16 17  1  0  0  0
 17 22  2  0  0  0
 17 18  1  0  0  0
 18 19  2  0  0  0
 18 53  1  0  0  0
 19 20  1  0  0  0
 19 54  1  0  0  0
 20 21  2  0  0  0
 20 32  1  0  0  0
 21 22  1  0  0  0
 21 55  1  0  0  0
 22 23  1  0  0  0
 23 24  1  0  0  0
 23 56  1  0  0  0
 23 57  1  0  0  0
 24 25  1  0  0  0
 24 58  1  0  0  0
 24 59  1  0  0  0
 25 35  1  0  0  0
 25 26  1  0  0  0
 26 31  1  0  0  0
 26 27  2  0  0  0
 27 28  1  0  0  0
 27 60  1  0  0  0
 28 29  2  0  0  0
 28 61  1  0  0  0
 29 30  1  0  0  0
 29 62  1  0  0  0
 30 31  2  0  0  0
 30 63  1  0  0  0
 31 64  1  0  0  0
 32 65  1  0  0  0
M  END
> <s_m_entry_id>
17130

> <s_m_entry_name>
ligand_docking-pose.57

> <s_m_Source_Path>
/home/csk/Desktop/cluster/DUD-E-result/esr1

> <s_m_Source_File>
ligand_docking-pose.sdf

> <i_m_Source_File_Index>
57

> <i_lp_mmshare_version>
53161

> <i_f3d_flags>
0

> <r_lp_tautomer_probability>
0.999999999997365

> <s_lp_Force_Field>
OPLS_2005

> <r_lp_Energy>
44.693124

> <b_lp_Chiralities_Consistent>
1

> <s_lp_Variant>
331978-1

> <s_i_glide_gridfile>
glide-grid_1sj0

> <i_i_glide_lignum>
1569

> <i_i_glide_rotatable_bonds>
7

> <r_i_docking_score>
-10.357004524444

> <r_i_glide_ligand_efficiency>
-0.323656391388876

> <r_i_glide_ligand_efficiency_sa>
-1.0275449911468

> <r_i_glide_ligand_efficiency_ln>
-2.3192156343036

> <r_i_glide_gscore>
-10.357004524444

> <r_i_glide_lipo>
-5.73253414495505

> <r_i_glide_hbond>
-0.16

> <r_i_glide_metal>
0

> <r_i_glide_rewards>
-1.39352907256915

> <r_i_glide_evdw>
-46.1863327026367

> <r_i_glide_ecoul>
-8.11853981018066

> <r_i_glide_erotb>
0.456156299739096

> <r_i_glide_esite>
0

> <r_i_glide_emodel>
-84.7068112365177

> <r_i_glide_energy>
-54.3048725128174

> <r_i_glide_einternal>
6.08151149749756

> <i_i_glide_confnum>
38

> <i_i_glide_posenum>
389

> <r_i_glide_eff_state_penalty>
0

> <s_user_duplicate_titles>
331978

> <s_m_subgroup_title>
dock_pv

> <s_m_subgroupid>
dock_pv1

> <b_m_subgroup_collapsed>
0

$$$$
150641
                    3D
 Schrodinger Suite 2021-1.
 55 58  0  0  1  0            999 V2000
   35.1643   -3.1241   20.2808 C   0  0  0  0  0  0
   33.7214   -2.9407   20.1336 N   0  0  0  0  0  0
   33.3687   -2.9944   18.7168 C   0  0  0  0  0  0
   32.9523   -3.9541   20.8706 C   0  0  0  0  0  0
   33.0369   -3.8042   22.4032 C   0  0  0  0  0  0
   32.4537   -2.5623   22.7943 O   0  0  0  0  0  0
   32.2045   -2.3328   24.1301 C   0  0  0  0  0  0
   31.2784   -1.3374   24.4231 C   0  0  0  0  0  0
   30.9188   -1.0721   25.7389 C   0  0  0  0  0  0
   31.5055   -1.7818   26.7940 C   0  0  0  0  0  0
   32.4599   -2.7617   26.4982 C   0  0  0  0  0  0
   32.8104   -3.0360   25.1792 C   0  0  0  0  0  0
   31.1165   -1.5458   28.2711 C   0  0  1  0  0  0
   31.0273   -0.1016   28.8258 C   0  0  2  0  0  0
   29.5563    0.8382   28.2644 S   0  0  0  0  0  0
   28.4310   -0.4923   27.9160 C   0  0  0  0  0  0
   27.1569   -0.1974   27.4232 C   0  0  0  0  0  0
   26.2360   -1.2206   27.1958 C   0  0  0  0  0  0
   26.5719   -2.5407   27.4918 C   0  0  0  0  0  0
   27.8593   -2.8599   27.8952 C   0  0  0  0  0  0
   28.7762   -1.8408   28.1247 C   0  0  0  0  0  0
   29.9632   -2.2633   28.6639 O   0  0  0  0  0  0
   25.0086   -0.9419   26.6638 O   0  0  0  0  0  0
   32.3416    0.6328   28.6177 C   0  0  0  0  0  0
   33.3736    0.5399   29.5604 C   0  0  0  0  0  0
   34.6358    1.0581   29.2641 C   0  0  0  0  0  0
   34.8722    1.6646   28.0319 C   0  0  0  0  0  0
   33.8413    1.7570   27.1045 C   0  0  0  0  0  0
   32.5811    1.2750   27.4051 C   0  0  0  0  0  0
   34.0600    2.2581   25.8640 O   0  0  0  0  0  0
   31.9152   -2.0198   28.8455 H   0  0  0  0  0  0
   30.8816   -0.1714   29.9049 H   0  0  0  0  0  0
   35.4769   -3.0093   21.3177 H   0  0  0  0  0  0
   35.7076   -2.3740   19.7048 H   0  0  0  0  0  0
   35.4836   -4.1088   19.9347 H   0  0  0  0  0  0
   32.3028   -2.8055   18.5776 H   0  0  0  0  0  0
   33.9068   -2.2308   18.1531 H   0  0  0  0  0  0
   33.5986   -3.9676   18.2789 H   0  0  0  0  0  0
   31.8992   -3.8714   20.5937 H   0  0  0  0  0  0
   33.2626   -4.9590   20.5759 H   0  0  0  0  0  0
   32.4809   -4.6275   22.8551 H   0  0  0  0  0  0
   34.0649   -3.8822   22.7548 H   0  0  0  0  0  0
   30.8128   -0.7875   23.6196 H   0  0  0  0  0  0
   30.1756   -0.3133   25.9091 H   0  0  0  0  0  0
   32.9271   -3.3292   27.2899 H   0  0  0  0  0  0
   33.5432   -3.8043   24.9858 H   0  0  0  0  0  0
   26.8745    0.8254   27.2194 H   0  0  0  0  0  0
   25.8422   -3.3337   27.4398 H   0  0  0  0  0  0
   28.1250   -3.8867   28.1017 H   0  0  0  0  0  0
   24.6763   -1.7075   26.1716 H   0  0  0  0  0  0
   33.2187    0.0266   30.4986 H   0  0  0  0  0  0
   35.4503    0.9666   29.9647 H   0  0  0  0  0  0
   35.8616    2.0309   27.7961 H   0  0  0  0  0  0
   31.8070    1.3393   26.6590 H   0  0  0  0  0  0
   34.9900    2.4542   25.7098 H   0  0  0  0  0  0
  1  2  1  0  0  0
  1 33  1  0  0  0
  1 34  1  0  0  0
  1 35  1  0  0  0
  2  3  1  0  0  0
  2  4  1  0  0  0
  3 36  1  0  0  0
  3 37  1  0  0  0
  3 38  1  0  0  0
  4  5  1  0  0  0
  4 39  1  0  0  0
  4 40  1  0  0  0
  5  6  1  0  0  0
  5 41  1  0  0  0
  5 42  1  0  0  0
  6  7  1  0  0  0
  7 12  1  0  0  0
  7  8  2  0  0  0
  8  9  1  0  0  0
  8 43  1  0  0  0
  9 10  2  0  0  0
  9 44  1  0  0  0
 10 11  1  0  0  0
 10 13  1  0  0  0
 11 12  2  0  0  0
 11 45  1  0  0  0
 12 46  1  0  0  0
 13 31  1  0  0  0
 13 22  1  0  0  0
 13 14  1  0  0  0
 14 32  1  0  0  0
 14 15  1  0  0  0
 14 24  1  0  0  0
 15 16  1  0  0  0
 16 21  2  0  0  0
 16 17  1  0  0  0
 17 18  2  0  0  0
 17 47  1  0  0  0
 18 19  1  0  0  0
 18 23  1  0  0  0
 19 20  2  0  0  0
 19 48  1  0  0  0
 20 21  1  0  0  0
 20 49  1  0  0  0
 21 22  1  0  0  0
 23 50  1  0  0  0
 24 29  1  0  0  0
 24 25  2  0  0  0
 25 26  1  0  0  0
 25 51  1  0  0  0
 26 27  2  0  0  0
 26 52  1  0  0  0
 27 28  1  0  0  0
 27 53  1  0  0  0
 28 29  2  0  0  0
 28 30  1  0  0  0
 29 54  1  0  0  0
 30 55  1  0  0  0
M  END
> <s_m_entry_id>
17131

> <s_m_entry_name>
ligand_docking-pose.58

> <s_m_Source_Path>
/home/csk/Desktop/cluster/DUD-E-result/esr1

> <s_m_Source_File>
ligand_docking-pose.sdf

> <i_m_Source_File_Index>
58

> <i_lp_mmshare_version>
53161

> <i_f3d_flags>
0

> <r_lp_tautomer_probability>
0.999999999997365

> <s_lp_Force_Field>
OPLS_2005

> <r_lp_Energy>
27.432678

> <b_lp_Chiralities_Consistent>
1

> <s_lp_Variant>
150641-1

> <s_i_glide_gridfile>
glide-grid_1sj0

> <i_i_glide_lignum>
1739

> <i_i_glide_rotatable_bonds>
8

> <r_i_docking_score>
-10.3445125079847

> <r_i_glide_ligand_efficiency>
-0.344817083599488

> <r_i_glide_ligand_efficiency_sa>
-1.07142684955383

> <r_i_glide_ligand_efficiency_ln>
-2.35038595430545

> <r_i_glide_gscore>
-10.3445125079847

> <r_i_glide_lipo>
-5.22919484446177

> <r_i_glide_hbond>
-0.490602525296729

> <r_i_glide_metal>
0

> <r_i_glide_rewards>
-1.39542939513053

> <r_i_glide_evdw>
-52.9066734313965

> <r_i_glide_ecoul>
-6.47126531600952

> <r_i_glide_erotb>
0.386737725875635

> <r_i_glide_esite>
0

> <r_i_glide_emodel>
-86.7848986123966

> <r_i_glide_energy>
-59.377938747406

> <r_i_glide_einternal>
11.6953783035278

> <i_i_glide_confnum>
4

> <i_i_glide_posenum>
78

> <r_i_glide_eff_state_penalty>
0

> <s_user_duplicate_titles>
150641

> <s_m_subgroup_title>
dock_pv

> <s_m_subgroupid>
dock_pv1

> <b_m_subgroup_collapsed>
0

$$$$
323447
                    3D
 Schrodinger Suite 2021-1.
 60 64  0  0  1  0            999 V2000
   34.7192   -3.2777   19.4920 C   0  0  0  0  0  0
   34.0044   -2.9425   20.7192 N   0  0  1  0  0  0
   32.7231   -3.6555   20.7739 C   0  0  0  0  0  0
   31.9109   -3.1839   21.9931 C   0  0  0  0  0  0
   32.6780   -3.4042   23.3221 C   0  0  0  0  0  0
   34.1138   -2.9088   23.2240 C   0  0  0  0  0  0
   34.8294   -3.2394   21.8927 C   0  0  0  0  0  0
   32.0966   -2.7678   24.5946 C   0  0  0  0  0  0
   31.2562   -1.6564   24.5175 C   0  0  0  0  0  0
   30.7685   -1.0589   25.6717 C   0  0  0  0  0  0
   31.1342   -1.5465   26.9299 C   0  0  0  0  0  0
   32.0687   -2.5824   27.0124 C   0  0  0  0  0  0
   32.5210   -3.2100   25.8530 C   0  0  0  0  0  0
   30.4518   -0.9802   28.1945 C   0  0  2  0  0  0
   28.9342   -0.9710   27.9405 C   0  0  0  0  0  0
   28.2596   -2.1672   27.6591 C   0  0  0  0  0  0
   26.9305   -2.1633   27.2528 C   0  0  0  0  0  0
   26.2488   -0.9576   27.1357 C   0  0  0  0  0  0
   26.8859    0.2314   27.4640 C   0  0  0  0  0  0
   28.2279    0.2415   27.8519 C   0  0  0  0  0  0
   28.9456    1.5395   28.1624 C   0  0  0  0  0  0
   30.0759    1.3015   29.1731 C   0  0  0  0  0  0
   31.0370    0.2829   28.7181 N   0  0  0  0  0  0
   32.3039    0.6901   28.3506 C   0  0  0  0  0  0
   33.4217    0.2369   29.0568 C   0  0  0  0  0  0
   34.6957    0.6419   28.6647 C   0  0  0  0  0  0
   34.8368    1.4771   27.5595 C   0  0  0  0  0  0
   33.7322    1.9123   26.8399 C   0  0  0  0  0  0
   32.4651    1.5126   27.2361 C   0  0  0  0  0  0
   36.0600    1.8580   27.1575 F   0  0  0  0  0  0
   24.9686   -0.9420   26.6637 O   0  0  0  0  0  0
   34.1266   -3.0098   18.6179 H   0  0  0  0  0  0
   35.6600   -2.7279   19.4254 H   0  0  0  0  0  0
   34.9442   -4.3445   19.4377 H   0  0  0  0  0  0
   32.1500   -3.4385   19.8703 H   0  0  0  0  0  0
   32.8844   -4.7357   20.7854 H   0  0  0  0  0  0
   31.6599   -2.1422   21.8167 H   0  0  0  0  0  0
   30.9848   -3.7562   21.9953 H   0  0  0  0  0  0
   32.7365   -4.4848   23.4691 H   0  0  0  0  0  0
   34.7090   -3.3420   24.0244 H   0  0  0  0  0  0
   34.0602   -1.8502   23.4625 H   0  0  0  0  0  0
   35.7506   -2.6573   21.8276 H   0  0  0  0  0  0
   35.1261   -4.2882   21.8636 H   0  0  0  0  0  0
   30.9410   -1.2458   23.5727 H   0  0  0  0  0  0
   30.0786   -0.2325   25.5851 H   0  0  0  0  0  0
   32.4237   -2.9393   27.9657 H   0  0  0  0  0  0
   33.2167   -4.0318   25.9308 H   0  0  0  0  0  0
   30.6113   -1.7229   28.9792 H   0  0  0  0  0  0
   28.7889   -3.1083   27.6985 H   0  0  0  0  0  0
   26.4564   -3.0979   26.9978 H   0  0  0  0  0  0
   26.3437    1.1605   27.3808 H   0  0  0  0  0  0
   28.2435    2.2642   28.5727 H   0  0  0  0  0  0
   29.3429    1.9700   27.2428 H   0  0  0  0  0  0
   29.6694    1.0581   30.1539 H   0  0  0  0  0  0
   30.6005    2.2435   29.3395 H   0  0  0  0  0  0
   33.3027   -0.4208   29.9071 H   0  0  0  0  0  0
   35.5715    0.3069   29.2013 H   0  0  0  0  0  0
   33.8660    2.5440   25.9751 H   0  0  0  0  0  0
   31.6080    1.8362   26.6679 H   0  0  0  0  0  0
   24.7567   -1.8056   26.2648 H   0  0  0  0  0  0
  1  2  1  0  0  0
  1 32  1  0  0  0
  1 33  1  0  0  0
  1 34  1  0  0  0
  2  7  1  0  0  0
  2  3  1  0  0  0
  3  4  1  0  0  0
  3 35  1  0  0  0
  3 36  1  0  0  0
  4  5  1  0  0  0
  4 37  1  0  0  0
  4 38  1  0  0  0
  5  6  1  0  0  0
  5  8  1  0  0  0
  5 39  1  0  0  0
  6  7  1  0  0  0
  6 40  1  0  0  0
  6 41  1  0  0  0
  7 42  1  0  0  0
  7 43  1  0  0  0
  8 13  1  0  0  0
  8  9  2  0  0  0
  9 10  1  0  0  0
  9 44  1  0  0  0
 10 11  2  0  0  0
 10 45  1  0  0  0
 11 12  1  0  0  0
 11 14  1  0  0  0
 12 13  2  0  0  0
 12 46  1  0  0  0
 13 47  1  0  0  0
 14 23  1  0  0  0
 14 15  1  0  0  0
 14 48  1  0  0  0
 15 20  2  0  0  0
 15 16  1  0  0  0
 16 17  2  0  0  0
 16 49  1  0  0  0
 17 18  1  0  0  0
 17 50  1  0  0  0
 18 19  2  0  0  0
 18 31  1  0  0  0
 19 20  1  0  0  0
 19 51  1  0  0  0
 20 21  1  0  0  0
 21 22  1  0  0  0
 21 52  1  0  0  0
 21 53  1  0  0  0
 22 23  1  0  0  0
 22 54  1  0  0  0
 22 55  1  0  0  0
 23 24  1  0  0  0
 24 29  1  0  0  0
 24 25  2  0  0  0
 25 26  1  0  0  0
 25 56  1  0  0  0
 26 27  2  0  0  0
 26 57  1  0  0  0
 27 28  1  0  0  0
 27 30  1  0  0  0
 28 29  2  0  0  0
 28 58  1  0  0  0
 29 59  1  0  0  0
 31 60  1  0  0  0
M  END
> <s_m_entry_id>
17132

> <s_m_entry_name>
ligand_docking-pose.59

> <s_m_Source_Path>
/home/csk/Desktop/cluster/DUD-E-result/esr1

> <s_m_Source_File>
ligand_docking-pose.sdf

> <i_m_Source_File_Index>
59

> <i_lp_mmshare_version>
53161

> <i_f3d_flags>
0

> <r_lp_tautomer_probability>
0.999999999997365

> <s_lp_Force_Field>
OPLS_2005

> <r_lp_Energy>
34.019329

> <b_lp_Chiralities_Consistent>
1

> <s_lp_Variant>
323447-1

> <s_i_glide_gridfile>
glide-grid_1sj0

> <i_i_glide_lignum>
1674

> <i_i_glide_rotatable_bonds>
4

> <r_i_docking_score>
-10.3423585478585

> <r_i_glide_ligand_efficiency>
-0.333624469285757

> <r_i_glide_ligand_efficiency_sa>
-1.04804145177897

> <r_i_glide_ligand_efficiency_ln>
-2.33251880776669

> <r_i_glide_gscore>
-10.3423585478585

> <r_i_glide_lipo>
-5.88462710859552

> <r_i_glide_hbond>
-0.245340747689611

> <r_i_glide_metal>
0

> <r_i_glide_rewards>
-1.7522677312651

> <r_i_glide_evdw>
-47.9670829772949

> <r_i_glide_ecoul>
-2.00602436065674

> <r_i_glide_erotb>
0.239134842655018

> <r_i_glide_esite>
0

> <r_i_glide_emodel>
-54.1650265969968

> <r_i_glide_energy>
-49.9731073379517

> <r_i_glide_einternal>
7.65490627288818

> <i_i_glide_confnum>
34

> <i_i_glide_posenum>
103

> <r_i_glide_eff_state_penalty>
0

> <s_user_duplicate_titles>
323447

> <s_m_subgroup_title>
dock_pv

> <s_m_subgroupid>
dock_pv1

> <b_m_subgroup_collapsed>
0

$$$$
323622
                    3D
 Schrodinger Suite 2021-1.
 60 64  0  0  1  0            999 V2000
   34.8727   -3.9664   19.2144 C   0  0  0  0  0  0
   34.1287   -3.4986   20.3793 N   0  0  1  0  0  0
   33.1010   -4.4703   20.7663 C   0  0  0  0  0  0
   32.2677   -4.0280   22.0021 C   0  0  0  0  0  0
   33.1640   -3.6214   23.2001 C   0  0  0  0  0  0
   34.1897   -2.6347   22.6517 C   0  0  0  0  0  0
   35.0211   -3.1809   21.4869 C   0  0  0  0  0  0
   32.4510   -2.9296   24.3688 C   0  0  0  0  0  0
   31.6246   -1.8238   24.1418 C   0  0  0  0  0  0
   31.0495   -1.1428   25.2090 C   0  0  0  0  0  0
   31.3030   -1.5479   26.5232 C   0  0  0  0  0  0
   32.1587   -2.6280   26.7544 C   0  0  0  0  0  0
   32.7180   -3.3217   25.6837 C   0  0  0  0  0  0
   30.6397   -0.8011   27.6958 C   0  0  2  0  0  0
   29.1036   -0.8596   27.5473 C   0  0  0  0  0  0
   28.4550   -2.0662   27.2462 C   0  0  0  0  0  0
   27.0895   -2.1056   26.9903 C   0  0  0  0  0  0
   26.3423   -0.9368   27.0633 C   0  0  0  0  0  0
   26.9466    0.2488   27.4636 C   0  0  0  0  0  0
   28.3238    0.3074   27.6870 C   0  0  0  0  0  0
   28.9949    1.6237   28.0365 C   0  0  0  0  0  0
   30.3449    1.3828   28.7269 C   0  0  0  0  0  0
   31.1802    0.5709   27.8395 N   0  0  0  0  0  0
   32.5411    0.7992   27.8854 C   0  0  0  0  0  0
   33.0769    1.7320   26.9979 C   0  0  0  0  0  0
   34.4365    1.9782   26.9859 C   0  0  0  0  0  0
   35.2599    1.3065   27.8706 C   0  0  0  0  0  0
   34.7454    0.3822   28.7774 C   0  0  0  0  0  0
   33.3773    0.1246   28.7833 C   0  0  0  0  0  0
   25.0361   -0.9421   26.6643 O   0  0  0  0  0  0
   34.2017   -4.1297   18.3698 H   0  0  0  0  0  0
   35.6141   -3.2283   18.9052 H   0  0  0  0  0  0
   35.3891   -4.9046   19.4196 H   0  0  0  0  0  0
   32.4600   -4.5420   19.8934 H   0  0  0  0  0  0
   33.5372   -5.4585   20.9242 H   0  0  0  0  0  0
   31.5724   -3.2471   21.6956 H   0  0  0  0  0  0
   31.6589   -4.8863   22.2879 H   0  0  0  0  0  0
   33.6597   -4.5106   23.5938 H   0  0  0  0  0  0
   34.8613   -2.3814   23.4636 H   0  0  0  0  0  0
   33.6599   -1.7421   22.3113 H   0  0  0  0  0  0
   35.7550   -2.4364   21.1740 H   0  0  0  0  0  0
   35.5754   -4.0731   21.7776 H   0  0  0  0  0  0
   31.4305   -1.4821   23.1368 H   0  0  0  0  0  0
   30.4042   -0.2973   25.0177 H   0  0  0  0  0  0
   32.3963   -2.9359   27.7613 H   0  0  0  0  0  0
   33.3864   -4.1453   25.8797 H   0  0  0  0  0  0
   30.8803   -1.3546   28.6053 H   0  0  0  0  0  0
   29.0275   -2.9783   27.1489 H   0  0  0  0  0  0
   26.6282   -3.0352   26.6895 H   0  0  0  0  0  0
   26.3556    1.1511   27.5140 H   0  0  0  0  0  0
   28.3468    2.2332   28.6641 H   0  0  0  0  0  0
   29.1554    2.1963   27.1222 H   0  0  0  0  0  0
   30.2345    0.9297   29.7134 H   0  0  0  0  0  0
   30.8150    2.3531   28.8913 H   0  0  0  0  0  0
   32.4582    2.2543   26.2884 H   0  0  0  0  0  0
   34.8597    2.6584   26.2662 H   0  0  0  0  0  0
   36.3144    1.5091   27.8172 H   0  0  0  0  0  0
   35.4050   -0.1366   29.4574 H   0  0  0  0  0  0
   32.9714   -0.5950   29.4782 H   0  0  0  0  0  0
   24.8317   -1.8051   26.2637 H   0  0  0  0  0  0
  1  2  1  0  0  0
  1 31  1  0  0  0
  1 32  1  0  0  0
  1 33  1  0  0  0
  2  7  1  0  0  0
  2  3  1  0  0  0
  3  4  1  0  0  0
  3 34  1  0  0  0
  3 35  1  0  0  0
  4  5  1  0  0  0
  4 36  1  0  0  0
  4 37  1  0  0  0
  5  6  1  0  0  0
  5  8  1  0  0  0
  5 38  1  0  0  0
  6  7  1  0  0  0
  6 39  1  0  0  0
  6 40  1  0  0  0
  7 41  1  0  0  0
  7 42  1  0  0  0
  8 13  1  0  0  0
  8  9  2  0  0  0
  9 10  1  0  0  0
  9 43  1  0  0  0
 10 11  2  0  0  0
 10 44  1  0  0  0
 11 12  1  0  0  0
 11 14  1  0  0  0
 12 13  2  0  0  0
 12 45  1  0  0  0
 13 46  1  0  0  0
 14 23  1  0  0  0
 14 15  1  0  0  0
 14 47  1  0  0  0
 15 20  2  0  0  0
 15 16  1  0  0  0
 16 17  2  0  0  0
 16 48  1  0  0  0
 17 18  1  0  0  0
 17 49  1  0  0  0
 18 19  2  0  0  0
 18 30  1  0  0  0
 19 20  1  0  0  0
 19 50  1  0  0  0
 20 21  1  0  0  0
 21 22  1  0  0  0
 21 51  1  0  0  0
 21 52  1  0  0  0
 22 23  1  0  0  0
 22 53  1  0  0  0
 22 54  1  0  0  0
 23 24  1  0  0  0
 24 29  1  0  0  0
 24 25  2  0  0  0
 25 26  1  0  0  0
 25 55  1  0  0  0
 26 27  2  0  0  0
 26 56  1  0  0  0
 27 28  1  0  0  0
 27 57  1  0  0  0
 28 29  2  0  0  0
 28 58  1  0  0  0
 29 59  1  0  0  0
 30 60  1  0  0  0
M  END
> <s_m_entry_id>
17133

> <s_m_entry_name>
ligand_docking-pose.60

> <s_m_Source_Path>
/home/csk/Desktop/cluster/DUD-E-result/esr1

> <s_m_Source_File>
ligand_docking-pose.sdf

> <i_m_Source_File_Index>
60

> <i_lp_mmshare_version>
53161

> <i_f3d_flags>
0

> <r_lp_tautomer_probability>
0.999999999997365

> <s_lp_Force_Field>
OPLS_2005

> <r_lp_Energy>
34.895285

> <b_lp_Chiralities_Consistent>
1

> <s_lp_Variant>
323622-1

> <s_i_glide_gridfile>
glide-grid_1sj0

> <i_i_glide_lignum>
1678

> <i_i_glide_rotatable_bonds>
4

> <r_i_docking_score>
-10.3400778585771

> <r_i_glide_ligand_efficiency>
-0.344669261952569

> <r_i_glide_ligand_efficiency_sa>
-1.07096753332796

> <r_i_glide_ligand_efficiency_ln>
-2.34937835364067

> <r_i_glide_gscore>
-10.3400778585771

> <r_i_glide_lipo>
-5.61723223603472

> <r_i_glide_hbond>
-0.22733658924883

> <r_i_glide_metal>
0

> <r_i_glide_rewards>
-1.74104072433567

> <r_i_glide_evdw>
-46.9540939331055

> <r_i_glide_ecoul>
-4.43808174133301

> <r_i_glide_erotb>
0.25894864889737

> <r_i_glide_esite>
0

> <r_i_glide_emodel>
-60.6865559474441

> <r_i_glide_energy>
-51.3921756744385

> <r_i_glide_einternal>
3.13844323158264

> <i_i_glide_confnum>
37

> <i_i_glide_posenum>
299

> <r_i_glide_eff_state_penalty>
0

> <s_user_duplicate_titles>
323622

> <s_m_subgroup_title>
dock_pv

> <s_m_subgroupid>
dock_pv1

> <b_m_subgroup_collapsed>
0

$$$$
615327
                    3D
 Schrodinger Suite 2021-1.
 56 60  0  0  1  0            999 V2000
   32.5498   -3.2189   25.7929 C   0  0  0  0  0  0
   32.9547   -3.3419   24.4663 C   0  0  0  0  0  0
   32.4773   -2.4497   23.5002 C   0  0  0  0  0  0
   31.6472   -1.3998   23.8921 C   0  0  0  0  0  0
   31.2322   -1.2778   25.2148 C   0  0  0  0  0  0
   31.6745   -2.1978   26.1693 C   0  0  0  0  0  0
   31.2076   -2.1216   27.6225 C   0  0  1  0  0  0
   31.0374   -0.7508   28.2354 C   0  0  0  0  0  0
   29.8128   -0.2562   28.4951 C   0  0  0  0  0  0
   29.6485    1.1506   29.0096 C   0  0  0  0  0  0
   29.9172    2.1218   27.8901 C   0  0  0  0  0  0
   31.0319    1.7876   27.0649 O   0  0  0  0  0  0
   32.1906    1.3343   27.6488 C   0  0  0  0  0  0
   32.2296    0.0925   28.2977 C   0  0  0  0  0  0
   33.4069   -0.3612   28.9024 C   0  0  0  0  0  0
   34.5684    0.3864   28.7821 C   0  0  0  0  0  0
   34.5310    1.5728   28.0604 C   0  0  0  0  0  0
   33.3574    2.0611   27.5112 C   0  0  0  0  0  0
   35.6604    2.2725   27.8646 O   0  0  0  0  0  0
   28.6280   -1.0296   28.1300 C   0  0  0  0  0  0
   27.3310   -0.5167   28.0514 C   0  0  0  0  0  0
   26.2525   -1.3832   27.9336 C   0  0  0  0  0  0
   26.4908   -2.7516   27.8640 C   0  0  0  0  0  0
   27.7682   -3.2577   27.7519 C   0  0  0  0  0  0
   28.8228   -2.3794   27.8639 C   0  0  0  0  0  0
   30.0600   -2.9421   27.8518 O   0  0  0  0  0  0
   25.4755   -3.6286   27.8644 O   0  0  0  0  0  0
   32.7790   -2.5305   22.1571 O   0  0  0  0  0  0
   33.4511   -3.6686   21.6283 C   0  0  0  0  0  0
   33.7788   -3.3996   20.1492 C   0  0  0  0  0  0
   32.5537   -3.0306   19.2938 C   0  0  0  0  0  0
   32.9396   -2.7774   17.9595 O   0  0  0  0  0  0
   32.9015   -3.9361   26.5191 H   0  0  0  0  0  0
   33.6210   -4.1505   24.2082 H   0  0  0  0  0  0
   31.2949   -0.6933   23.1578 H   0  0  0  0  0  0
   30.5642   -0.4747   25.4904 H   0  0  0  0  0  0
   32.0173   -2.5425   28.2073 H   0  0  0  0  0  0
   28.6957    1.3572   29.4630 H   0  0  0  0  0  0
   30.3692    1.3102   29.8144 H   0  0  0  0  0  0
   29.0416    2.2155   27.2496 H   0  0  0  0  0  0
   30.0600    3.0580   28.3960 H   0  0  0  0  0  0
   33.4428   -1.3053   29.4289 H   0  0  0  0  0  0
   35.4927    0.0271   29.2112 H   0  0  0  0  0  0
   33.3564    2.9928   26.9645 H   0  0  0  0  0  0
   36.4394    1.8582   28.2618 H   0  0  0  0  0  0
   27.1335    0.5371   28.1560 H   0  0  0  0  0  0
   25.2483   -0.9954   27.9511 H   0  0  0  0  0  0
   27.9434   -4.3171   27.6287 H   0  0  0  0  0  0
   25.2580   -3.7507   26.9092 H   0  0  0  0  0  0
   34.3852   -3.8614   22.1597 H   0  0  0  0  0  0
   32.8200   -4.5547   21.7242 H   0  0  0  0  0  0
   34.5140   -2.5976   20.0907 H   0  0  0  0  0  0
   34.2558   -4.2850   19.7295 H   0  0  0  0  0  0
   31.8028   -3.8198   19.3328 H   0  0  0  0  0  0
   32.0507   -2.1498   19.6975 H   0  0  0  0  0  0
   32.1455   -2.6130   17.4439 H   0  0  0  0  0  0
  1  6  1  0  0  0
  1  2  2  0  0  0
  1 33  1  0  0  0
  2  3  1  0  0  0
  2 34  1  0  0  0
  3  4  2  0  0  0
  3 28  1  0  0  0
  4  5  1  0  0  0
  4 35  1  0  0  0
  5  6  2  0  0  0
  5 36  1  0  0  0
  6  7  1  0  0  0
  7 26  1  0  0  0
  7  8  1  0  0  0
  7 37  1  0  0  0
  8 14  1  0  0  0
  8  9  2  0  0  0
  9 10  1  0  0  0
  9 20  1  0  0  0
 10 11  1  0  0  0
 10 38  1  0  0  0
 10 39  1  0  0  0
 11 12  1  0  0  0
 11 40  1  0  0  0
 11 41  1  0  0  0
 12 13  1  0  0  0
 13 18  2  0  0  0
 13 14  1  0  0  0
 14 15  2  0  0  0
 15 16  1  0  0  0
 15 42  1  0  0  0
 16 17  2  0  0  0
 16 43  1  0  0  0
 17 18  1  0  0  0
 17 19  1  0  0  0
 18 44  1  0  0  0
 19 45  1  0  0  0
 20 25  2  0  0  0
 20 21  1  0  0  0
 21 22  2  0  0  0
 21 46  1  0  0  0
 22 23  1  0  0  0
 22 47  1  0  0  0
 23 24  2  0  0  0
 23 27  1  0  0  0
 24 25  1  0  0  0
 24 48  1  0  0  0
 25 26  1  0  0  0
 27 49  1  0  0  0
 28 29  1  0  0  0
 29 30  1  0  0  0
 29 50  1  0  0  0
 29 51  1  0  0  0
 30 31  1  0  0  0
 30 52  1  0  0  0
 30 53  1  0  0  0
 31 32  1  0  0  0
 31 54  1  0  0  0
 31 55  1  0  0  0
 32 56  1  0  0  0
M  END
> <s_m_entry_id>
17134

> <s_m_entry_name>
ligand_docking-pose.61

> <s_m_Source_Path>
/home/csk/Desktop/cluster/DUD-E-result/esr1

> <s_m_Source_File>
ligand_docking-pose.sdf

> <i_m_Source_File_Index>
61

> <i_lp_mmshare_version>
53161

> <i_f3d_flags>
0

> <r_lp_tautomer_probability>
1

> <s_lp_Force_Field>
OPLS_2005

> <r_lp_Energy>
44.112098

> <b_lp_Chiralities_Consistent>
1

> <s_lp_Variant>
615327-2

> <s_i_glide_gridfile>
glide-grid_1sj0

> <i_i_glide_lignum>
199

> <i_i_glide_rotatable_bonds>
8

> <r_i_docking_score>
-10.2712123862446

> <r_i_glide_ligand_efficiency>
-0.320975387070144

> <r_i_glide_ligand_efficiency_sa>
-1.01903333300486

> <r_i_glide_ligand_efficiency_ln>
-2.30000443595539

> <r_i_glide_gscore>
-10.2712123862446

> <r_i_glide_lipo>
-5.56195877778875

> <r_i_glide_hbond>
-0.444732499634426

> <r_i_glide_metal>
0

> <r_i_glide_rewards>
-1.35893919015336

> <r_i_glide_evdw>
-32.7905883789062

> <r_i_glide_ecoul>
-11.986870765686

> <r_i_glide_erotb>
0.531978115130131

> <r_i_glide_esite>
0

> <r_i_glide_emodel>
-47.1114709768319

> <r_i_glide_energy>
-44.7774591445923

> <r_i_glide_einternal>
6.03184604644775

> <i_i_glide_confnum>
6

> <i_i_glide_posenum>
29

> <r_i_glide_eff_state_penalty>
0

> <s_user_duplicate_titles>
615327

> <s_m_subgroup_title>
dock_pv

> <s_m_subgroupid>
dock_pv1

> <b_m_subgroup_collapsed>
0

$$$$
86406
                    3D
 Schrodinger Suite 2021-1.
 63 67  0  0  1  0            999 V2000
   35.2599    1.5042   27.9810 C   0  0  0  0  0  0
   34.8598    0.7290   29.0681 C   0  0  0  0  0  0
   33.5227    0.3626   29.2012 C   0  0  0  0  0  0
   32.5919    0.7656   28.2381 C   0  0  0  0  0  0
   33.0222    1.5075   27.1314 C   0  0  0  0  0  0
   34.3467    1.8913   27.0159 C   0  0  0  0  0  0
   31.1114    0.4073   28.4052 C   0  0  1  0  0  0
   30.1614    1.4923   27.8422 C   0  0  0  0  0  0
   28.8162    1.2220   28.1942 O   0  0  0  0  0  0
   28.3771   -0.0227   27.8070 C   0  0  0  0  0  0
   27.0325   -0.0926   27.4641 C   0  0  0  0  0  0
   26.4851   -1.3073   27.0808 C   0  0  0  0  0  0
   27.2602   -2.4650   27.1024 C   0  0  0  0  0  0
   28.6062   -2.3917   27.4603 C   0  0  0  0  0  0
   29.2050   -1.1622   27.7683 C   0  0  0  0  0  0
   30.7263   -1.0266   27.9247 C   0  0  1  0  0  0
   31.4394   -1.5029   26.6435 C   0  0  0  0  0  0
   32.4572   -2.4587   26.7251 C   0  0  0  0  0  0
   33.0197   -2.9826   25.5639 C   0  0  0  0  0  0
   32.5850   -2.5651   24.3094 C   0  0  0  0  0  0
   31.6058   -1.5666   24.2273 C   0  0  0  0  0  0
   31.0351   -1.0428   25.3845 C   0  0  0  0  0  0
   33.1590   -3.1856   23.2163 O   0  0  0  0  0  0
   32.4648   -3.1593   21.9668 C   0  0  0  0  0  0
   33.2006   -3.9922   20.8953 C   0  0  0  0  0  0
   34.2913   -3.2809   20.2092 N   0  0  0  0  0  0
   35.3792   -2.8717   21.1099 C   0  0  0  0  0  0
   36.5128   -2.1329   20.3684 C   0  0  0  0  0  0
   37.0457   -2.9363   19.1743 C   0  0  0  0  0  0
   35.8765   -3.3657   18.2770 C   0  0  0  0  0  0
   34.7688   -4.0851   19.0740 C   0  0  0  0  0  0
   25.1887   -1.3420   26.6641 O   0  0  0  0  0  0
   30.9422    0.4356   29.4838 H   0  0  0  0  0  0
   31.0154   -1.7286   28.7098 H   0  0  0  0  0  0
   36.2842    1.8161   27.8636 H   0  0  0  0  0  0
   35.5858    0.4246   29.8078 H   0  0  0  0  0  0
   33.2135   -0.2245   30.0541 H   0  0  0  0  0  0
   32.3478    1.8060   26.3494 H   0  0  0  0  0  0
   34.6692    2.4790   26.1705 H   0  0  0  0  0  0
   30.4180    2.4697   28.2487 H   0  0  0  0  0  0
   30.2269    1.5511   26.7553 H   0  0  0  0  0  0
   26.4236    0.7997   27.4670 H   0  0  0  0  0  0
   26.8347   -3.4134   26.8066 H   0  0  0  0  0  0
   29.2089   -3.2884   27.4188 H   0  0  0  0  0  0
   32.7923   -2.8247   27.6847 H   0  0  0  0  0  0
   33.7709   -3.7536   25.6270 H   0  0  0  0  0  0
   31.2602   -1.2035   23.2744 H   0  0  0  0  0  0
   30.2513   -0.3052   25.2966 H   0  0  0  0  0  0
   32.3367   -2.1421   21.6048 H   0  0  0  0  0  0
   31.4672   -3.5788   22.1101 H   0  0  0  0  0  0
   32.4603   -4.2839   20.1495 H   0  0  0  0  0  0
   33.5724   -4.9196   21.3355 H   0  0  0  0  0  0
   35.7653   -3.7419   21.6405 H   0  0  0  0  0  0
   34.9718   -2.2059   21.8643 H   0  0  0  0  0  0
   37.3301   -1.9386   21.0631 H   0  0  0  0  0  0
   36.1640   -1.1467   20.0582 H   0  0  0  0  0  0
   37.7664   -2.3455   18.6077 H   0  0  0  0  0  0
   37.5771   -3.8197   19.5319 H   0  0  0  0  0  0
   35.4511   -2.5121   17.7465 H   0  0  0  0  0  0
   36.2453   -4.0328   17.4971 H   0  0  0  0  0  0
   35.1191   -5.0541   19.4340 H   0  0  0  0  0  0
   33.9297   -4.2929   18.4076 H   0  0  0  0  0  0
   24.9482   -2.2090   26.2642 H   0  0  0  0  0  0
  1  6  1  0  0  0
  1  2  2  0  0  0
  1 35  1  0  0  0
  2  3  1  0  0  0
  2 36  1  0  0  0
  3  4  2  0  0  0
  3 37  1  0  0  0
  4  5  1  0  0  0
  4  7  1  0  0  0
  5  6  2  0  0  0
  5 38  1  0  0  0
  6 39  1  0  0  0
  7 33  1  0  0  0
  7 16  1  0  0  0
  7  8  1  0  0  0
  8  9  1  0  0  0
  8 40  1  0  0  0
  8 41  1  0  0  0
  9 10  1  0  0  0
 10 15  2  0  0  0
 10 11  1  0  0  0
 11 12  2  0  0  0
 11 42  1  0  0  0
 12 13  1  0  0  0
 12 32  1  0  0  0
 13 14  2  0  0  0
 13 43  1  0  0  0
 14 15  1  0  0  0
 14 44  1  0  0  0
 15 16  1  0  0  0
 16 34  1  0  0  0
 16 17  1  0  0  0
 17 22  1  0  0  0
 17 18  2  0  0  0
 18 19  1  0  0  0
 18 45  1  0  0  0
 19 20  2  0  0  0
 19 46  1  0  0  0
 20 21  1  0  0  0
 20 23  1  0  0  0
 21 22  2  0  0  0
 21 47  1  0  0  0
 22 48  1  0  0  0
 23 24  1  0  0  0
 24 25  1  0  0  0
 24 49  1  0  0  0
 24 50  1  0  0  0
 25 26  1  0  0  0
 25 51  1  0  0  0
 25 52  1  0  0  0
 26 31  1  0  0  0
 26 27  1  0  0  0
 27 28  1  0  0  0
 27 53  1  0  0  0
 27 54  1  0  0  0
 28 29  1  0  0  0
 28 55  1  0  0  0
 28 56  1  0  0  0
 29 30  1  0  0  0
 29 57  1  0  0  0
 29 58  1  0  0  0
 30 31  1  0  0  0
 30 59  1  0  0  0
 30 60  1  0  0  0
 31 61  1  0  0  0
 31 62  1  0  0  0
 32 63  1  0  0  0
M  END
> <s_m_entry_id>
17135

> <s_m_entry_name>
ligand_docking-pose.62

> <s_m_Source_Path>
/home/csk/Desktop/cluster/DUD-E-result/esr1

> <s_m_Source_File>
ligand_docking-pose.sdf

> <i_m_Source_File_Index>
62

> <i_lp_mmshare_version>
53161

> <i_f3d_flags>
0

> <r_lp_tautomer_probability>
1

> <s_lp_Force_Field>
OPLS_2005

> <r_lp_Energy>
38.800967

> <b_lp_Chiralities_Consistent>
1

> <s_lp_Variant>
86406-1

> <s_i_glide_gridfile>
glide-grid_1sj0

> <i_i_glide_lignum>
563

> <i_i_glide_rotatable_bonds>
7

> <r_i_docking_score>
-10.2436541916828

> <r_i_glide_ligand_efficiency>
-0.320114193490088

> <r_i_glide_ligand_efficiency_sa>
-1.01629921381816

> <r_i_glide_ligand_efficiency_ln>
-2.29383340498499

> <r_i_glide_gscore>
-10.2436541916828

> <r_i_glide_lipo>
-5.4504332895388

> <r_i_glide_hbond>
-0.22074309233119

> <r_i_glide_metal>
0

> <r_i_glide_rewards>
-1.34392060431471

> <r_i_glide_evdw>
-49.0839805603027

> <r_i_glide_ecoul>
-7.67555284500122

> <r_i_glide_erotb>
0.376974749267195

> <r_i_glide_esite>
0

> <r_i_glide_emodel>
-86.6066245181074

> <r_i_glide_energy>
-56.759533405304

> <r_i_glide_einternal>
6.12928819656372

> <i_i_glide_confnum>
4

> <i_i_glide_posenum>
21

> <r_i_glide_eff_state_penalty>
0

> <s_user_duplicate_titles>
86406

> <s_m_subgroup_title>
dock_pv

> <s_m_subgroupid>
dock_pv1

> <b_m_subgroup_collapsed>
0

$$$$
65568
                    3D
 Schrodinger Suite 2021-1.
 61 64  0  0  1  0            999 V2000
   29.4535    1.9614   28.5873 C   0  0  0  0  0  0
   29.8261    0.5612   28.2045 C   0  0  0  0  0  0
   28.8965   -0.4709   27.9265 C   0  0  0  0  0  0
   27.4987   -0.5094   27.8581 C   0  0  0  0  0  0
   26.8805   -1.7183   27.5933 C   0  0  0  0  0  0
   27.6122   -2.8898   27.4580 C   0  0  0  0  0  0
   29.0027   -2.8752   27.5329 C   0  0  0  0  0  0
   29.6427   -1.6581   27.7060 C   0  0  0  0  0  0
   30.9880   -1.3240   27.6845 N   0  0  0  0  0  0
   31.0796    0.0032   28.0396 C   0  0  0  0  0  0
   32.3741    0.6726   28.1425 C   0  0  0  0  0  0
   32.7287    1.5068   27.0923 C   0  0  0  0  0  0
   33.9438    2.1581   27.1225 C   0  0  0  0  0  0
   34.7875    1.9372   28.1987 C   0  0  0  0  0  0
   34.4673    1.0580   29.2272 C   0  0  0  0  0  0
   33.2343    0.4262   29.2108 C   0  0  0  0  0  0
   35.9245    2.6580   28.2639 O   0  0  0  0  0  0
   32.1393   -2.1986   27.3560 C   0  0  0  0  0  0
   32.0650   -2.8359   25.9533 C   0  0  0  0  0  0
   32.2901   -1.8302   24.8092 C   0  0  0  0  0  0
   32.2311   -2.4471   23.3999 C   0  0  0  0  0  0
   33.3444   -3.4721   23.0848 C   0  0  0  0  0  0
   33.2775   -4.0020   21.6365 C   0  0  0  0  0  0
   33.5723   -2.9426   20.6717 N   0  0  0  0  0  0
   34.9929   -2.6575   20.5223 C   0  0  0  0  0  0
   35.0779   -1.8010   19.2570 C   0  0  0  0  0  0
   33.8613   -2.2361   18.4323 C   0  0  0  0  0  0
   33.1658   -3.2769   19.3142 C   0  0  0  0  0  0
   25.5314   -1.7423   27.4638 O   0  0  0  0  0  0
   30.2597    2.6579   28.3789 H   0  0  0  0  0  0
   28.5721    2.2621   28.0234 H   0  0  0  0  0  0
   29.2104    2.0368   29.6469 H   0  0  0  0  0  0
   26.9076    0.3844   27.9838 H   0  0  0  0  0  0
   27.0999   -3.8233   27.2733 H   0  0  0  0  0  0
   29.5999   -3.7420   27.4437 H   0  0  0  0  0  0
   32.0600    1.6467   26.2640 H   0  0  0  0  0  0
   34.2264    2.8275   26.3253 H   0  0  0  0  0  0
   35.1522    0.9000   30.0436 H   0  0  0  0  0  0
   32.9551   -0.2476   30.0086 H   0  0  0  0  0  0
   36.6544    2.1586   28.6649 H   0  0  0  0  0  0
   32.2855   -2.9398   28.1281 H   0  0  0  0  0  0
   33.0629   -1.6233   27.3936 H   0  0  0  0  0  0
   31.1168   -3.3490   25.8132 H   0  0  0  0  0  0
   32.8260   -3.6155   25.9019 H   0  0  0  0  0  0
   33.2559   -1.3418   24.9390 H   0  0  0  0  0  0
   31.5426   -1.0387   24.8759 H   0  0  0  0  0  0
   32.2784   -1.6371   22.6713 H   0  0  0  0  0  0
   31.2602   -2.9162   23.2478 H   0  0  0  0  0  0
   33.2603   -4.3227   23.7589 H   0  0  0  0  0  0
   34.3232   -3.0340   23.2826 H   0  0  0  0  0  0
   32.2589   -4.3506   21.4534 H   0  0  0  0  0  0
   33.9247   -4.8688   21.4894 H   0  0  0  0  0  0
   35.5926   -3.5692   20.4591 H   0  0  0  0  0  0
   35.3535   -2.1415   21.4119 H   0  0  0  0  0  0
   36.0137   -1.9775   18.7253 H   0  0  0  0  0  0
   35.0383   -0.7389   19.5048 H   0  0  0  0  0  0
   33.1978   -1.3947   18.2265 H   0  0  0  0  0  0
   34.1518   -2.6685   17.4739 H   0  0  0  0  0  0
   32.0776   -3.2260   19.2494 H   0  0  0  0  0  0
   33.4209   -4.3039   19.0454 H   0  0  0  0  0  0
   25.2591   -2.4329   26.8356 H   0  0  0  0  0  0
  1  2  1  0  0  0
  1 30  1  0  0  0
  1 31  1  0  0  0
  1 32  1  0  0  0
  2 10  2  0  0  0
  2  3  1  0  0  0
  3  8  2  0  0  0
  3  4  1  0  0  0
  4  5  2  0  0  0
  4 33  1  0  0  0
  5  6  1  0  0  0
  5 29  1  0  0  0
  6  7  2  0  0  0
  6 34  1  0  0  0
  7  8  1  0  0  0
  7 35  1  0  0  0
  8  9  1  0  0  0
  9 10  1  0  0  0
  9 18  1  0  0  0
 10 11  1  0  0  0
 11 16  1  0  0  0
 11 12  2  0  0  0
 12 13  1  0  0  0
 12 36  1  0  0  0
 13 14  2  0  0  0
 13 37  1  0  0  0
 14 15  1  0  0  0
 14 17  1  0  0  0
 15 16  2  0  0  0
 15 38  1  0  0  0
 16 39  1  0  0  0
 17 40  1  0  0  0
 18 19  1  0  0  0
 18 41  1  0  0  0
 18 42  1  0  0  0
 19 20  1  0  0  0
 19 43  1  0  0  0
 19 44  1  0  0  0
 20 21  1  0  0  0
 20 45  1  0  0  0
 20 46  1  0  0  0
 21 22  1  0  0  0
 21 47  1  0  0  0
 21 48  1  0  0  0
 22 23  1  0  0  0
 22 49  1  0  0  0
 22 50  1  0  0  0
 23 24  1  0  0  0
 23 51  1  0  0  0
 23 52  1  0  0  0
 24 28  1  0  0  0
 24 25  1  0  0  0
 25 26  1  0  0  0
 25 53  1  0  0  0
 25 54  1  0  0  0
 26 27  1  0  0  0
 26 55  1  0  0  0
 26 56  1  0  0  0
 27 28  1  0  0  0
 27 57  1  0  0  0
 27 58  1  0  0  0
 28 59  1  0  0  0
 28 60  1  0  0  0
 29 61  1  0  0  0
M  END
> <s_m_entry_id>
17136

> <s_m_entry_name>
ligand_docking-pose.63

> <s_m_Source_Path>
/home/csk/Desktop/cluster/DUD-E-result/esr1

> <s_m_Source_File>
ligand_docking-pose.sdf

> <i_m_Source_File_Index>
63

> <i_lp_mmshare_version>
53161

> <i_f3d_flags>
0

> <r_lp_tautomer_probability>
0.999999999997365

> <s_lp_Force_Field>
OPLS_2005

> <r_lp_Energy>
35.054367

> <b_lp_Chiralities_Consistent>
1

> <s_lp_Variant>
65568-1

> <s_i_glide_gridfile>
glide-grid_1sj0

> <i_i_glide_lignum>
907

> <i_i_glide_rotatable_bonds>
10

> <r_i_docking_score>
-10.227518536041

> <r_i_glide_ligand_efficiency>
-0.35267305296693

> <r_i_glide_ligand_efficiency_sa>
-1.08352335338011

> <r_i_glide_ligand_efficiency_ln>
-2.34184239726042

> <r_i_glide_gscore>
-10.227518536041

> <r_i_glide_lipo>
-5.30189508149059

> <r_i_glide_hbond>
-0.471840002329204

> <r_i_glide_metal>
0

> <r_i_glide_rewards>
-1.8246289468859

> <r_i_glide_evdw>
-32.8927803039551

> <r_i_glide_ecoul>
-10.703031539917

> <r_i_glide_erotb>
0.620939240850031

> <r_i_glide_esite>
0

> <r_i_glide_emodel>
-62.0300804204219

> <r_i_glide_energy>
-43.5958118438721

> <r_i_glide_einternal>
5.34697198867798

> <i_i_glide_confnum>
1

> <i_i_glide_posenum>
127

> <r_i_glide_eff_state_penalty>
0

> <s_user_duplicate_titles>
65568

> <s_m_subgroup_title>
dock_pv

> <s_m_subgroupid>
dock_pv1

> <b_m_subgroup_collapsed>
0

$$$$
125972
                    3D
 Schrodinger Suite 2021-1.
 47 51  0  0  1  0            999 V2000
   32.9595   -3.5900   22.4475 C   0  0  0  0  0  0
   33.4391   -3.9359   23.7026 C   0  0  0  0  0  0
   33.0067   -3.2744   24.8459 C   0  0  0  0  0  0
   32.0769   -2.2416   24.7269 C   0  0  0  0  0  0
   31.6595   -1.8422   23.4628 C   0  0  0  0  0  0
   32.0620   -2.5418   22.3251 C   0  0  0  0  0  0
   31.4526   -1.5517   25.9283 C   0  0  0  0  0  0
   31.5193   -2.3408   27.2528 C   0  0  0  0  0  0
   30.7028   -1.7719   28.4411 C   0  0  2  0  0  0
   29.1778   -2.0228   28.4424 C   0  0  2  0  0  0
   28.3928   -3.0391   27.5830 C   0  0  0  0  0  0
   27.2603   -2.6938   26.9099 C   0  0  0  0  0  0
   26.7973   -1.2959   26.8634 C   0  0  0  0  0  0
   27.5921   -0.3309   27.3764 C   0  0  0  0  0  0
   28.7325   -0.7430   27.9685 N   0  0  0  0  0  0
   29.5498    0.2666   28.2391 C   0  0  0  0  0  0
   30.7578   -0.2417   28.5477 C   0  0  0  0  0  0
   32.0189    0.4961   28.5214 C   0  0  0  0  0  0
   33.1171    0.0741   29.2763 C   0  0  0  0  0  0
   34.3576    0.6691   29.0699 C   0  0  0  0  0  0
   34.4674    1.6869   28.1267 C   0  0  0  0  0  0
   33.3762    2.1469   27.4135 C   0  0  0  0  0  0
   32.1496    1.5489   27.6173 C   0  0  0  0  0  0
   35.6600    2.2578   27.8647 O   0  0  0  0  0  0
   28.8216    1.4843   27.9673 C   0  0  0  0  0  0
   27.6204    1.1200   27.4543 C   0  0  0  0  0  0
   33.2611   -4.1504   21.5737 H   0  0  0  0  0  0
   34.0600   -4.8008   23.8103 H   0  0  0  0  0  0
   33.3558   -3.6122   25.8091 H   0  0  0  0  0  0
   30.9518   -1.0318   23.3835 H   0  0  0  0  0  0
   31.6828   -2.2716   21.3515 H   0  0  0  0  0  0
   31.9411   -0.5831   26.0241 H   0  0  0  0  0  0
   30.4030   -1.3535   25.6996 H   0  0  0  0  0  0
   31.1853   -3.3545   27.0631 H   0  0  0  0  0  0
   32.5625   -2.4134   27.5611 H   0  0  0  0  0  0
   31.1013   -2.1908   29.3633 H   0  0  0  0  0  0
   28.8601   -2.1401   29.4641 H   0  0  0  0  0  0
   28.6918   -4.0764   27.5868 H   0  0  0  0  0  0
   26.7435   -3.4538   26.3430 H   0  0  0  0  0  0
   25.8729   -1.0544   26.3581 H   0  0  0  0  0  0
   33.0258   -0.7438   29.9770 H   0  0  0  0  0  0
   35.2223    0.3250   29.6193 H   0  0  0  0  0  0
   33.4883    2.9363   26.6830 H   0  0  0  0  0  0
   31.3176    1.8571   27.0075 H   0  0  0  0  0  0
   36.3994    1.8560   28.3406 H   0  0  0  0  0  0
   29.1968    2.4856   28.1052 H   0  0  0  0  0  0
   26.8573    1.7945   27.1031 H   0  0  0  0  0  0
  1  6  1  0  0  0
  1  2  2  0  0  0
  1 27  1  0  0  0
  2  3  1  0  0  0
  2 28  1  0  0  0
  3  4  2  0  0  0
  3 29  1  0  0  0
  4  5  1  0  0  0
  4  7  1  0  0  0
  5  6  2  0  0  0
  5 30  1  0  0  0
  6 31  1  0  0  0
  7  8  1  0  0  0
  7 32  1  0  0  0
  7 33  1  0  0  0
  8  9  1  0  0  0
  8 34  1  0  0  0
  8 35  1  0  0  0
  9 17  1  0  0  0
  9 10  1  0  0  0
  9 36  1  0  0  0
 10 15  1  0  0  0
 10 11  1  0  0  0
 10 37  1  0  0  0
 11 12  2  0  0  0
 11 38  1  0  0  0
 12 13  1  0  0  0
 12 39  1  0  0  0
 13 14  2  0  0  0
 13 40  1  0  0  0
 14 26  1  0  0  0
 14 15  1  0  0  0
 15 16  1  0  0  0
 16 17  2  0  0  0
 16 25  1  0  0  0
 17 18  1  0  0  0
 18 23  1  0  0  0
 18 19  2  0  0  0
 19 20  1  0  0  0
 19 41  1  0  0  0
 20 21  2  0  0  0
 20 42  1  0  0  0
 21 22  1  0  0  0
 21 24  1  0  0  0
 22 23  2  0  0  0
 22 43  1  0  0  0
 23 44  1  0  0  0
 24 45  1  0  0  0
 25 26  2  0  0  0
 25 46  1  0  0  0
 26 47  1  0  0  0
M  END
> <s_m_entry_id>
17137

> <s_m_entry_name>
ligand_docking-pose.64

> <s_m_Source_Path>
/home/csk/Desktop/cluster/DUD-E-result/esr1

> <s_m_Source_File>
ligand_docking-pose.sdf

> <i_m_Source_File_Index>
64

> <i_lp_mmshare_version>
53161

> <i_f3d_flags>
0

> <r_lp_tautomer_probability>
1

> <s_lp_Force_Field>
OPLS_2005

> <r_lp_Energy>
77.468293

> <b_lp_Chiralities_Consistent>
1

> <s_lp_Variant>
125972-1

> <s_i_glide_gridfile>
glide-grid_1sj0

> <i_i_glide_lignum>
405

> <i_i_glide_rotatable_bonds>
5

> <r_i_docking_score>
-10.2174496505254

> <r_i_glide_ligand_efficiency>
-0.392978832712515

> <r_i_glide_ligand_efficiency_sa>
-1.16419824561379

> <r_i_glide_ligand_efficiency_ln>
-2.39953452423906

> <r_i_glide_gscore>
-10.2174496505254

> <r_i_glide_lipo>
-5.63643169302549

> <r_i_glide_hbond>
-0.32

> <r_i_glide_metal>
0

> <r_i_glide_rewards>
-2.02944522392297

> <r_i_glide_evdw>
-41.8278160095215

> <r_i_glide_ecoul>
-5.31476402282715

> <r_i_glide_erotb>
0.657032670323218

> <r_i_glide_esite>
0

> <r_i_glide_emodel>
-68.2742762455633

> <r_i_glide_energy>
-47.1425800323486

> <r_i_glide_einternal>
7.18156480789185

> <i_i_glide_confnum>
54

> <i_i_glide_posenum>
44

> <r_i_glide_eff_state_penalty>
0

> <s_user_duplicate_titles>
125972

> <s_m_subgroup_title>
dock_pv

> <s_m_subgroupid>
dock_pv1

> <b_m_subgroup_collapsed>
0

$$$$
326162
                    3D
 Schrodinger Suite 2021-1.
 60 64  0  0  1  0            999 V2000
   35.4086   -0.9370   18.2550 C   0  0  0  0  0  0
   34.9631   -2.3274   18.7447 C   0  0  0  0  0  0
   33.5028   -2.4537   18.8798 N   0  0  0  0  0  0
   32.8399   -2.4128   17.5666 C   0  0  0  0  0  0
   31.3076   -2.2969   17.6583 C   0  0  0  0  0  0
   33.1488   -3.6832   19.6191 C   0  0  0  0  0  0
   33.5059   -3.6510   21.1178 C   0  0  0  0  0  0
   32.8644   -2.5424   21.7541 O   0  0  0  0  0  0
   32.7368   -2.5351   23.1264 C   0  0  0  0  0  0
   33.4043   -3.4247   23.9697 C   0  0  0  0  0  0
   33.1710   -3.4050   25.3358 C   0  0  0  0  0  0
   32.2332   -2.5355   25.8755 C   0  0  0  0  0  0
   31.6075   -1.5981   25.0502 C   0  0  0  0  0  0
   31.8762   -1.5917   23.6876 C   0  0  0  0  0  0
   31.8570   -2.6975   27.3397 C   0  0  0  0  0  0
   31.5791   -1.4670   28.0397 N   0  0  0  0  0  0
   32.5595   -0.7238   28.6888 C   0  0  0  0  0  0
   33.9127   -0.9421   28.9366 C   0  0  0  0  0  0
   34.6073    0.0679   29.5825 C   0  0  0  0  0  0
   33.9535    1.1795   30.0960 C   0  0  0  0  0  0
   32.5913    1.3971   29.8882 C   0  0  0  0  0  0
   31.9131    0.4504   29.1313 C   0  0  0  0  0  0
   30.6116    0.4128   28.6624 C   0  0  0  0  0  0
   30.3818   -0.7932   28.0555 C   0  0  0  0  0  0
   29.0615   -0.9671   27.6280 C   0  0  0  0  0  0
   28.4777   -2.1109   27.0647 C   0  0  0  0  0  0
   27.1252   -2.0688   26.7436 C   0  0  0  0  0  0
   26.3647   -0.9223   26.9498 C   0  0  0  0  0  0
   26.9320    0.2418   27.4640 C   0  0  0  0  0  0
   28.2815    0.2100   27.8377 C   0  0  0  0  0  0
   29.2600    1.4756   28.6111 S   0  0  0  0  0  0
   25.0358   -0.9421   26.6384 O   0  0  0  0  0  0
   36.4911   -0.8414   18.3260 H   0  0  0  0  0  0
   34.9724   -0.1447   18.8636 H   0  0  0  0  0  0
   35.1438   -0.7514   17.2150 H   0  0  0  0  0  0
   35.3548   -3.1042   18.0854 H   0  0  0  0  0  0
   35.4402   -2.4782   19.7128 H   0  0  0  0  0  0
   33.1817   -1.5401   17.0124 H   0  0  0  0  0  0
   33.1185   -3.2866   16.9745 H   0  0  0  0  0  0
   30.8610   -2.1617   16.6743 H   0  0  0  0  0  0
   30.8588   -3.1955   18.0733 H   0  0  0  0  0  0
   31.0083   -1.4476   18.2723 H   0  0  0  0  0  0
   32.0763   -3.8654   19.5840 H   0  0  0  0  0  0
   33.6095   -4.5527   19.1468 H   0  0  0  0  0  0
   33.1448   -4.5897   21.5425 H   0  0  0  0  0  0
   34.5823   -3.6234   21.2841 H   0  0  0  0  0  0
   34.0601   -4.1804   23.5752 H   0  0  0  0  0  0
   33.6596   -4.1413   25.9573 H   0  0  0  0  0  0
   30.8863   -0.8944   25.4369 H   0  0  0  0  0  0
   31.3743   -0.8730   23.0642 H   0  0  0  0  0  0
   30.9912   -3.3416   27.4452 H   0  0  0  0  0  0
   32.6758   -3.1957   27.8631 H   0  0  0  0  0  0
   34.4077   -1.8526   28.6646 H   0  0  0  0  0  0
   35.6626   -0.0578   29.7728 H   0  0  0  0  0  0
   34.5293    1.8894   30.6637 H   0  0  0  0  0  0
   32.0763    2.2580   30.2768 H   0  0  0  0  0  0
   29.0260   -3.0219   26.9029 H   0  0  0  0  0  0
   26.6643   -2.9514   26.3253 H   0  0  0  0  0  0
   26.3355    1.1285   27.6062 H   0  0  0  0  0  0
   24.7993   -1.8060   26.2607 H   0  0  0  0  0  0
  1  2  1  0  0  0
  1 33  1  0  0  0
  1 34  1  0  0  0
  1 35  1  0  0  0
  2  3  1  0  0  0
  2 36  1  0  0  0
  2 37  1  0  0  0
  3  4  1  0  0  0
  3  6  1  0  0  0
  4  5  1  0  0  0
  4 38  1  0  0  0
  4 39  1  0  0  0
  5 40  1  0  0  0
  5 41  1  0  0  0
  5 42  1  0  0  0
  6  7  1  0  0  0
  6 43  1  0  0  0
  6 44  1  0  0  0
  7  8  1  0  0  0
  7 45  1  0  0  0
  7 46  1  0  0  0
  8  9  1  0  0  0
  9 14  1  0  0  0
  9 10  2  0  0  0
 10 11  1  0  0  0
 10 47  1  0  0  0
 11 12  2  0  0  0
 11 48  1  0  0  0
 12 13  1  0  0  0
 12 15  1  0  0  0
 13 14  2  0  0  0
 13 49  1  0  0  0
 14 50  1  0  0  0
 15 16  1  0  0  0
 15 51  1  0  0  0
 15 52  1  0  0  0
 16 24  1  0  0  0
 16 17  1  0  0  0
 17 22  2  0  0  0
 17 18  1  0  0  0
 18 19  2  0  0  0
 18 53  1  0  0  0
 19 20  1  0  0  0
 19 54  1  0  0  0
 20 21  2  0  0  0
 20 55  1  0  0  0
 21 22  1  0  0  0
 21 56  1  0  0  0
 22 23  1  0  0  0
 23 31  1  0  0  0
 23 24  2  0  0  0
 24 25  1  0  0  0
 25 30  2  0  0  0
 25 26  1  0  0  0
 26 27  2  0  0  0
 26 57  1  0  0  0
 27 28  1  0  0  0
 27 58  1  0  0  0
 28 29  2  0  0  0
 28 32  1  0  0  0
 29 30  1  0  0  0
 29 59  1  0  0  0
 30 31  1  0  0  0
 32 60  1  0  0  0
M  END
> <s_m_entry_id>
17138

> <s_m_entry_name>
ligand_docking-pose.65

> <s_m_Source_Path>
/home/csk/Desktop/cluster/DUD-E-result/esr1

> <s_m_Source_File>
ligand_docking-pose.sdf

> <i_m_Source_File_Index>
65

> <i_lp_mmshare_version>
53161

> <i_f3d_flags>
0

> <r_lp_tautomer_probability>
1

> <s_lp_Force_Field>
OPLS_2005

> <r_lp_Energy>
56.018703

> <b_lp_Chiralities_Consistent>
1

> <s_lp_Variant>
326162-1

> <s_i_glide_gridfile>
glide-grid_1sj0

> <i_i_glide_lignum>
1635

> <i_i_glide_rotatable_bonds>
9

> <r_i_docking_score>
-10.206020323602

> <r_i_glide_ligand_efficiency>
-0.318938135112564

> <r_i_glide_ligand_efficiency_sa>
-1.01256546121116

> <r_i_glide_ligand_efficiency_ln>
-2.28540615606121

> <r_i_glide_gscore>
-10.206020323602

> <r_i_glide_lipo>
-5.95537193065695

> <r_i_glide_hbond>
-0.224852206332864

> <r_i_glide_metal>
0

> <r_i_glide_rewards>
-1.59282515952715

> <r_i_glide_evdw>
-42.4979057312012

> <r_i_glide_ecoul>
-4.88715934753418

> <r_i_glide_erotb>
0.424998161605099

> <r_i_glide_esite>
0

> <r_i_glide_emodel>
-64.9815485003051

> <r_i_glide_energy>
-47.3850650787354

> <r_i_glide_einternal>
1.60216975212097

> <i_i_glide_confnum>
3

> <i_i_glide_posenum>
50

> <r_i_glide_eff_state_penalty>
0

> <s_user_duplicate_titles>
326162

> <s_m_subgroup_title>
dock_pv

> <s_m_subgroupid>
dock_pv1

> <b_m_subgroup_collapsed>
0

$$$$
150269
                    3D
 Schrodinger Suite 2021-1.
 34 36  0  0  1  0            999 V2000
   32.8323   -3.1371   25.1381 C   0  0  0  0  0  0
   32.3498   -2.9003   26.4274 C   0  0  0  0  0  0
   31.5107   -1.7879   26.5505 C   0  0  0  0  0  0
   31.2861   -1.0853   24.9605 S   0  0  0  0  0  0
   32.3367   -2.2381   24.2161 C   0  0  0  0  0  0
   30.8567   -1.2018   27.8142 C   0  0  2  0  0  0
   29.3123   -1.2536   27.7034 C   0  0  0  0  0  0
   28.6592   -2.4711   27.4640 C   0  0  0  0  0  0
   27.3019   -2.5164   27.1485 C   0  0  0  0  0  0
   26.5640   -1.3381   27.1130 C   0  0  0  0  0  0
   27.1648   -0.1376   27.4640 C   0  0  0  0  0  0
   28.5278   -0.0824   27.7646 C   0  0  0  0  0  0
   29.1915    1.2291   28.1173 C   0  0  0  0  0  0
   30.5712    1.2881   27.4640 C   0  0  0  0  0  0
   31.3580    0.1860   28.0546 N   0  0  0  0  0  0
   32.6388    0.4580   28.4541 C   0  0  0  0  0  0
   33.1460    1.5705   28.2730 O   0  0  0  0  0  0
   33.4217   -0.5305   29.3526 C   0  0  0  0  0  0
   32.8600   -0.5420   30.5626 F   0  0  0  0  0  0
   33.4167   -1.7674   28.8667 F   0  0  0  0  0  0
   34.6945   -0.1421   29.4640 F   0  0  0  0  0  0
   25.2600   -1.3420   26.7061 O   0  0  0  0  0  0
   33.5070   -3.9435   24.8878 H   0  0  0  0  0  0
   32.6307   -3.5193   27.2656 H   0  0  0  0  0  0
   32.5319   -2.1996   23.1542 H   0  0  0  0  0  0
   31.1035   -1.8139   28.6819 H   0  0  0  0  0  0
   29.2320   -3.3862   27.4333 H   0  0  0  0  0  0
   26.8411   -3.4592   26.8897 H   0  0  0  0  0  0
   26.5716    0.7657   27.4620 H   0  0  0  0  0  0
   29.2719    1.3427   29.1999 H   0  0  0  0  0  0
   28.5882    2.0692   27.7713 H   0  0  0  0  0  0
   30.9787    2.2580   27.7379 H   0  0  0  0  0  0
   30.4898    1.2408   26.3792 H   0  0  0  0  0  0
   25.0087   -2.1996   26.2965 H   0  0  0  0  0  0
  1  5  2  0  0  0
  1  2  1  0  0  0
  1 23  1  0  0  0
  2  3  2  0  0  0
  2 24  1  0  0  0
  3  4  1  0  0  0
  3  6  1  0  0  0
  4  5  1  0  0  0
  5 25  1  0  0  0
  6 15  1  0  0  0
  6  7  1  0  0  0
  6 26  1  0  0  0
  7 12  2  0  0  0
  7  8  1  0  0  0
  8  9  2  0  0  0
  8 27  1  0  0  0
  9 10  1  0  0  0
  9 28  1  0  0  0
 10 11  2  0  0  0
 10 22  1  0  0  0
 11 12  1  0  0  0
 11 29  1  0  0  0
 12 13  1  0  0  0
 13 14  1  0  0  0
 13 30  1  0  0  0
 13 31  1  0  0  0
 14 15  1  0  0  0
 14 32  1  0  0  0
 14 33  1  0  0  0
 15 16  1  0  0  0
 16 17  2  0  0  0
 16 18  1  0  0  0
 18 19  1  0  0  0
 18 20  1  0  0  0
 18 21  1  0  0  0
 22 34  1  0  0  0
M  END
> <s_m_entry_id>
17139

> <s_m_entry_name>
ligand_docking-pose.66

> <s_m_Source_Path>
/home/csk/Desktop/cluster/DUD-E-result/esr1

> <s_m_Source_File>
ligand_docking-pose.sdf

> <i_m_Source_File_Index>
66

> <i_lp_mmshare_version>
53161

> <i_f3d_flags>
0

> <r_lp_tautomer_probability>
0.999999999997365

> <s_lp_Force_Field>
OPLS_2005

> <r_lp_Energy>
21.318335

> <b_lp_Chiralities_Consistent>
1

> <s_lp_Variant>
150269-1

> <s_i_glide_gridfile>
glide-grid_1sj0

> <i_i_glide_lignum>
694

> <i_i_glide_rotatable_bonds>
4

> <r_i_docking_score>
-10.1889102935773

> <r_i_glide_ligand_efficiency>
-0.463132286071696

> <r_i_glide_ligand_efficiency_sa>
-1.29771487953214

> <r_i_glide_ligand_efficiency_ln>
-2.49054132528331

> <r_i_glide_gscore>
-10.1889102935773

> <r_i_glide_lipo>
-3.81710755134043

> <r_i_glide_hbond>
-0.204861823068705

> <r_i_glide_metal>
0

> <r_i_glide_rewards>
-3.64194431586784

> <r_i_glide_evdw>
-39.2976989746094

> <r_i_glide_ecoul>
-5.36890268325806

> <r_i_glide_erotb>
0.245223747918845

> <r_i_glide_esite>
0

> <r_i_glide_emodel>
-72.0145775443623

> <r_i_glide_energy>
-44.6666016578674

> <r_i_glide_einternal>
1.28704559803009

> <i_i_glide_confnum>
9

> <i_i_glide_posenum>
236

> <r_i_glide_eff_state_penalty>
0

> <s_user_duplicate_titles>
150269

> <s_m_subgroup_title>
dock_pv

> <s_m_subgroupid>
dock_pv1

> <b_m_subgroup_collapsed>
0

$$$$
546352
                    3D
 Schrodinger Suite 2021-1.
 62 66  0  0  1  0            999 V2000
   35.2601    0.3819   28.2640 C   0  0  0  0  0  0
   34.5822    1.4105   27.6238 C   0  0  0  0  0  0
   33.2023    1.4585   27.7295 C   0  0  0  0  0  0
   32.5272    0.4911   28.4883 C   0  0  0  0  0  0
   33.2387   -0.4823   29.1905 C   0  0  0  0  0  0
   34.6128   -0.5420   29.0640 C   0  0  0  0  0  0
   31.0091    0.4467   28.5502 C   0  0  1  0  0  0
   30.3183    1.7308   28.0588 C   0  0  0  0  0  0
   28.8589    1.6534   28.4483 C   0  0  0  0  0  0
   28.1927    0.4180   27.8640 C   0  0  0  0  0  0
   26.8601    0.4812   27.4640 C   0  0  0  0  0  0
   26.1721   -0.6552   27.0641 C   0  0  0  0  0  0
   26.8299   -1.8797   27.0453 C   0  0  0  0  0  0
   28.1752   -1.9517   27.3872 C   0  0  0  0  0  0
   28.8864   -0.8079   27.7719 C   0  0  0  0  0  0
   30.4090   -0.8798   27.9661 C   0  0  1  0  0  0
   31.0877   -1.3366   26.6600 C   0  0  0  0  0  0
   31.9700   -2.4237   26.6568 C   0  0  0  0  0  0
   32.5785   -2.8394   25.4735 C   0  0  0  0  0  0
   32.3253   -2.1486   24.2815 C   0  0  0  0  0  0
   31.4541   -1.0652   24.2914 C   0  0  0  0  0  0
   30.8277   -0.6648   25.4638 C   0  0  0  0  0  0
   32.9049   -2.4270   23.0644 O   0  0  0  0  0  0
   33.3883   -3.7350   22.7671 C   0  0  0  0  0  0
   34.2658   -3.6864   21.4948 C   0  0  0  0  0  0
   33.6811   -2.9007   20.4028 N   0  0  0  0  0  0
   32.4711   -3.4671   19.8232 C   0  0  0  0  0  0
   32.2583   -2.6953   18.5186 C   0  0  0  0  0  0
   33.6634   -2.2208   18.1342 C   0  0  0  0  0  0
   34.5601   -2.7595   19.2522 C   0  0  0  0  0  0
   24.8649   -0.5420   26.6732 O   0  0  0  0  0  0
   30.8263    0.3671   29.6249 H   0  0  0  0  0  0
   36.3193    0.2582   28.1082 H   0  0  0  0  0  0
   35.1172    2.1204   27.0092 H   0  0  0  0  0  0
   32.6777    2.2252   27.1815 H   0  0  0  0  0  0
   32.7288   -1.2219   29.7904 H   0  0  0  0  0  0
   35.1745   -1.3266   29.5482 H   0  0  0  0  0  0
   30.7388    2.5999   28.5648 H   0  0  0  0  0  0
   30.4162    1.8580   26.9812 H   0  0  0  0  0  0
   28.8599    1.5973   29.5372 H   0  0  0  0  0  0
   28.3136    2.5559   28.1834 H   0  0  0  0  0  0
   26.3477    1.4300   27.5028 H   0  0  0  0  0  0
   26.3177   -2.7717   26.7261 H   0  0  0  0  0  0
   28.6841   -2.9021   27.3070 H   0  0  0  0  0  0
   30.5811   -1.6791   28.6902 H   0  0  0  0  0  0
   32.1987   -2.9420   27.5730 H   0  0  0  0  0  0
   33.2596   -3.6745   25.5091 H   0  0  0  0  0  0
   31.2611   -0.5419   23.3711 H   0  0  0  0  0  0
   30.1425    0.1692   25.4392 H   0  0  0  0  0  0
   32.5447   -4.4124   22.6257 H   0  0  0  0  0  0
   33.9972   -4.1425   23.5722 H   0  0  0  0  0  0
   34.4600   -4.7039   21.1513 H   0  0  0  0  0  0
   35.2327   -3.2545   21.7572 H   0  0  0  0  0  0
   31.6425   -3.3518   20.5235 H   0  0  0  0  0  0
   32.5697   -4.5416   19.6622 H   0  0  0  0  0  0
   31.5770   -1.8559   18.6649 H   0  0  0  0  0  0
   31.8229   -3.3391   17.7535 H   0  0  0  0  0  0
   33.9713   -2.6094   17.1632 H   0  0  0  0  0  0
   33.7158   -1.1323   18.0830 H   0  0  0  0  0  0
   35.0501   -3.6994   18.9884 H   0  0  0  0  0  0
   35.3695   -2.0738   19.5080 H   0  0  0  0  0  0
   24.5852    0.3820   26.6475 H   0  0  0  0  0  0
  1  6  1  0  0  0
  1  2  2  0  0  0
  1 33  1  0  0  0
  2  3  1  0  0  0
  2 34  1  0  0  0
  3  4  2  0  0  0
  3 35  1  0  0  0
  4  5  1  0  0  0
  4  7  1  0  0  0
  5  6  2  0  0  0
  5 36  1  0  0  0
  6 37  1  0  0  0
  7 32  1  0  0  0
  7 16  1  0  0  0
  7  8  1  0  0  0
  8  9  1  0  0  0
  8 38  1  0  0  0
  8 39  1  0  0  0
  9 10  1  0  0  0
  9 40  1  0  0  0
  9 41  1  0  0  0
 10 15  2  0  0  0
 10 11  1  0  0  0
 11 12  2  0  0  0
 11 42  1  0  0  0
 12 13  1  0  0  0
 12 31  1  0  0  0
 13 14  2  0  0  0
 13 43  1  0  0  0
 14 15  1  0  0  0
 14 44  1  0  0  0
 15 16  1  0  0  0
 16 17  1  0  0  0
 16 45  1  0  0  0
 17 22  1  0  0  0
 17 18  2  0  0  0
 18 19  1  0  0  0
 18 46  1  0  0  0
 19 20  2  0  0  0
 19 47  1  0  0  0
 20 21  1  0  0  0
 20 23  1  0  0  0
 21 22  2  0  0  0
 21 48  1  0  0  0
 22 49  1  0  0  0
 23 24  1  0  0  0
 24 25  1  0  0  0
 24 50  1  0  0  0
 24 51  1  0  0  0
 25 26  1  0  0  0
 25 52  1  0  0  0
 25 53  1  0  0  0
 26 30  1  0  0  0
 26 27  1  0  0  0
 27 28  1  0  0  0
 27 54  1  0  0  0
 27 55  1  0  0  0
 28 29  1  0  0  0
 28 56  1  0  0  0
 28 57  1  0  0  0
 29 30  1  0  0  0
 29 58  1  0  0  0
 29 59  1  0  0  0
 30 60  1  0  0  0
 30 61  1  0  0  0
 31 62  1  0  0  0
M  END
> <s_m_entry_id>
17140

> <s_m_entry_name>
ligand_docking-pose.67

> <s_m_Source_Path>
/home/csk/Desktop/cluster/DUD-E-result/esr1

> <s_m_Source_File>
ligand_docking-pose.sdf

> <i_m_Source_File_Index>
67

> <i_lp_mmshare_version>
53161

> <i_f3d_flags>
0

> <r_lp_tautomer_probability>
0.999999999997365

> <s_lp_Force_Field>
OPLS_2005

> <r_lp_Energy>
44.816641

> <b_lp_Chiralities_Consistent>
1

> <s_lp_Variant>
546352-1

> <s_i_glide_gridfile>
glide-grid_1sj0

> <i_i_glide_lignum>
468

> <i_i_glide_rotatable_bonds>
7

> <r_i_docking_score>
-10.1599086756184

> <r_i_glide_ligand_efficiency>
-0.327738989536078

> <r_i_glide_ligand_efficiency_sa>
-1.02955291958445

> <r_i_glide_ligand_efficiency_ln>
-2.29137077015948

> <r_i_glide_gscore>
-10.1599086756184

> <r_i_glide_lipo>
-5.77294394499566

> <r_i_glide_hbond>
-0.371911687960548

> <r_i_glide_metal>
0

> <r_i_glide_rewards>
-1.42364807720333

> <r_i_glide_evdw>
-48.0603942871094

> <r_i_glide_ecoul>
-5.10121488571167

> <r_i_glide_erotb>
0.576796981753355

> <r_i_glide_esite>
0

> <r_i_glide_emodel>
-81.4978163407496

> <r_i_glide_energy>
-53.161609172821

> <r_i_glide_einternal>
3.61724138259888

> <i_i_glide_confnum>
11

> <i_i_glide_posenum>
34

> <r_i_glide_eff_state_penalty>
0

> <s_user_duplicate_titles>
546352,162444

> <s_m_subgroup_title>
dock_pv

> <s_m_subgroupid>
dock_pv1

> <b_m_subgroup_collapsed>
0

$$$$
149896
                    3D
 Schrodinger Suite 2021-1.
 62 66  0  0  1  0            999 V2000
   35.0136    0.8441   28.9072 C   0  0  0  0  0  0
   34.6904    1.4578   27.7020 C   0  0  0  0  0  0
   33.3610    1.4894   27.3018 C   0  0  0  0  0  0
   32.3805    0.9197   28.1212 C   0  0  0  0  0  0
   32.7160    0.3608   29.3542 C   0  0  0  0  0  0
   34.0401    0.3162   29.7366 C   0  0  0  0  0  0
   30.9443    0.8578   27.6438 C   0  0  2  0  0  0
   30.0259    1.6478   28.5883 C   0  0  0  0  0  0
   28.6549    1.7459   27.9291 C   0  0  0  0  0  0
   28.0937    0.3807   27.5983 C   0  0  0  0  0  0
   26.7246    0.2582   27.4151 C   0  0  0  0  0  0
   26.1677   -0.9366   27.0116 C   0  0  0  0  0  0
   26.9563   -2.0752   26.9017 C   0  0  0  0  0  0
   28.3281   -1.9753   27.1047 C   0  0  0  0  0  0
   28.9283   -0.7408   27.3968 C   0  0  0  0  0  0
   30.4534   -0.6231   27.5393 C   0  0  1  0  0  0
   31.2142   -1.3738   26.4349 C   0  0  0  0  0  0
   30.9719   -1.0763   25.0901 C   0  0  0  0  0  0
   31.6599   -1.7535   24.0906 C   0  0  0  0  0  0
   32.5839   -2.7548   24.4181 C   0  0  0  0  0  0
   32.8582   -3.0139   25.7610 C   0  0  0  0  0  0
   32.1767   -2.3316   26.7648 C   0  0  0  0  0  0
   33.2762   -3.4938   23.4812 O   0  0  0  0  0  0
   32.5861   -3.9207   22.3014 C   0  0  0  0  0  0
   33.5479   -4.2034   21.1320 C   0  0  0  0  0  0
   34.2929   -3.0068   20.7238 N   0  0  0  0  0  0
   34.7639   -3.0670   19.3479 C   0  0  0  0  0  0
   35.7997   -1.9449   19.2330 C   0  0  0  0  0  0
   36.3060   -1.7590   20.6654 C   0  0  0  0  0  0
   35.5350   -2.8160   21.4610 C   0  0  0  0  0  0
   24.8597   -0.9449   26.6460 O   0  0  0  0  0  0
   36.0376    0.7565   29.2187 H   0  0  0  0  0  0
   35.4682    1.8673   27.0724 H   0  0  0  0  0  0
   33.1047    1.9222   26.3454 H   0  0  0  0  0  0
   31.9651   -0.0711   29.9984 H   0  0  0  0  0  0
   34.3126   -0.1419   30.6641 H   0  0  0  0  0  0
   30.9107    1.3307   26.6639 H   0  0  0  0  0  0
   29.9411    1.1757   29.5680 H   0  0  0  0  0  0
   30.4119    2.6532   28.7417 H   0  0  0  0  0  0
   27.9674    2.3193   28.5508 H   0  0  0  0  0  0
   28.7451    2.2581   26.9753 H   0  0  0  0  0  0
   26.0908    1.1289   27.4816 H   0  0  0  0  0  0
   26.5175   -3.0230   26.6251 H   0  0  0  0  0  0
   28.9399   -2.8604   27.0089 H   0  0  0  0  0  0
   30.6595   -1.1461   28.4741 H   0  0  0  0  0  0
   30.2465   -0.3220   24.8220 H   0  0  0  0  0  0
   31.4613   -1.4907   23.0650 H   0  0  0  0  0  0
   33.5880   -3.7678   26.0167 H   0  0  0  0  0  0
   32.3984   -2.5486   27.7991 H   0  0  0  0  0  0
   31.8298   -3.2219   21.9469 H   0  0  0  0  0  0
   32.0473   -4.8381   22.5448 H   0  0  0  0  0  0
   32.9490   -4.5565   20.2902 H   0  0  0  0  0  0
   34.2271   -5.0176   21.3886 H   0  0  0  0  0  0
   33.9138   -2.9203   18.6789 H   0  0  0  0  0  0
   35.1678   -4.0479   19.0883 H   0  0  0  0  0  0
   35.3457   -1.0318   18.8459 H   0  0  0  0  0  0
   36.6047   -2.2250   18.5510 H   0  0  0  0  0  0
   37.3833   -1.9189   20.7406 H   0  0  0  0  0  0
   36.1034   -0.7539   21.0352 H   0  0  0  0  0  0
   36.0977   -3.7420   21.5521 H   0  0  0  0  0  0
   35.3179   -2.5422   22.4908 H   0  0  0  0  0  0
   24.6362   -1.8005   26.2357 H   0  0  0  0  0  0
  1  6  1  0  0  0
  1  2  2  0  0  0
  1 32  1  0  0  0
  2  3  1  0  0  0
  2 33  1  0  0  0
  3  4  2  0  0  0
  3 34  1  0  0  0
  4  5  1  0  0  0
  4  7  1  0  0  0
  5  6  2  0  0  0
  5 35  1  0  0  0
  6 36  1  0  0  0
  7 16  1  0  0  0
  7  8  1  0  0  0
  7 37  1  0  0  0
  8  9  1  0  0  0
  8 38  1  0  0  0
  8 39  1  0  0  0
  9 10  1  0  0  0
  9 40  1  0  0  0
  9 41  1  0  0  0
 10 15  2  0  0  0
 10 11  1  0  0  0
 11 12  2  0  0  0
 11 42  1  0  0  0
 12 13  1  0  0  0
 12 31  1  0  0  0
 13 14  2  0  0  0
 13 43  1  0  0  0
 14 15  1  0  0  0
 14 44  1  0  0  0
 15 16  1  0  0  0
 16 17  1  0  0  0
 16 45  1  0  0  0
 17 22  1  0  0  0
 17 18  2  0  0  0
 18 19  1  0  0  0
 18 46  1  0  0  0
 19 20  2  0  0  0
 19 47  1  0  0  0
 20 21  1  0  0  0
 20 23  1  0  0  0
 21 22  2  0  0  0
 21 48  1  0  0  0
 22 49  1  0  0  0
 23 24  1  0  0  0
 24 25  1  0  0  0
 24 50  1  0  0  0
 24 51  1  0  0  0
 25 26  1  0  0  0
 25 52  1  0  0  0
 25 53  1  0  0  0
 26 30  1  0  0  0
 26 27  1  0  0  0
 27 28  1  0  0  0
 27 54  1  0  0  0
 27 55  1  0  0  0
 28 29  1  0  0  0
 28 56  1  0  0  0
 28 57  1  0  0  0
 29 30  1  0  0  0
 29 58  1  0  0  0
 29 59  1  0  0  0
 30 60  1  0  0  0
 30 61  1  0  0  0
 31 62  1  0  0  0
M  END
> <s_m_entry_id>
17141

> <s_m_entry_name>
ligand_docking-pose.68

> <s_m_Source_Path>
/home/csk/Desktop/cluster/DUD-E-result/esr1

> <s_m_Source_File>
ligand_docking-pose.sdf

> <i_m_Source_File_Index>
68

> <i_lp_mmshare_version>
53161

> <i_f3d_flags>
0

> <r_lp_tautomer_probability>
0.999999999997365

> <s_lp_Force_Field>
OPLS_2005

> <r_lp_Energy>
46.420972

> <b_lp_Chiralities_Consistent>
1

> <s_lp_Variant>
149896-1

> <s_i_glide_gridfile>
glide-grid_1sj0

> <i_i_glide_lignum>
300

> <i_i_glide_rotatable_bonds>
7

> <r_i_docking_score>
-10.1591844388379

> <r_i_glide_ligand_efficiency>
-0.327715627059289

> <r_i_glide_ligand_efficiency_sa>
-1.02947952915196

> <r_i_glide_ligand_efficiency_ln>
-2.29120743257029

> <r_i_glide_gscore>
-10.1591844388379

> <r_i_glide_lipo>
-5.93879269197724

> <r_i_glide_hbond>
-0.28287690484429

> <r_i_glide_metal>
0

> <r_i_glide_rewards>
-1.16128599008514

> <r_i_glide_evdw>
-48.6689300537109

> <r_i_glide_ecoul>
-4.97693490982056

> <r_i_glide_erotb>
0.403757887227349

> <r_i_glide_esite>
0

> <r_i_glide_emodel>
-78.4022751706864

> <r_i_glide_energy>
-53.6458649635315

> <r_i_glide_einternal>
7.42418813705444

> <i_i_glide_confnum>
1

> <i_i_glide_posenum>
67

> <r_i_glide_eff_state_penalty>
0

> <s_user_duplicate_titles>
149896

> <s_m_subgroup_title>
dock_pv

> <s_m_subgroupid>
dock_pv1

> <b_m_subgroup_collapsed>
0

$$$$
160054
                    3D
 Schrodinger Suite 2021-1.
 51 54  0  0  1  0            999 V2000
   33.4602   -3.6146   21.8931 C   0  0  0  0  0  0
   33.0810   -3.1601   23.2913 C   0  0  0  0  0  0
   33.6592   -3.7417   24.4078 C   0  0  0  0  0  0
   33.2594   -3.3813   25.6925 C   0  0  0  0  0  0
   32.3457   -2.3530   25.9101 C   0  0  0  0  0  0
   31.8290   -1.6985   24.7662 C   0  0  0  0  0  0
   32.1628   -2.1404   23.4812 C   0  0  0  0  0  0
   31.0156   -0.4295   24.7924 C   0  0  0  0  0  0
   32.0631   -1.9783   27.3427 C   0  0  0  0  0  0
   32.8779   -2.1471   28.2508 O   0  0  0  0  0  0
   30.7400   -1.4744   27.6541 C   0  0  0  0  0  0
   30.3269   -0.2686   28.2312 C   0  0  0  0  0  0
   28.9713   -0.1626   27.8392 C   0  0  0  0  0  0
   28.0407    0.8709   27.8637 C   0  0  0  0  0  0
   26.7482    0.5879   27.4640 C   0  0  0  0  0  0
   26.3571   -0.6854   27.0526 C   0  0  0  0  0  0
   27.2777   -1.7255   26.9539 C   0  0  0  0  0  0
   28.5916   -1.4216   27.3278 C   0  0  0  0  0  0
   29.6855   -2.2164   27.1986 O   0  0  0  0  0  0
   25.0662   -0.8836   26.6645 O   0  0  0  0  0  0
   31.0465    0.8349   28.9764 C   0  0  0  0  0  0
   32.4879    1.0790   28.5742 C   0  0  0  0  0  0
   32.7659    1.6161   27.3189 C   0  0  0  0  0  0
   34.0776    1.8588   26.9276 C   0  0  0  0  0  0
   35.1243    1.5567   27.7963 C   0  0  0  0  0  0
   34.8535    1.0381   29.0637 C   0  0  0  0  0  0
   33.5358    0.8220   29.4652 C   0  0  0  0  0  0
   33.2715    0.4017   30.7424 O   0  0  0  0  0  0
   32.8223    1.4450   31.5972 C   0  0  0  0  0  0
   33.4647   -2.7723   21.2002 H   0  0  0  0  0  0
   34.4618   -4.0457   21.8710 H   0  0  0  0  0  0
   32.7499   -4.3580   21.5267 H   0  0  0  0  0  0
   34.3484   -4.5432   24.2693 H   0  0  0  0  0  0
   33.6599   -3.9311   26.5295 H   0  0  0  0  0  0
   31.7381   -1.6532   22.6189 H   0  0  0  0  0  0
   30.0678   -0.5301   24.2637 H   0  0  0  0  0  0
   30.8610    0.0536   25.7432 H   0  0  0  0  0  0
   31.6595    0.2579   24.2639 H   0  0  0  0  0  0
   28.3069    1.8592   28.2074 H   0  0  0  0  0  0
   26.0599    1.4100   27.4700 H   0  0  0  0  0  0
   26.9936   -2.6942   26.5673 H   0  0  0  0  0  0
   24.6095   -0.0471   26.5385 H   0  0  0  0  0  0
   30.5379    1.7886   28.8308 H   0  0  0  0  0  0
   30.9420    0.6307   30.0391 H   0  0  0  0  0  0
   31.9494    1.8584   26.6633 H   0  0  0  0  0  0
   34.2881    2.2666   25.9497 H   0  0  0  0  0  0
   36.1440    1.7322   27.4842 H   0  0  0  0  0  0
   35.6594    0.8255   29.7478 H   0  0  0  0  0  0
   32.0617    1.0577   32.2640 H   0  0  0  0  0  0
   33.6419    1.8550   32.1850 H   0  0  0  0  0  0
   32.3294    2.2577   31.0707 H   0  0  0  0  0  0
  1  2  1  0  0  0
  1 30  1  0  0  0
  1 31  1  0  0  0
  1 32  1  0  0  0
  2  7  1  0  0  0
  2  3  2  0  0  0
  3  4  1  0  0  0
  3 33  1  0  0  0
  4  5  2  0  0  0
  4 34  1  0  0  0
  5  6  1  0  0  0
  5  9  1  0  0  0
  6  7  2  0  0  0
  6  8  1  0  0  0
  7 35  1  0  0  0
  8 36  1  0  0  0
  8 37  1  0  0  0
  8 38  1  0  0  0
  9 10  2  0  0  0
  9 11  1  0  0  0
 11 19  1  0  0  0
 11 12  2  0  0  0
 12 13  1  0  0  0
 12 21  1  0  0  0
 13 18  2  0  0  0
 13 14  1  0  0  0
 14 15  2  0  0  0
 14 39  1  0  0  0
 15 16  1  0  0  0
 15 40  1  0  0  0
 16 17  2  0  0  0
 16 20  1  0  0  0
 17 18  1  0  0  0
 17 41  1  0  0  0
 18 19  1  0  0  0
 20 42  1  0  0  0
 21 22  1  0  0  0
 21 43  1  0  0  0
 21 44  1  0  0  0
 22 27  1  0  0  0
 22 23  2  0  0  0
 23 24  1  0  0  0
 23 45  1  0  0  0
 24 25  2  0  0  0
 24 46  1  0  0  0
 25 26  1  0  0  0
 25 47  1  0  0  0
 26 27  2  0  0  0
 26 48  1  0  0  0
 27 28  1  0  0  0
 28 29  1  0  0  0
 29 49  1  0  0  0
 29 50  1  0  0  0
 29 51  1  0  0  0
M  END
> <s_m_entry_id>
17142

> <s_m_entry_name>
ligand_docking-pose.69

> <s_m_Source_Path>
/home/csk/Desktop/cluster/DUD-E-result/esr1

> <s_m_Source_File>
ligand_docking-pose.sdf

> <i_m_Source_File_Index>
69

> <i_lp_mmshare_version>
53161

> <i_f3d_flags>
0

> <r_lp_tautomer_probability>
1

> <s_lp_Force_Field>
OPLS_2005

> <r_lp_Energy>
24.370485

> <b_lp_Chiralities_Consistent>
1

> <s_lp_Variant>
160054-1

> <s_i_glide_gridfile>
glide-grid_1sj0

> <i_i_glide_lignum>
995

> <i_i_glide_rotatable_bonds>
6

> <r_i_docking_score>
-10.1397958794229

> <r_i_glide_ligand_efficiency>
-0.349648133773204

> <r_i_glide_ligand_efficiency_sa>
-1.07422984325532

> <r_i_glide_ligand_efficiency_ln>
-2.32175613334953

> <r_i_glide_gscore>
-10.1397958794229

> <r_i_glide_lipo>
-5.93528497821619

> <r_i_glide_hbond>
-0.187808618204152

> <r_i_glide_metal>
0

> <r_i_glide_rewards>
-2.03306418939495

> <r_i_glide_evdw>
-45.3731842041016

> <r_i_glide_ecoul>
-1.57541215419769

> <r_i_glide_erotb>
0.521332939727096

> <r_i_glide_esite>
0

> <r_i_glide_emodel>
-57.8063493002619

> <r_i_glide_energy>
-46.9485963582993

> <r_i_glide_einternal>
17.3777332305908

> <i_i_glide_confnum>
17

> <i_i_glide_posenum>
33

> <r_i_glide_eff_state_penalty>
0

> <s_user_duplicate_titles>
160054

> <s_m_subgroup_title>
dock_pv

> <s_m_subgroupid>
dock_pv1

> <b_m_subgroup_collapsed>
0

$$$$
308629
                    3D
 Schrodinger Suite 2021-1.
 81 82  0  0  1  0            999 V2000
   38.1837    0.0662   14.7760 C   0  0  0  0  0  0
   38.6622   -0.5291   16.1083 C   0  0  0  0  0  0
   37.5093   -1.1067   16.9491 C   0  0  0  0  0  0
   37.9773   -1.7044   18.2915 C   0  0  0  0  0  0
   36.8631   -2.3435   19.1427 C   0  0  0  0  0  0
   35.3625   -1.3507   19.4514 S   0  0  0  0  0  0
   34.2971   -1.8283   18.0485 C   0  0  0  0  0  0
   32.8490   -2.2433   18.3833 C   0  0  0  0  0  0
   32.6677   -3.6393   19.0123 C   0  0  0  0  0  0
   33.2226   -3.7770   20.3689 N   0  0  0  0  0  0
   34.4600   -4.5420   20.4242 C   0  0  0  0  0  0
   32.5116   -3.4242   21.4711 C   0  0  0  0  0  0
   31.3840   -2.9420   21.3691 O   0  0  0  0  0  0
   33.0508   -3.7196   22.8969 C   0  0  0  0  0  0
   32.9943   -2.5746   23.9526 C   0  0  0  0  0  0
   31.6593   -1.8131   24.0425 C   0  0  0  0  0  0
   31.4550   -0.9232   25.2775 C   0  0  0  0  0  0
   31.2952   -1.6909   26.6120 C   0  0  0  0  0  0
   30.3843   -0.9888   27.6478 C   0  0  0  0  0  0
   30.8423    0.0755   28.3774 C   0  0  0  0  0  0
   30.0602    0.9413   29.3770 C   0  0  0  0  0  0
   30.6710    1.0101   30.7895 C   0  0  0  0  0  0
   32.2299    0.5334   28.2084 C   0  0  0  0  0  0
   32.4619    1.5088   27.2494 C   0  0  0  0  0  0
   33.7474    1.9645   27.0072 C   0  0  0  0  0  0
   34.7965    1.4520   27.7581 C   0  0  0  0  0  0
   34.5752    0.5072   28.7597 C   0  0  0  0  0  0
   33.2820    0.0432   28.9877 C   0  0  0  0  0  0
   36.0600    1.8577   27.4640 O   0  0  0  0  0  0
   29.0030   -1.5576   27.7293 C   0  0  0  0  0  0
   27.8405   -0.7736   27.6757 C   0  0  0  0  0  0
   26.5815   -1.3635   27.8267 C   0  0  0  0  0  0
   26.4790   -2.7435   28.0110 C   0  0  0  0  0  0
   27.6140   -3.5368   27.9983 C   0  0  0  0  0  0
   28.8596   -2.9430   27.8703 C   0  0  0  0  0  0
   25.2760   -3.3417   28.2640 O   0  0  0  0  0  0
   39.0187    0.4734   14.2051 H   0  0  0  0  0  0
   37.6966   -0.6895   14.1589 H   0  0  0  0  0  0
   37.4723    0.8766   14.9418 H   0  0  0  0  0  0
   39.1815    0.2453   16.6748 H   0  0  0  0  0  0
   39.3977   -1.3089   15.9074 H   0  0  0  0  0  0
   36.9894   -1.8753   16.3750 H   0  0  0  0  0  0
   36.7812   -0.3152   17.1345 H   0  0  0  0  0  0
   38.4803   -0.9421   18.8845 H   0  0  0  0  0  0
   38.7372   -2.4634   18.0976 H   0  0  0  0  0  0
   37.2710   -2.6420   20.1101 H   0  0  0  0  0  0
   36.5627   -3.2713   18.6580 H   0  0  0  0  0  0
   34.7741   -2.6046   17.4496 H   0  0  0  0  0  0
   34.2504   -0.9493   17.4062 H   0  0  0  0  0  0
   32.2730   -2.2213   17.4584 H   0  0  0  0  0  0
   32.3779   -1.5048   19.0233 H   0  0  0  0  0  0
   33.1323   -4.3771   18.3552 H   0  0  0  0  0  0
   31.6067   -3.8984   19.0236 H   0  0  0  0  0  0
   35.1635   -4.1419   21.1550 H   0  0  0  0  0  0
   34.2404   -5.5846   20.6638 H   0  0  0  0  0  0
   34.9759   -4.5372   19.4647 H   0  0  0  0  0  0
   34.0583   -4.1271   22.9026 H   0  0  0  0  0  0
   32.4267   -4.5406   23.2469 H   0  0  0  0  0  0
   33.7941   -1.8572   23.7816 H   0  0  0  0  0  0
   33.2166   -3.0172   24.9248 H   0  0  0  0  0  0
   30.8601   -2.5419   24.0071 H   0  0  0  0  0  0
   31.5502   -1.1865   23.1569 H   0  0  0  0  0  0
   30.5623   -0.3197   25.1059 H   0  0  0  0  0  0
   32.2829   -0.2184   25.3357 H   0  0  0  0  0  0
   32.2809   -1.8654   27.0461 H   0  0  0  0  0  0
   30.9442   -2.6979   26.3931 H   0  0  0  0  0  0
   30.0180    1.9520   28.9678 H   0  0  0  0  0  0
   29.0190    0.6581   29.4638 H   0  0  0  0  0  0
   29.9808    1.4579   31.5017 H   0  0  0  0  0  0
   30.9045    0.0123   31.1621 H   0  0  0  0  0  0
   31.5888    1.5979   30.8040 H   0  0  0  0  0  0
   31.6314    1.8586   26.6641 H   0  0  0  0  0  0
   33.9360    2.6864   26.2279 H   0  0  0  0  0  0
   35.4008    0.1168   29.3386 H   0  0  0  0  0  0
   33.1022   -0.7041   29.7479 H   0  0  0  0  0  0
   36.7346    1.4935   28.0609 H   0  0  0  0  0  0
   27.9073    0.2940   27.5269 H   0  0  0  0  0  0
   25.6922   -0.7515   27.8236 H   0  0  0  0  0  0
   27.5335   -4.6044   28.1294 H   0  0  0  0  0  0
   29.7139   -3.5959   27.9062 H   0  0  0  0  0  0
   24.8794   -3.5794   27.4043 H   0  0  0  0  0  0
  1  2  1  0  0  0
  1 37  1  0  0  0
  1 38  1  0  0  0
  1 39  1  0  0  0
  2  3  1  0  0  0
  2 40  1  0  0  0
  2 41  1  0  0  0
  3  4  1  0  0  0
  3 42  1  0  0  0
  3 43  1  0  0  0
  4  5  1  0  0  0
  4 44  1  0  0  0
  4 45  1  0  0  0
  5  6  1  0  0  0
  5 46  1  0  0  0
  5 47  1  0  0  0
  6  7  1  0  0  0
  7  8  1  0  0  0
  7 48  1  0  0  0
  7 49  1  0  0  0
  8  9  1  0  0  0
  8 50  1  0  0  0
  8 51  1  0  0  0
  9 10  1  0  0  0
  9 52  1  0  0  0
  9 53  1  0  0  0
 10 11  1  0  0  0
 10 12  1  0  0  0
 11 54  1  0  0  0
 11 55  1  0  0  0
 11 56  1  0  0  0
 12 13  2  0  0  0
 12 14  1  0  0  0
 14 15  1  0  0  0
 14 57  1  0  0  0
 14 58  1  0  0  0
 15 16  1  0  0  0
 15 59  1  0  0  0
 15 60  1  0  0  0
 16 17  1  0  0  0
 16 61  1  0  0  0
 16 62  1  0  0  0
 17 18  1  0  0  0
 17 63  1  0  0  0
 17 64  1  0  0  0
 18 19  1  0  0  0
 18 65  1  0  0  0
 18 66  1  0  0  0
 19 20  2  0  0  0
 19 30  1  0  0  0
 20 21  1  0  0  0
 20 23  1  0  0  0
 21 22  1  0  0  0
 21 67  1  0  0  0
 21 68  1  0  0  0
 22 69  1  0  0  0
 22 70  1  0  0  0
 22 71  1  0  0  0
 23 28  1  0  0  0
 23 24  2  0  0  0
 24 25  1  0  0  0
 24 72  1  0  0  0
 25 26  2  0  0  0
 25 73  1  0  0  0
 26 27  1  0  0  0
 26 29  1  0  0  0
 27 28  2  0  0  0
 27 74  1  0  0  0
 28 75  1  0  0  0
 29 76  1  0  0  0
 30 35  1  0  0  0
 30 31  2  0  0  0
 31 32  1  0  0  0
 31 77  1  0  0  0
 32 33  2  0  0  0
 32 78  1  0  0  0
 33 34  1  0  0  0
 33 36  1  0  0  0
 34 35  2  0  0  0
 34 79  1  0  0  0
 35 80  1  0  0  0
 36 81  1  0  0  0
M  END
> <s_m_entry_id>
17143

> <s_m_entry_name>
ligand_docking-pose.70

> <s_m_Source_Path>
/home/csk/Desktop/cluster/DUD-E-result/esr1

> <s_m_Source_File>
ligand_docking-pose.sdf

> <i_m_Source_File_Index>
70

> <i_lp_mmshare_version>
53161

> <i_f3d_flags>
0

> <r_lp_tautomer_probability>
1

> <s_lp_Force_Field>
OPLS_2005

> <r_lp_Energy>
30.090309

> <b_lp_Chiralities_Consistent>
1

> <s_lp_Variant>
308629-1

> <s_i_glide_gridfile>
glide-grid_1sj0

> <i_i_glide_lignum>
1451

> <i_i_glide_rotatable_bonds>
20

> <r_i_docking_score>
-10.1334587294178

> <r_i_glide_ligand_efficiency>
-0.281484964706051

> <r_i_glide_ligand_efficiency_sa>
-0.929442874006827

> <r_i_glide_ligand_efficiency_ln>
-2.21084692034264

> <r_i_glide_gscore>
-10.1334587294178

> <r_i_glide_lipo>
-5.62655165958232

> <r_i_glide_hbond>
-0.45929920813085

> <r_i_glide_metal>
0

> <r_i_glide_rewards>
-0.896952641818634

> <r_i_glide_evdw>
-48.352725982666

> <r_i_glide_ecoul>
-10.290355682373

> <r_i_glide_erotb>
0.931248929927074

> <r_i_glide_esite>
-0.120714498323849

> <r_i_glide_emodel>
-80.4684998766746

> <r_i_glide_energy>
-58.6430816650391

> <r_i_glide_einternal>
14.2792711257935

> <i_i_glide_confnum>
12

> <i_i_glide_posenum>
206

> <r_i_glide_eff_state_penalty>
0

> <s_user_duplicate_titles>
308629

> <s_m_subgroup_title>
dock_pv

> <s_m_subgroupid>
dock_pv1

> <b_m_subgroup_collapsed>
0

$$$$
328945
                    3D
 Schrodinger Suite 2021-1.
 61 65  0  0  1  0            999 V2000
   32.6141    1.1083   26.8426 C   0  0  0  0  0  0
   33.8709    1.6514   26.9501 C   0  0  0  0  0  0
   34.4877    1.6379   28.1841 C   0  0  0  0  0  0
   33.9094    1.0620   29.3124 C   0  0  0  0  0  0
   32.6039    0.6028   29.2212 C   0  0  0  0  0  0
   31.9603    0.6509   27.9862 C   0  0  0  0  0  0
   30.5852    0.2248   27.8444 C   0  0  0  0  0  0
   30.1925   -0.6697   26.9264 C   0  0  0  0  0  0
   28.7503   -0.6878   26.9091 C   0  0  0  0  0  0
   27.9015   -1.4804   26.1821 C   0  0  0  0  0  0
   26.5418   -1.3417   26.2809 C   0  0  0  0  0  0
   26.0137   -0.3319   27.0640 C   0  0  0  0  0  0
   26.8717    0.5375   27.7431 C   0  0  0  0  0  0
   28.2507    0.3140   27.7202 C   0  0  0  0  0  0
   29.4048    1.0004   28.3978 C   0  0  0  0  0  0
   24.6656   -0.1421   27.0633 O   0  0  0  0  0  0
   31.0469   -1.4466   26.0025 C   0  0  0  0  0  0
   30.8574   -1.2644   24.6319 C   0  0  0  0  0  0
   31.6609   -1.9246   23.7150 C   0  0  0  0  0  0
   32.6588   -2.7941   24.1553 C   0  0  0  0  0  0
   32.8724   -2.9544   25.5245 C   0  0  0  0  0  0
   32.0720   -2.2846   26.4496 C   0  0  0  0  0  0
   33.4786   -3.4737   23.2839 O   0  0  0  0  0  0
   32.8862   -4.0504   22.1134 C   0  0  0  0  0  0
   34.0035   -4.4336   21.1288 C   0  0  0  0  0  0
   34.2457   -3.4506   20.0653 N   0  0  0  0  0  0
   35.1091   -4.0386   19.0271 C   0  0  0  0  0  0
   35.3586   -3.0673   17.8537 C   0  0  0  0  0  0
   35.8864   -1.7065   18.3321 C   0  0  0  0  0  0
   34.9580   -1.1637   19.4254 C   0  0  0  0  0  0
   34.7654   -2.1718   20.5737 C   0  0  0  0  0  0
   35.6597    2.2868   28.2640 O   0  0  0  0  0  0
   32.1454    1.0580   25.8717 H   0  0  0  0  0  0
   34.3647    2.0783   26.0888 H   0  0  0  0  0  0
   34.4239    1.0625   30.2613 H   0  0  0  0  0  0
   32.1000    0.2190   30.0964 H   0  0  0  0  0  0
   28.2910   -2.1414   25.4632 H   0  0  0  0  0  0
   25.9510   -1.9550   25.6401 H   0  0  0  0  0  0
   26.4614    1.3839   28.2640 H   0  0  0  0  0  0
   29.3473    0.9386   29.4806 H   0  0  0  0  0  0
   29.4620    2.0572   28.1346 H   0  0  0  0  0  0
   24.4612    0.8080   27.0643 H   0  0  0  0  0  0
   30.0922   -0.5908   24.2712 H   0  0  0  0  0  0
   31.5072   -1.7488   22.6647 H   0  0  0  0  0  0
   33.6559   -3.6139   25.8636 H   0  0  0  0  0  0
   32.2469   -2.4167   27.5075 H   0  0  0  0  0  0
   32.1617   -3.4155   21.6053 H   0  0  0  0  0  0
   32.3425   -4.9452   22.4190 H   0  0  0  0  0  0
   33.7637   -5.4064   20.6935 H   0  0  0  0  0  0
   34.9274   -4.5414   21.6930 H   0  0  0  0  0  0
   34.6318   -4.9420   18.6426 H   0  0  0  0  0  0
   36.0564   -4.3556   19.4653 H   0  0  0  0  0  0
   34.4412   -2.9555   17.2738 H   0  0  0  0  0  0
   36.0772   -3.5140   17.1662 H   0  0  0  0  0  0
   36.8987   -1.8141   18.7247 H   0  0  0  0  0  0
   35.9460   -1.0054   17.4982 H   0  0  0  0  0  0
   35.3491   -0.2238   19.8174 H   0  0  0  0  0  0
   33.9804   -0.9402   18.9996 H   0  0  0  0  0  0
   34.0777   -1.7495   21.3058 H   0  0  0  0  0  0
   35.7054   -2.3479   21.1005 H   0  0  0  0  0  0
   36.3355    1.8473   28.7975 H   0  0  0  0  0  0
  1  6  1  0  0  0
  1  2  2  0  0  0
  1 33  1  0  0  0
  2  3  1  0  0  0
  2 34  1  0  0  0
  3  4  2  0  0  0
  3 32  1  0  0  0
  4  5  1  0  0  0
  4 35  1  0  0  0
  5  6  2  0  0  0
  5 36  1  0  0  0
  6  7  1  0  0  0
  7 15  1  0  0  0
  7  8  2  0  0  0
  8  9  1  0  0  0
  8 17  1  0  0  0
  9 14  2  0  0  0
  9 10  1  0  0  0
 10 11  2  0  0  0
 10 37  1  0  0  0
 11 12  1  0  0  0
 11 38  1  0  0  0
 12 13  2  0  0  0
 12 16  1  0  0  0
 13 14  1  0  0  0
 13 39  1  0  0  0
 14 15  1  0  0  0
 15 40  1  0  0  0
 15 41  1  0  0  0
 16 42  1  0  0  0
 17 22  1  0  0  0
 17 18  2  0  0  0
 18 19  1  0  0  0
 18 43  1  0  0  0
 19 20  2  0  0  0
 19 44  1  0  0  0
 20 21  1  0  0  0
 20 23  1  0  0  0
 21 22  2  0  0  0
 21 45  1  0  0  0
 22 46  1  0  0  0
 23 24  1  0  0  0
 24 25  1  0  0  0
 24 47  1  0  0  0
 24 48  1  0  0  0
 25 26  1  0  0  0
 25 49  1  0  0  0
 25 50  1  0  0  0
 26 31  1  0  0  0
 26 27  1  0  0  0
 27 28  1  0  0  0
 27 51  1  0  0  0
 27 52  1  0  0  0
 28 29  1  0  0  0
 28 53  1  0  0  0
 28 54  1  0  0  0
 29 30  1  0  0  0
 29 55  1  0  0  0
 29 56  1  0  0  0
 30 31  1  0  0  0
 30 57  1  0  0  0
 30 58  1  0  0  0
 31 59  1  0  0  0
 31 60  1  0  0  0
 32 61  1  0  0  0
M  END
> <s_m_entry_id>
17144

> <s_m_entry_name>
ligand_docking-pose.71

> <s_m_Source_Path>
/home/csk/Desktop/cluster/DUD-E-result/esr1

> <s_m_Source_File>
ligand_docking-pose.sdf

> <i_m_Source_File_Index>
71

> <i_lp_mmshare_version>
53161

> <i_f3d_flags>
0

> <r_lp_tautomer_probability>
1

> <s_lp_Force_Field>
OPLS_2005

> <r_lp_Energy>
58.190132

> <b_lp_Chiralities_Consistent>
1

> <s_lp_Variant>
328945-1

> <s_i_glide_gridfile>
glide-grid_1sj0

> <i_i_glide_lignum>
225

> <i_i_glide_rotatable_bonds>
8

> <r_i_docking_score>
-10.1328014627487

> <r_i_glide_ligand_efficiency>
-0.316650045710896

> <r_i_glide_ligand_efficiency_sa>
-1.00530123017314

> <r_i_glide_ligand_efficiency_ln>
-2.26901045724537

> <r_i_glide_gscore>
-10.1328014627487

> <r_i_glide_lipo>
-5.63888801575931

> <r_i_glide_hbond>
-0.645456407638814

> <r_i_glide_metal>
0

> <r_i_glide_rewards>
-1.00361810095051

> <r_i_glide_evdw>
-34.2985038757324

> <r_i_glide_ecoul>
-11.1537065505981

> <r_i_glide_erotb>
0.54314223797629

> <r_i_glide_esite>
0

> <r_i_glide_emodel>
-44.354899747667

> <r_i_glide_energy>
-45.4522104263306

> <r_i_glide_einternal>
17.5310211181641

> <i_i_glide_confnum>
2

> <i_i_glide_posenum>
27

> <r_i_glide_eff_state_penalty>
0

> <s_user_duplicate_titles>
328945

> <s_m_subgroup_title>
dock_pv

> <s_m_subgroupid>
dock_pv1

> <b_m_subgroup_collapsed>
0

$$$$
303654
                    3D
 Schrodinger Suite 2021-1.
 60 64  0  0  1  0            999 V2000
   35.2600    0.3887   28.2640 C   0  0  0  0  0  0
   34.5494    1.4012   27.6275 C   0  0  0  0  0  0
   33.1650    1.4179   27.7357 C   0  0  0  0  0  0
   32.5101    0.4325   28.4891 C   0  0  0  0  0  0
   33.2468   -0.5240   29.1874 C   0  0  0  0  0  0
   34.6254   -0.5444   29.0649 C   0  0  0  0  0  0
   30.9907    0.3542   28.5296 C   0  0  2  0  0  0
   30.4148   -0.9820   27.9433 C   0  0  1  0  0  0
   28.8929   -0.9000   27.7762 C   0  0  0  0  0  0
   28.1221   -2.0459   27.5353 C   0  0  0  0  0  0
   26.7601   -1.9463   27.2545 C   0  0  0  0  0  0
   26.1616   -0.6926   27.1749 C   0  0  0  0  0  0
   26.9018    0.4418   27.4638 C   0  0  0  0  0  0
   28.2521    0.3537   27.7850 C   0  0  0  0  0  0
   29.0308    1.6179   28.0836 C   0  0  0  0  0  0
   30.4148    1.4647   27.8513 O   0  0  0  0  0  0
   24.8596   -0.5420   26.7938 O   0  0  0  0  0  0
   31.0839   -1.4218   26.6262 C   0  0  0  0  0  0
   30.8664   -0.6948   25.4542 C   0  0  0  0  0  0
   31.4800   -1.0854   24.2690 C   0  0  0  0  0  0
   32.3151   -2.1960   24.2257 C   0  0  0  0  0  0
   32.5323   -2.9329   25.3949 C   0  0  0  0  0  0
   31.9210   -2.5429   26.5833 C   0  0  0  0  0  0
   32.8943   -2.4591   23.0040 O   0  0  0  0  0  0
   33.3905   -3.7613   22.6970 C   0  0  0  0  0  0
   34.2623   -3.7078   21.4208 C   0  0  0  0  0  0
   33.6740   -2.9185   20.3336 N   0  0  0  0  0  0
   34.5245   -2.8180   19.1575 C   0  0  0  0  0  0
   33.6165   -2.2499   18.0624 C   0  0  0  0  0  0
   32.2047   -2.6601   18.4942 C   0  0  0  0  0  0
   32.4241   -3.4362   19.7953 C   0  0  0  0  0  0
   30.7365    0.4393   29.5894 H   0  0  0  0  0  0
   30.6133   -1.7711   28.6706 H   0  0  0  0  0  0
   36.3177    0.2667   28.0950 H   0  0  0  0  0  0
   35.0638    2.1231   27.0093 H   0  0  0  0  0  0
   32.6100    2.1703   27.1958 H   0  0  0  0  0  0
   32.7546   -1.2803   29.7809 H   0  0  0  0  0  0
   35.2030   -1.3197   29.5463 H   0  0  0  0  0  0
   28.5912   -3.0199   27.5301 H   0  0  0  0  0  0
   26.1800   -2.8370   27.0634 H   0  0  0  0  0  0
   26.4365    1.4155   27.4337 H   0  0  0  0  0  0
   28.8745    1.9096   29.1233 H   0  0  0  0  0  0
   28.6610    2.4271   27.4648 H   0  0  0  0  0  0
   24.6303    0.3873   26.6641 H   0  0  0  0  0  0
   30.2226    0.1726   25.4624 H   0  0  0  0  0  0
   31.3073   -0.5390   23.3592 H   0  0  0  0  0  0
   33.1818   -3.7929   25.4111 H   0  0  0  0  0  0
   32.1164   -3.1240   27.4642 H   0  0  0  0  0  0
   32.5521   -4.4471   22.5597 H   0  0  0  0  0  0
   34.0087   -4.1654   23.4974 H   0  0  0  0  0  0
   34.4602   -4.7235   21.0737 H   0  0  0  0  0  0
   35.2297   -3.2747   21.6801 H   0  0  0  0  0  0
   34.9707   -3.7775   18.8855 H   0  0  0  0  0  0
   35.3674   -2.1640   19.3862 H   0  0  0  0  0  0
   33.8765   -2.6596   17.0861 H   0  0  0  0  0  0
   33.7129   -1.1650   17.9994 H   0  0  0  0  0  0
   31.5679   -1.7901   18.6612 H   0  0  0  0  0  0
   31.7146   -3.2847   17.7464 H   0  0  0  0  0  0
   31.6241   -3.2768   20.5202 H   0  0  0  0  0  0
   32.4643   -4.5155   19.6394 H   0  0  0  0  0  0
  1  6  1  0  0  0
  1  2  2  0  0  0
  1 34  1  0  0  0
  2  3  1  0  0  0
  2 35  1  0  0  0
  3  4  2  0  0  0
  3 36  1  0  0  0
  4  5  1  0  0  0
  4  7  1  0  0  0
  5  6  2  0  0  0
  5 37  1  0  0  0
  6 38  1  0  0  0
  7 32  1  0  0  0
  7 16  1  0  0  0
  7  8  1  0  0  0
  8 33  1  0  0  0
  8  9  1  0  0  0
  8 18  1  0  0  0
  9 14  2  0  0  0
  9 10  1  0  0  0
 10 11  2  0  0  0
 10 39  1  0  0  0
 11 12  1  0  0  0
 11 40  1  0  0  0
 12 13  2  0  0  0
 12 17  1  0  0  0
 13 14  1  0  0  0
 13 41  1  0  0  0
 14 15  1  0  0  0
 15 16  1  0  0  0
 15 42  1  0  0  0
 15 43  1  0  0  0
 17 44  1  0  0  0
 18 23  1  0  0  0
 18 19  2  0  0  0
 19 20  1  0  0  0
 19 45  1  0  0  0
 20 21  2  0  0  0
 20 46  1  0  0  0
 21 22  1  0  0  0
 21 24  1  0  0  0
 22 23  2  0  0  0
 22 47  1  0  0  0
 23 48  1  0  0  0
 24 25  1  0  0  0
 25 26  1  0  0  0
 25 49  1  0  0  0
 25 50  1  0  0  0
 26 27  1  0  0  0
 26 51  1  0  0  0
 26 52  1  0  0  0
 27 31  1  0  0  0
 27 28  1  0  0  0
 28 29  1  0  0  0
 28 53  1  0  0  0
 28 54  1  0  0  0
 29 30  1  0  0  0
 29 55  1  0  0  0
 29 56  1  0  0  0
 30 31  1  0  0  0
 30 57  1  0  0  0
 30 58  1  0  0  0
 31 59  1  0  0  0
 31 60  1  0  0  0
M  END
> <s_m_entry_id>
17145

> <s_m_entry_name>
ligand_docking-pose.72

> <s_m_Source_Path>
/home/csk/Desktop/cluster/DUD-E-result/esr1

> <s_m_Source_File>
ligand_docking-pose.sdf

> <i_m_Source_File_Index>
72

> <i_lp_mmshare_version>
53161

> <i_f3d_flags>
0

> <r_lp_tautomer_probability>
0.999999999997365

> <s_lp_Force_Field>
OPLS_2005

> <r_lp_Energy>
44.852939

> <b_lp_Chiralities_Consistent>
1

> <s_lp_Variant>
303654-1

> <s_i_glide_gridfile>
glide-grid_1sj0

> <i_i_glide_lignum>
487

> <i_i_glide_rotatable_bonds>
7

> <r_i_docking_score>
-10.1262593122046

> <r_i_glide_ligand_efficiency>
-0.326653526200149

> <r_i_glide_ligand_efficiency_sa>
-1.02614306606599

> <r_i_glide_ligand_efficiency_ln>
-2.28378180748053

> <r_i_glide_gscore>
-10.1262593122046

> <r_i_glide_lipo>
-5.59891846667956

> <r_i_glide_hbond>
-0.382052650672703

> <r_i_glide_metal>
0

> <r_i_glide_rewards>
-1.43591555789317

> <r_i_glide_evdw>
-48.967399597168

> <r_i_glide_ecoul>
-5.55242872238159

> <r_i_glide_erotb>
0.571861651256446

> <r_i_glide_esite>
0

> <r_i_glide_emodel>
-84.1571367164218

> <r_i_glide_energy>
-54.5198283195496

> <r_i_glide_einternal>
6.18698835372925

> <i_i_glide_confnum>
6

> <i_i_glide_posenum>
23

> <r_i_glide_eff_state_penalty>
0

> <s_user_duplicate_titles>
303654

> <s_m_subgroup_title>
dock_pv

> <s_m_subgroupid>
dock_pv1

> <b_m_subgroup_collapsed>
0

$$$$
90721
                    3D
 Schrodinger Suite 2021-1.
 55 58  0  0  1  0            999 V2000
   30.4718    1.2063   30.0395 C   0  0  0  0  0  0
   31.4666    0.6680   31.0810 C   0  0  0  0  0  0
   31.7935   -0.8447   30.9902 C   0  0  0  0  0  0
   32.4859   -1.2576   29.7528 N   0  0  0  0  0  0
   33.8398   -0.7422   29.6294 C   0  0  0  0  0  0
   33.9811    0.4046   28.6432 C   0  0  0  0  0  0
   35.2598    0.7966   28.3216 C   0  0  0  0  0  0
   35.4384    1.7732   27.3541 C   0  0  0  0  0  0
   34.3253    2.2581   26.6704 C   0  0  0  0  0  0
   33.0622    1.8591   27.0803 C   0  0  0  0  0  0
   32.8828    0.9682   28.0720 N   0  0  0  0  0  0
   31.8002   -1.7057   28.5929 C   0  0  0  0  0  0
   32.4613   -1.9999   27.3773 C   0  0  0  0  0  0
   31.7255   -2.0395   26.1795 C   0  0  0  0  0  0
   30.3624   -1.7846   26.2641 C   0  0  0  0  0  0
   29.7680   -1.6577   27.5035 C   0  0  0  0  0  0
   30.4507   -1.6756   28.6568 N   0  0  0  0  0  0
   28.3698   -1.2951   27.5993 C   0  0  0  0  0  0
   27.3838   -2.2773   27.5895 C   0  0  0  0  0  0
   26.0597   -1.8880   27.4904 C   0  0  0  0  0  0
   25.7528   -0.5420   27.3529 C   0  0  0  0  0  0
   26.7309    0.4374   27.4638 C   0  0  0  0  0  0
   28.0513    0.0595   27.5708 C   0  0  0  0  0  0
   24.4858   -0.1420   27.0640 O   0  0  0  0  0  0
   32.3035   -2.3925   24.8544 C   0  0  0  0  0  0
   33.3010   -3.3581   24.7809 C   0  0  0  0  0  0
   33.6570   -3.9061   23.5549 C   0  0  0  0  0  0
   33.0686   -3.4693   22.3820 C   0  0  0  0  0  0
   32.1172   -2.4677   22.4326 C   0  0  0  0  0  0
   31.7519   -1.9092   23.6567 C   0  0  0  0  0  0
   30.6429    2.2580   29.8634 H   0  0  0  0  0  0
   30.5838    0.7581   29.0625 H   0  0  0  0  0  0
   29.4380    1.0648   30.3399 H   0  0  0  0  0  0
   31.1039    0.9164   32.0773 H   0  0  0  0  0  0
   32.3957    1.2307   30.9870 H   0  0  0  0  0  0
   30.8602   -1.3984   31.0442 H   0  0  0  0  0  0
   32.3585   -1.1800   31.8628 H   0  0  0  0  0  0
   34.5179   -1.5605   29.3843 H   0  0  0  0  0  0
   34.1565   -0.3365   30.5880 H   0  0  0  0  0  0
   36.0601    0.2903   28.8133 H   0  0  0  0  0  0
   36.4348    2.0718   27.0642 H   0  0  0  0  0  0
   34.4472    2.9573   25.8610 H   0  0  0  0  0  0
   32.1696    2.2568   26.6317 H   0  0  0  0  0  0
   33.5346   -2.0925   27.3417 H   0  0  0  0  0  0
   29.7392   -1.7421   25.3843 H   0  0  0  0  0  0
   27.6402   -3.3271   27.6121 H   0  0  0  0  0  0
   25.2786   -2.6318   27.4642 H   0  0  0  0  0  0
   26.4790    1.4838   27.3899 H   0  0  0  0  0  0
   28.8242    0.8141   27.5704 H   0  0  0  0  0  0
   24.4591    0.8335   27.0554 H   0  0  0  0  0  0
   33.7004   -3.7969   25.6811 H   0  0  0  0  0  0
   34.2942   -4.7628   23.5193 H   0  0  0  0  0  0
   33.3225   -3.9343   21.4395 H   0  0  0  0  0  0
   31.6580   -2.1422   21.5135 H   0  0  0  0  0  0
   30.9863   -1.1478   23.6690 H   0  0  0  0  0  0
  1  2  1  0  0  0
  1 31  1  0  0  0
  1 32  1  0  0  0
  1 33  1  0  0  0
  2  3  1  0  0  0
  2 34  1  0  0  0
  2 35  1  0  0  0
  3  4  1  0  0  0
  3 36  1  0  0  0
  3 37  1  0  0  0
  4  5  1  0  0  0
  4 12  1  0  0  0
  5  6  1  0  0  0
  5 38  1  0  0  0
  5 39  1  0  0  0
  6 11  1  0  0  0
  6  7  2  0  0  0
  7  8  1  0  0  0
  7 40  1  0  0  0
  8  9  2  0  0  0
  8 41  1  0  0  0
  9 10  1  0  0  0
  9 42  1  0  0  0
 10 11  2  0  0  0
 10 43  1  0  0  0
 12 17  1  0  0  0
 12 13  2  0  0  0
 13 14  1  0  0  0
 13 44  1  0  0  0
 14 15  2  0  0  0
 14 25  1  0  0  0
 15 16  1  0  0  0
 15 45  1  0  0  0
 16 17  2  0  0  0
 16 18  1  0  0  0
 18 23  1  0  0  0
 18 19  2  0  0  0
 19 20  1  0  0  0
 19 46  1  0  0  0
 20 21  2  0  0  0
 20 47  1  0  0  0
 21 22  1  0  0  0
 21 24  1  0  0  0
 22 23  2  0  0  0
 22 48  1  0  0  0
 23 49  1  0  0  0
 24 50  1  0  0  0
 25 30  1  0  0  0
 25 26  2  0  0  0
 26 27  1  0  0  0
 26 51  1  0  0  0
 27 28  2  0  0  0
 27 52  1  0  0  0
 28 29  1  0  0  0
 28 53  1  0  0  0
 29 30  2  0  0  0
 29 54  1  0  0  0
 30 55  1  0  0  0
M  END
> <s_m_entry_id>
17147

> <s_m_entry_name>
ligand_docking-pose.74

> <s_m_Source_Path>
/home/csk/Desktop/cluster/DUD-E-result/esr1

> <s_m_Source_File>
ligand_docking-pose.sdf

> <i_m_Source_File_Index>
74

> <i_lp_mmshare_version>
53161

> <i_f3d_flags>
0

> <r_lp_tautomer_probability>
0.999999999997365

> <s_lp_Force_Field>
OPLS_2005

> <r_lp_Energy>
19.461794

> <b_lp_Chiralities_Consistent>
1

> <s_lp_Variant>
90721-1

> <s_i_glide_gridfile>
glide-grid_1sj0

> <i_i_glide_lignum>
1544

> <i_i_glide_rotatable_bonds>
8

> <r_i_docking_score>
-10.072697958239

> <r_i_glide_ligand_efficiency>
-0.335756598607966

> <r_i_glide_ligand_efficiency_sa>
-1.04327381610038

> <r_i_glide_ligand_efficiency_ln>
-2.28862672694651

> <r_i_glide_gscore>
-10.072697958239

> <r_i_glide_lipo>
-5.96512461061746

> <r_i_glide_hbond>
-0.373888958102975

> <r_i_glide_metal>
0

> <r_i_glide_rewards>
-1.89245135231148

> <r_i_glide_evdw>
-25.5832595825195

> <r_i_glide_ecoul>
-8.74797916412354

> <r_i_glide_erotb>
0.750126816537426

> <r_i_glide_esite>
0

> <r_i_glide_emodel>
-46.3776776023578

> <r_i_glide_energy>
-34.3312387466431

> <r_i_glide_einternal>
12.505823135376

> <i_i_glide_confnum>
1

> <i_i_glide_posenum>
6

> <r_i_glide_eff_state_penalty>
0

> <s_user_duplicate_titles>
90721

> <s_m_subgroup_title>
dock_pv

> <s_m_subgroupid>
dock_pv1

> <b_m_subgroup_collapsed>
0

$$$$
164314
                    3D
 Schrodinger Suite 2021-1.
 64 68  0  0  1  0            999 V2000
   30.5561   -2.0138   28.9537 C   0  0  0  0  0  0
   30.4351   -1.0124   27.7706 C   0  0  1  0  0  0
   28.9194   -0.9649   27.4562 C   0  0  0  0  0  0
   28.2563   -2.1257   27.0399 C   0  0  0  0  0  0
   26.9044   -2.1275   26.7652 C   0  0  0  0  0  0
   26.1720   -0.9606   26.9145 C   0  0  0  0  0  0
   26.7894    0.1930   27.3729 C   0  0  0  0  0  0
   28.1579    0.2128   27.6314 C   0  0  0  0  0  0
   28.8287    1.4911   28.0936 C   0  0  0  0  0  0
   30.0718    1.1638   28.9218 C   0  0  0  0  0  0
   30.9503    0.3458   28.0873 N   0  0  0  0  0  0
   32.2754    0.6998   28.0111 C   0  0  0  0  0  0
   32.6548    1.7761   27.2184 C   0  0  0  0  0  0
   33.9840    2.1789   27.1194 C   0  0  0  0  0  0
   34.9511    1.4844   27.8385 C   0  0  0  0  0  0
   34.5530    0.4175   28.6403 C   0  0  0  0  0  0
   33.2324    0.0487   28.7623 C   0  0  0  0  0  0
   35.6600   -0.5419   29.4640 Cl  0  0  0  0  0  0
   24.8576   -0.9420   26.5657 O   0  0  0  0  0  0
   31.1956   -1.5609   26.5169 C   0  0  0  0  0  0
   32.2115   -2.5298   26.6107 C   0  0  0  0  0  0
   32.8564   -3.0035   25.4736 C   0  0  0  0  0  0
   32.5011   -2.5406   24.2127 C   0  0  0  0  0  0
   31.5314   -1.5356   24.1084 C   0  0  0  0  0  0
   30.8903   -1.0522   25.2458 C   0  0  0  0  0  0
   33.1569   -3.1124   23.1410 O   0  0  0  0  0  0
   32.5096   -3.1398   21.8675 C   0  0  0  0  0  0
   33.4536   -3.6478   20.7595 C   0  0  0  0  0  0
   34.5026   -2.6680   20.4591 N   0  0  0  0  0  0
   35.6591   -2.7236   21.3421 C   0  0  0  0  0  0
   36.6808   -1.8124   20.6653 C   0  0  0  0  0  0
   36.3770   -1.9803   19.1735 C   0  0  0  0  0  0
   35.1104   -2.8435   19.1479 C   0  0  0  0  0  0
   30.0601   -2.9423   28.6825 H   0  0  0  0  0  0
   31.5744   -2.2196   29.2554 H   0  0  0  0  0  0
   30.0597   -1.7347   29.8640 H   0  0  0  0  0  0
   28.8014   -3.0481   26.9068 H   0  0  0  0  0  0
   26.4600   -3.0429   26.4163 H   0  0  0  0  0  0
   26.2062    1.0957   27.4709 H   0  0  0  0  0  0
   28.1400    2.1124   28.6641 H   0  0  0  0  0  0
   29.1151    2.0815   27.2215 H   0  0  0  0  0  0
   29.8398    0.6690   29.8630 H   0  0  0  0  0  0
   30.5603    2.1028   29.1874 H   0  0  0  0  0  0
   31.8857    2.2580   26.6640 H   0  0  0  0  0  0
   34.2585    3.0018   26.4782 H   0  0  0  0  0  0
   35.9954    1.7532   27.7554 H   0  0  0  0  0  0
   32.9781   -0.7539   29.4302 H   0  0  0  0  0  0
   24.6143   -1.7954   26.1618 H   0  0  0  0  0  0
   32.5303   -2.9415   27.5529 H   0  0  0  0  0  0
   33.6205   -3.7611   25.5641 H   0  0  0  0  0  0
   31.2597   -1.1158   23.1564 H   0  0  0  0  0  0
   30.1415   -0.2810   25.1359 H   0  0  0  0  0  0
   32.1422   -2.1594   21.5684 H   0  0  0  0  0  0
   31.6433   -3.8008   21.9314 H   0  0  0  0  0  0
   32.8548   -3.8240   19.8635 H   0  0  0  0  0  0
   33.8833   -4.6148   21.0282 H   0  0  0  0  0  0
   36.0213   -3.7422   21.4675 H   0  0  0  0  0  0
   35.3919   -2.4139   22.3498 H   0  0  0  0  0  0
   37.7022   -2.0994   20.9187 H   0  0  0  0  0  0
   36.5431   -0.7808   20.9925 H   0  0  0  0  0  0
   36.2076   -1.0168   18.6914 H   0  0  0  0  0  0
   37.1957   -2.4747   18.6490 H   0  0  0  0  0  0
   34.4017   -2.5228   18.3825 H   0  0  0  0  0  0
   35.3167   -3.8928   18.9238 H   0  0  0  0  0  0
  1  2  1  0  0  0
  1 34  1  0  0  0
  1 35  1  0  0  0
  1 36  1  0  0  0
  2 11  1  0  0  0
  2  3  1  0  0  0
  2 20  1  0  0  0
  3  8  2  0  0  0
  3  4  1  0  0  0
  4  5  2  0  0  0
  4 37  1  0  0  0
  5  6  1  0  0  0
  5 38  1  0  0  0
  6  7  2  0  0  0
  6 19  1  0  0  0
  7  8  1  0  0  0
  7 39  1  0  0  0
  8  9  1  0  0  0
  9 10  1  0  0  0
  9 40  1  0  0  0
  9 41  1  0  0  0
 10 11  1  0  0  0
 10 42  1  0  0  0
 10 43  1  0  0  0
 11 12  1  0  0  0
 12 17  1  0  0  0
 12 13  2  0  0  0
 13 14  1  0  0  0
 13 44  1  0  0  0
 14 15  2  0  0  0
 14 45  1  0  0  0
 15 16  1  0  0  0
 15 46  1  0  0  0
 16 17  2  0  0  0
 16 18  1  0  0  0
 17 47  1  0  0  0
 19 48  1  0  0  0
 20 25  1  0  0  0
 20 21  2  0  0  0
 21 22  1  0  0  0
 21 49  1  0  0  0
 22 23  2  0  0  0
 22 50  1  0  0  0
 23 24  1  0  0  0
 23 26  1  0  0  0
 24 25  2  0  0  0
 24 51  1  0  0  0
 25 52  1  0  0  0
 26 27  1  0  0  0
 27 28  1  0  0  0
 27 53  1  0  0  0
 27 54  1  0  0  0
 28 29  1  0  0  0
 28 55  1  0  0  0
 28 56  1  0  0  0
 29 33  1  0  0  0
 29 30  1  0  0  0
 30 31  1  0  0  0
 30 57  1  0  0  0
 30 58  1  0  0  0
 31 32  1  0  0  0
 31 59  1  0  0  0
 31 60  1  0  0  0
 32 33  1  0  0  0
 32 61  1  0  0  0
 32 62  1  0  0  0
 33 63  1  0  0  0
 33 64  1  0  0  0
M  END
> <s_m_entry_id>
17148

> <s_m_entry_name>
ligand_docking-pose.75

> <s_m_Source_Path>
/home/csk/Desktop/cluster/DUD-E-result/esr1

> <s_m_Source_File>
ligand_docking-pose.sdf

> <i_m_Source_File_Index>
75

> <i_lp_mmshare_version>
53161

> <i_f3d_flags>
0

> <r_lp_tautomer_probability>
0.999999999997365

> <s_lp_Force_Field>
OPLS_2005

> <r_lp_Energy>
58.546142

> <b_lp_Chiralities_Consistent>
1

> <s_lp_Variant>
164314-2

> <s_i_glide_gridfile>
glide-grid_1sj0

> <i_i_glide_lignum>
878

> <i_i_glide_rotatable_bonds>
7

> <r_i_docking_score>
-10.0530312113353

> <r_i_glide_ligand_efficiency>
-0.304637309434404

> <r_i_glide_ligand_efficiency_sa>
-0.977134627069559

> <r_i_glide_ligand_efficiency_ln>
-2.23574208959112

> <r_i_glide_gscore>
-10.0530312113353

> <r_i_glide_lipo>
-6.12600722507779

> <r_i_glide_hbond>
-0.286073535945618

> <r_i_glide_metal>
0

> <r_i_glide_rewards>
-1.33535370619411

> <r_i_glide_evdw>
-41.7974700927734

> <r_i_glide_ecoul>
-3.63113808631897

> <r_i_glide_erotb>
0.328947473468702

> <r_i_glide_esite>
0

> <r_i_glide_emodel>
-42.7200738639669

> <r_i_glide_energy>
-45.4286081790924

> <r_i_glide_einternal>
10.2519149780273

> <i_i_glide_confnum>
2

> <i_i_glide_posenum>
65

> <r_i_glide_eff_state_penalty>
0

> <s_user_duplicate_titles>
164314

> <s_m_subgroup_title>
dock_pv

> <s_m_subgroupid>
dock_pv1

> <b_m_subgroup_collapsed>
0

$$$$
240850
                    3D
 Schrodinger Suite 2021-1.
 46 48  0  0  1  0            999 V2000
   34.8173    1.4429   27.8641 C   0  0  0  0  0  0
   34.8600    0.3030   28.6651 C   0  0  0  0  0  0
   33.6758   -0.3080   29.0652 C   0  0  0  0  0  0
   32.4480    0.2237   28.6635 C   0  0  0  0  0  0
   32.4100    1.3665   27.8591 C   0  0  0  0  0  0
   33.5966    1.9737   27.4545 C   0  0  0  0  0  0
   31.1480   -0.4427   29.1064 C   0  0  0  0  0  0
   30.4626   -1.4117   28.0822 C   0  0  1  0  0  0
   28.9635   -1.1571   27.8666 C   0  0  0  0  0  0
   28.4593    0.1442   27.7470 C   0  0  0  0  0  0
   27.1139    0.3489   27.4634 C   0  0  0  0  0  0
   26.2690   -0.7456   27.3037 C   0  0  0  0  0  0
   26.7496   -2.0415   27.4630 C   0  0  0  0  0  0
   28.0976   -2.2491   27.7365 C   0  0  0  0  0  0
   24.9621   -0.5419   26.9595 O   0  0  0  0  0  0
   31.2085   -1.6189   26.7527 C   0  0  0  0  0  0
   32.2235   -2.5754   26.6646 C   0  0  0  0  0  0
   32.8602   -2.8213   25.4523 C   0  0  0  0  0  0
   32.4842   -2.1061   24.3056 C   0  0  0  0  0  0
   31.4959   -1.1328   24.4027 C   0  0  0  0  0  0
   30.8595   -0.8886   25.6113 C   0  0  0  0  0  0
   33.0256   -2.2588   23.0474 O   0  0  0  0  0  0
   33.8870   -3.3511   22.7272 C   0  0  0  0  0  0
   33.2648   -4.1235   21.5673 C   0  0  0  0  0  0
   33.8599   -4.3652   20.5218 O   0  0  0  0  0  0
   32.0038   -4.5420   21.8640 O   0  0  0  0  0  0
   35.7412    1.9092   27.5513 H   0  0  0  0  0  0
   35.8113   -0.1087   28.9702 H   0  0  0  0  0  0
   33.7175   -1.1929   29.6840 H   0  0  0  0  0  0
   31.4640    1.7774   27.5403 H   0  0  0  0  0  0
   33.5720    2.8519   26.8265 H   0  0  0  0  0  0
   30.4749    0.3465   29.4397 H   0  0  0  0  0  0
   31.3446   -0.9892   30.0310 H   0  0  0  0  0  0
   30.4886   -2.3855   28.5747 H   0  0  0  0  0  0
   29.1101    1.0017   27.8243 H   0  0  0  0  0  0
   26.7383    1.3546   27.3447 H   0  0  0  0  0  0
   26.0865   -2.8849   27.3309 H   0  0  0  0  0  0
   28.4715   -3.2602   27.8126 H   0  0  0  0  0  0
   24.7779    0.3831   26.7537 H   0  0  0  0  0  0
   32.5225   -3.1392   27.5335 H   0  0  0  0  0  0
   33.6415   -3.5628   25.4438 H   0  0  0  0  0  0
   31.2129   -0.5706   23.5256 H   0  0  0  0  0  0
   30.0883   -0.1348   25.6431 H   0  0  0  0  0  0
   34.0598   -4.0768   23.5163 H   0  0  0  0  0  0
   34.8585   -2.9560   22.4284 H   0  0  0  0  0  0
   31.6599   -5.1105   21.1510 H   0  0  0  0  0  0
  1  6  1  0  0  0
  1  2  2  0  0  0
  1 27  1  0  0  0
  2  3  1  0  0  0
  2 28  1  0  0  0
  3  4  2  0  0  0
  3 29  1  0  0  0
  4  5  1  0  0  0
  4  7  1  0  0  0
  5  6  2  0  0  0
  5 30  1  0  0  0
  6 31  1  0  0  0
  7  8  1  0  0  0
  7 32  1  0  0  0
  7 33  1  0  0  0
  8  9  1  0  0  0
  8 16  1  0  0  0
  8 34  1  0  0  0
  9 14  1  0  0  0
  9 10  2  0  0  0
 10 11  1  0  0  0
 10 35  1  0  0  0
 11 12  2  0  0  0
 11 36  1  0  0  0
 12 13  1  0  0  0
 12 15  1  0  0  0
 13 14  2  0  0  0
 13 37  1  0  0  0
 14 38  1  0  0  0
 15 39  1  0  0  0
 16 21  1  0  0  0
 16 17  2  0  0  0
 17 18  1  0  0  0
 17 40  1  0  0  0
 18 19  2  0  0  0
 18 41  1  0  0  0
 19 20  1  0  0  0
 19 22  1  0  0  0
 20 21  2  0  0  0
 20 42  1  0  0  0
 21 43  1  0  0  0
 22 23  1  0  0  0
 23 24  1  0  0  0
 23 44  1  0  0  0
 23 45  1  0  0  0
 24 25  2  0  0  0
 24 26  1  0  0  0
 26 46  1  0  0  0
M  END
> <s_m_entry_id>
17149

> <s_m_entry_name>
ligand_docking-pose.76

> <s_m_Source_Path>
/home/csk/Desktop/cluster/DUD-E-result/esr1

> <s_m_Source_File>
ligand_docking-pose.sdf

> <i_m_Source_File_Index>
76

> <i_lp_mmshare_version>
53161

> <i_f3d_flags>
0

> <r_lp_tautomer_probability>
0.999999999997365

> <s_lp_Force_Field>
OPLS_2005

> <r_lp_Energy>
19.724019

> <b_lp_Chiralities_Consistent>
1

> <s_lp_Variant>
240850-2

> <s_i_glide_gridfile>
glide-grid_1sj0

> <i_i_glide_lignum>
413

> <i_i_glide_rotatable_bonds>
9

> <r_i_docking_score>
-10.0495321686524

> <r_i_glide_ligand_efficiency>
-0.386520468025094

> <r_i_glide_ligand_efficiency_sa>
-1.14506536563974

> <r_i_glide_ligand_efficiency_ln>
-2.3600996546034

> <r_i_glide_gscore>
-10.0495321686524

> <r_i_glide_lipo>
-5.24537360948613

> <r_i_glide_hbond>
-0.35090928934491

> <r_i_glide_metal>
0

> <r_i_glide_rewards>
-1.93102616757687

> <r_i_glide_evdw>
-49.1133995056152

> <r_i_glide_ecoul>
-7.37881755828857

> <r_i_glide_erotb>
1.0978387048631

> <r_i_glide_esite>
-0.0575691980835787

> <r_i_glide_emodel>
-87.1855683798264

> <r_i_glide_energy>
-56.4922170639038

> <r_i_glide_einternal>
9.88738059997559

> <i_i_glide_confnum>
49

> <i_i_glide_posenum>
275

> <r_i_glide_eff_state_penalty>
0

> <s_user_duplicate_titles>
240850

> <s_m_subgroup_title>
dock_pv

> <s_m_subgroupid>
dock_pv1

> <b_m_subgroup_collapsed>
0

$$$$
150034
                    3D
 Schrodinger Suite 2021-1.
 38 40  0  0  1  0            999 V2000
   31.4398   -1.2320   25.4899 C   0  0  0  0  0  0
   32.0549   -1.6009   24.2966 C   0  0  0  0  0  0
   32.9595   -2.6571   24.2892 C   0  0  0  0  0  0
   33.2602   -3.3313   25.4661 C   0  0  0  0  0  0
   32.6481   -2.9636   26.6601 C   0  0  0  0  0  0
   31.7208   -1.9202   26.6816 C   0  0  0  0  0  0
   30.9663   -1.6112   27.9881 C   0  0  1  0  0  0
   31.6341   -0.5915   28.9376 C   0  0  0  0  0  0
   31.6505    0.6983   28.2320 N   0  0  0  0  0  0
   30.3115    1.2441   27.8626 C   0  0  0  0  0  0
   29.2061    0.1731   27.6794 C   0  0  0  0  0  0
   29.5271   -1.1989   27.7412 C   0  0  0  0  0  0
   28.5396   -2.1685   27.5415 C   0  0  0  0  0  0
   27.2221   -1.8023   27.3149 C   0  0  0  0  0  0
   26.8794   -0.4594   27.2819 C   0  0  0  0  0  0
   27.8634    0.5224   27.4555 C   0  0  0  0  0  0
   25.5667   -0.1421   27.0640 O   0  0  0  0  0  0
   32.8238    1.3022   27.8670 C   0  0  0  0  0  0
   32.8599    2.2567   27.0888 O   0  0  0  0  0  0
   34.1596    0.8991   28.5465 C   0  0  0  0  0  0
   34.4608   -0.3656   28.2634 F   0  0  0  0  0  0
   35.1593    1.6784   28.1232 F   0  0  0  0  0  0
   34.0507    1.0321   29.8691 F   0  0  0  0  0  0
   33.5625   -3.0442   23.1238 O   0  0  0  0  0  0
   30.7281   -0.4204   25.4730 H   0  0  0  0  0  0
   31.8212   -1.0690   23.3869 H   0  0  0  0  0  0
   33.9709   -4.1414   25.4471 H   0  0  0  0  0  0
   32.8855   -3.5085   27.5611 H   0  0  0  0  0  0
   30.9164   -2.5417   28.5421 H   0  0  0  0  0  0
   32.5912   -0.9387   29.3191 H   0  0  0  0  0  0
   31.0229   -0.4726   29.8338 H   0  0  0  0  0  0
   30.3775    1.8461   26.9549 H   0  0  0  0  0  0
   29.9989    1.9287   28.6519 H   0  0  0  0  0  0
   28.7991   -3.2179   27.5583 H   0  0  0  0  0  0
   26.4670   -2.5602   27.1549 H   0  0  0  0  0  0
   27.5852    1.5651   27.4125 H   0  0  0  0  0  0
   25.3744    0.7982   26.9618 H   0  0  0  0  0  0
   33.2044   -2.6106   22.3471 H   0  0  0  0  0  0
  1  6  1  0  0  0
  1  2  2  0  0  0
  1 25  1  0  0  0
  2  3  1  0  0  0
  2 26  1  0  0  0
  3  4  2  0  0  0
  3 24  1  0  0  0
  4  5  1  0  0  0
  4 27  1  0  0  0
  5  6  2  0  0  0
  5 28  1  0  0  0
  6  7  1  0  0  0
  7 12  1  0  0  0
  7  8  1  0  0  0
  7 29  1  0  0  0
  8  9  1  0  0  0
  8 30  1  0  0  0
  8 31  1  0  0  0
  9 10  1  0  0  0
  9 18  1  0  0  0
 10 11  1  0  0  0
 10 32  1  0  0  0
 10 33  1  0  0  0
 11 16  2  0  0  0
 11 12  1  0  0  0
 12 13  2  0  0  0
 13 14  1  0  0  0
 13 34  1  0  0  0
 14 15  2  0  0  0
 14 35  1  0  0  0
 15 16  1  0  0  0
 15 17  1  0  0  0
 16 36  1  0  0  0
 17 37  1  0  0  0
 18 19  2  0  0  0
 18 20  1  0  0  0
 20 21  1  0  0  0
 20 22  1  0  0  0
 20 23  1  0  0  0
 24 38  1  0  0  0
M  END
> <s_m_entry_id>
17150

> <s_m_entry_name>
ligand_docking-pose.77

> <s_m_Source_Path>
/home/csk/Desktop/cluster/DUD-E-result/esr1

> <s_m_Source_File>
ligand_docking-pose.sdf

> <i_m_Source_File_Index>
77

> <i_lp_mmshare_version>
53161

> <i_f3d_flags>
0

> <r_lp_tautomer_probability>
0.99999999999473

> <s_lp_Force_Field>
OPLS_2005

> <r_lp_Energy>
24.24642

> <b_lp_Chiralities_Consistent>
1

> <s_lp_Variant>
150034-2

> <s_i_glide_gridfile>
glide-grid_1sj0

> <i_i_glide_lignum>
354

> <i_i_glide_rotatable_bonds>
5

> <r_i_docking_score>
-10.0388861425486

> <r_i_glide_ligand_efficiency>
-0.41828692260619

> <r_i_glide_ligand_efficiency_sa>
-1.20654826750981

> <r_i_glide_ligand_efficiency_ln>
-2.4027661083803

> <r_i_glide_gscore>
-10.0388861425486

> <r_i_glide_lipo>
-4.37853072292635

> <r_i_glide_hbond>
-0.32

> <r_i_glide_metal>
0

> <r_i_glide_rewards>
-3.16890431728511

> <r_i_glide_evdw>
-42.3578987121582

> <r_i_glide_ecoul>
-2.57179045677185

> <r_i_glide_erotb>
0.332212401786596

> <r_i_glide_esite>
0

> <r_i_glide_emodel>
-64.8258235913409

> <r_i_glide_energy>
-44.9296891689301

> <r_i_glide_einternal>
3.82053303718567

> <i_i_glide_confnum>
14

> <i_i_glide_posenum>
159

> <r_i_glide_eff_state_penalty>
0

> <s_user_duplicate_titles>
150034

> <s_m_subgroup_title>
dock_pv

> <s_m_subgroupid>
dock_pv1

> <b_m_subgroup_collapsed>
0

$$$$
86541
                    3D
 Schrodinger Suite 2021-1.
 60 64  0  0  1  0            999 V2000
   35.2225    0.3865   28.2640 C   0  0  0  0  0  0
   34.5209    1.4269   27.6638 C   0  0  0  0  0  0
   33.1386    1.4841   27.8030 C   0  0  0  0  0  0
   32.4673    0.5183   28.5681 C   0  0  0  0  0  0
   33.1999   -0.4666   29.2346 C   0  0  0  0  0  0
   34.5740   -0.5419   29.0645 C   0  0  0  0  0  0
   30.9377    0.4320   28.6139 C   0  0  1  0  0  0
   30.1957    1.6706   28.0586 C   0  0  0  0  0  0
   28.7923    1.5731   28.2584 O   0  0  0  0  0  0
   28.2147    0.4018   27.8169 C   0  0  0  0  0  0
   26.8722    0.4942   27.4639 C   0  0  0  0  0  0
   26.1737   -0.6425   27.0659 C   0  0  0  0  0  0
   26.8189   -1.8765   27.0646 C   0  0  0  0  0  0
   28.1629   -1.9697   27.4114 C   0  0  0  0  0  0
   28.8907   -0.8308   27.7740 C   0  0  0  0  0  0
   30.3989   -0.8973   27.9930 C   0  0  1  0  0  0
   31.0978   -1.3317   26.6899 C   0  0  0  0  0  0
   31.9795   -2.4171   26.6861 C   0  0  0  0  0  0
   32.5805   -2.8408   25.5033 C   0  0  0  0  0  0
   32.3218   -2.1554   24.3082 C   0  0  0  0  0  0
   31.4564   -1.0664   24.3186 C   0  0  0  0  0  0
   30.8334   -0.6649   25.4921 C   0  0  0  0  0  0
   32.8735   -2.4509   23.0821 O   0  0  0  0  0  0
   33.4869   -3.7128   22.8270 C   0  0  0  0  0  0
   34.4545   -3.5644   21.6317 C   0  0  0  0  0  0
   33.8383   -2.9360   20.4597 N   0  0  0  0  0  0
   32.7679   -3.7078   19.8434 C   0  0  0  0  0  0
   32.5350   -3.0368   18.4881 C   0  0  0  0  0  0
   33.8788   -2.3758   18.1606 C   0  0  0  0  0  0
   34.7665   -2.7172   19.3606 C   0  0  0  0  0  0
   24.8622   -0.5420   26.6894 O   0  0  0  0  0  0
   30.7046    0.4150   29.6804 H   0  0  0  0  0  0
   30.5688   -1.7002   28.7123 H   0  0  0  0  0  0
   36.2769    0.2582   28.0852 H   0  0  0  0  0  0
   35.0431    2.1460   27.0474 H   0  0  0  0  0  0
   32.6086    2.2581   27.2725 H   0  0  0  0  0  0
   32.7005   -1.2146   29.8325 H   0  0  0  0  0  0
   35.1341   -1.3424   29.5237 H   0  0  0  0  0  0
   30.5358    2.5710   28.5699 H   0  0  0  0  0  0
   30.3898    1.8001   26.9939 H   0  0  0  0  0  0
   26.3884    1.4573   27.4948 H   0  0  0  0  0  0
   26.2861   -2.7663   26.7729 H   0  0  0  0  0  0
   28.6545   -2.9304   27.3533 H   0  0  0  0  0  0
   32.2035   -2.9419   27.6016 H   0  0  0  0  0  0
   33.2484   -3.6851   25.5463 H   0  0  0  0  0  0
   31.2606   -0.5420   23.3987 H   0  0  0  0  0  0
   30.1402    0.1609   25.4604 H   0  0  0  0  0  0
   32.7161   -4.4552   22.6179 H   0  0  0  0  0  0
   34.0599   -4.0868   23.6717 H   0  0  0  0  0  0
   34.8594   -4.5418   21.3603 H   0  0  0  0  0  0
   35.3024   -2.9545   21.9478 H   0  0  0  0  0  0
   31.8831   -3.6721   20.4808 H   0  0  0  0  0  0
   33.0198   -4.7672   19.7575 H   0  0  0  0  0  0
   31.7320   -2.3000   18.5535 H   0  0  0  0  0  0
   32.2449   -3.7727   17.7357 H   0  0  0  0  0  0
   34.3050   -2.7604   17.2328 H   0  0  0  0  0  0
   33.7732   -1.2946   18.0498 H   0  0  0  0  0  0
   35.4116   -3.5815   19.1810 H   0  0  0  0  0  0
   35.4426   -1.9034   19.6267 H   0  0  0  0  0  0
   24.5705    0.3781   26.6597 H   0  0  0  0  0  0
  1  6  1  0  0  0
  1  2  2  0  0  0
  1 34  1  0  0  0
  2  3  1  0  0  0
  2 35  1  0  0  0
  3  4  2  0  0  0
  3 36  1  0  0  0
  4  5  1  0  0  0
  4  7  1  0  0  0
  5  6  2  0  0  0
  5 37  1  0  0  0
  6 38  1  0  0  0
  7 32  1  0  0  0
  7 16  1  0  0  0
  7  8  1  0  0  0
  8  9  1  0  0  0
  8 39  1  0  0  0
  8 40  1  0  0  0
  9 10  1  0  0  0
 10 15  2  0  0  0
 10 11  1  0  0  0
 11 12  2  0  0  0
 11 41  1  0  0  0
 12 13  1  0  0  0
 12 31  1  0  0  0
 13 14  2  0  0  0
 13 42  1  0  0  0
 14 15  1  0  0  0
 14 43  1  0  0  0
 15 16  1  0  0  0
 16 33  1  0  0  0
 16 17  1  0  0  0
 17 22  1  0  0  0
 17 18  2  0  0  0
 18 19  1  0  0  0
 18 44  1  0  0  0
 19 20  2  0  0  0
 19 45  1  0  0  0
 20 21  1  0  0  0
 20 23  1  0  0  0
 21 22  2  0  0  0
 21 46  1  0  0  0
 22 47  1  0  0  0
 23 24  1  0  0  0
 24 25  1  0  0  0
 24 48  1  0  0  0
 24 49  1  0  0  0
 25 26  1  0  0  0
 25 50  1  0  0  0
 25 51  1  0  0  0
 26 30  1  0  0  0
 26 27  1  0  0  0
 27 28  1  0  0  0
 27 52  1  0  0  0
 27 53  1  0  0  0
 28 29  1  0  0  0
 28 54  1  0  0  0
 28 55  1  0  0  0
 29 30  1  0  0  0
 29 56  1  0  0  0
 29 57  1  0  0  0
 30 58  1  0  0  0
 30 59  1  0  0  0
 31 60  1  0  0  0
M  END
> <s_m_entry_id>
17151

> <s_m_entry_name>
ligand_docking-pose.78

> <s_m_Source_Path>
/home/csk/Desktop/cluster/DUD-E-result/esr1

> <s_m_Source_File>
ligand_docking-pose.sdf

> <i_m_Source_File_Index>
78

> <i_lp_mmshare_version>
53161

> <i_f3d_flags>
0

> <r_lp_tautomer_probability>
1

> <s_lp_Force_Field>
OPLS_2005

> <r_lp_Energy>
45.021527

> <b_lp_Chiralities_Consistent>
1

> <s_lp_Variant>
86541-1

> <s_i_glide_gridfile>
glide-grid_1sj0

> <i_i_glide_lignum>
562

> <i_i_glide_rotatable_bonds>
7

> <r_i_docking_score>
-10.0369206435273

> <r_i_glide_ligand_efficiency>
-0.323771633662172

> <r_i_glide_ligand_efficiency_sa>
-1.01708994461528

> <r_i_glide_ligand_efficiency_ln>
-2.26363319979241

> <r_i_glide_gscore>
-10.0369206435273

> <r_i_glide_lipo>
-5.47838762098602

> <r_i_glide_hbond>
-0.373916175763205

> <r_i_glide_metal>
0

> <r_i_glide_rewards>
-1.4602465606261

> <r_i_glide_evdw>
-49.6910858154297

> <r_i_glide_ecoul>
-5.41118431091309

> <r_i_glide_erotb>
0.571861651256446

> <r_i_glide_esite>
0

> <r_i_glide_emodel>
-86.0583255201688

> <r_i_glide_energy>
-55.1022701263428

> <r_i_glide_einternal>
2.30068182945251

> <i_i_glide_confnum>
5

> <i_i_glide_posenum>
14

> <r_i_glide_eff_state_penalty>
0

> <s_user_duplicate_titles>
86541

> <s_m_subgroup_title>
dock_pv

> <s_m_subgroupid>
dock_pv1

> <b_m_subgroup_collapsed>
0

$$$$
149567
                    3D
 Schrodinger Suite 2021-1.
 39 42  0  0  1  0            999 V2000
   35.2435    1.4563   27.8643 C   0  0  0  0  0  0
   34.2814    2.1327   27.1282 C   0  0  0  0  0  0
   32.9561    1.7551   27.2393 C   0  0  0  0  0  0
   32.5885    0.7012   28.0678 C   0  0  0  0  0  0
   33.5557    0.0109   28.8015 C   0  0  0  0  0  0
   34.8896    0.3959   28.7006 C   0  0  0  0  0  0
   31.2469    0.3843   28.1156 N   0  0  0  0  0  0
   30.3827    1.2267   28.9406 C   0  0  0  0  0  0
   29.1035    1.5111   28.1485 C   0  0  0  0  0  0
   28.4122    0.2173   27.7540 C   0  0  0  0  0  0
   27.0454    0.2019   27.4639 C   0  0  0  0  0  0
   26.4188   -0.9665   27.0506 C   0  0  0  0  0  0
   27.1418   -2.1516   26.9857 C   0  0  0  0  0  0
   28.4982   -2.1534   27.2953 C   0  0  0  0  0  0
   29.1649   -0.9732   27.6495 C   0  0  0  0  0  0
   30.6874   -0.9708   27.9123 C   0  0  1  0  0  0
   31.4606   -1.6414   26.7662 C   0  0  0  0  0  0
   32.4301   -2.6453   26.8275 C   0  0  0  0  0  0
   32.9350   -3.0480   25.5884 C   0  0  0  0  0  0
   32.3996   -2.3307   24.5379 C   0  0  0  0  0  0
   31.2584   -1.1575   25.0925 S   0  0  0  0  0  0
   25.1073   -0.9420   26.6640 O   0  0  0  0  0  0
   36.2731    1.7568   27.7574 H   0  0  0  0  0  0
   34.5544    2.9320   26.4610 H   0  0  0  0  0  0
   32.2011    2.2579   26.6637 H   0  0  0  0  0  0
   33.2768   -0.8096   29.4457 H   0  0  0  0  0  0
   35.6535   -0.1254   29.2596 H   0  0  0  0  0  0
   30.1784    0.7705   29.9094 H   0  0  0  0  0  0
   30.8694    2.1811   29.1511 H   0  0  0  0  0  0
   28.4467    2.1497   28.7351 H   0  0  0  0  0  0
   29.3499    2.0756   27.2477 H   0  0  0  0  0  0
   26.4715    1.1160   27.5092 H   0  0  0  0  0  0
   26.6651   -3.0680   26.6678 H   0  0  0  0  0  0
   29.0495   -3.0799   27.2162 H   0  0  0  0  0  0
   30.8525   -1.5275   28.8359 H   0  0  0  0  0  0
   32.7588   -3.0844   27.7573 H   0  0  0  0  0  0
   33.6694   -3.8301   25.4644 H   0  0  0  0  0  0
   32.6169   -2.4311   23.4845 H   0  0  0  0  0  0
   24.8600   -1.7944   26.2639 H   0  0  0  0  0  0
  1  6  1  0  0  0
  1  2  2  0  0  0
  1 23  1  0  0  0
  2  3  1  0  0  0
  2 24  1  0  0  0
  3  4  2  0  0  0
  3 25  1  0  0  0
  4  5  1  0  0  0
  4  7  1  0  0  0
  5  6  2  0  0  0
  5 26  1  0  0  0
  6 27  1  0  0  0
  7 16  1  0  0  0
  7  8  1  0  0  0
  8  9  1  0  0  0
  8 28  1  0  0  0
  8 29  1  0  0  0
  9 10  1  0  0  0
  9 30  1  0  0  0
  9 31  1  0  0  0
 10 15  2  0  0  0
 10 11  1  0  0  0
 11 12  2  0  0  0
 11 32  1  0  0  0
 12 13  1  0  0  0
 12 22  1  0  0  0
 13 14  2  0  0  0
 13 33  1  0  0  0
 14 15  1  0  0  0
 14 34  1  0  0  0
 15 16  1  0  0  0
 16 17  1  0  0  0
 16 35  1  0  0  0
 17 21  1  0  0  0
 17 18  2  0  0  0
 18 19  1  0  0  0
 18 36  1  0  0  0
 19 20  2  0  0  0
 19 37  1  0  0  0
 20 21  1  0  0  0
 20 38  1  0  0  0
 22 39  1  0  0  0
M  END
> <s_m_entry_id>
17152

> <s_m_entry_name>
ligand_docking-pose.79

> <s_m_Source_Path>
/home/csk/Desktop/cluster/DUD-E-result/esr1

> <s_m_Source_File>
ligand_docking-pose.sdf

> <i_m_Source_File_Index>
79

> <i_lp_mmshare_version>
53161

> <i_f3d_flags>
0

> <r_lp_tautomer_probability>
0.999999999997365

> <s_lp_Force_Field>
OPLS_2005

> <r_lp_Energy>
21.33706

> <b_lp_Chiralities_Consistent>
1

> <s_lp_Variant>
149567-1

> <s_i_glide_gridfile>
glide-grid_1sj0

> <i_i_glide_lignum>
620

> <i_i_glide_rotatable_bonds>
3

> <r_i_docking_score>
-10.0315129872664

> <r_i_glide_ligand_efficiency>
-0.455977863057561

> <r_i_glide_ligand_efficiency_sa>
-1.27766790487904

> <r_i_glide_ligand_efficiency_ln>
-2.45206768241467

> <r_i_glide_gscore>
-10.0315129872664

> <r_i_glide_lipo>
-4.84927747187087

> <r_i_glide_hbond>
-0.208640934302279

> <r_i_glide_metal>
0

> <r_i_glide_rewards>
-2.47304795862781

> <r_i_glide_evdw>
-43.9341163635254

> <r_i_glide_ecoul>
-3.85140132904053

> <r_i_glide_erotb>
0.273869395066957

> <r_i_glide_esite>
0

> <r_i_glide_emodel>
-75.7767085984359

> <r_i_glide_energy>
-47.7855176925659

> <r_i_glide_einternal>
2.88575267791748

> <i_i_glide_confnum>
32

> <i_i_glide_posenum>
143

> <r_i_glide_eff_state_penalty>
0

> <s_user_duplicate_titles>
149567

> <s_m_subgroup_title>
dock_pv

> <s_m_subgroupid>
dock_pv1

> <b_m_subgroup_collapsed>
0

$$$$
615216
                    3D
 Schrodinger Suite 2021-1.
 72 76  0  0  1  0            999 V2000
   37.0049   -1.0862   19.8853 C   0  0  0  0  0  0
   36.3557   -2.4663   20.0785 C   0  0  0  0  0  0
   37.2318   -3.5749   19.4615 C   0  0  0  0  0  0
   34.9611   -2.4543   19.5928 N   0  0  0  0  0  0
   34.0578   -3.4287   20.2402 C   0  0  0  0  0  0
   33.9087   -3.3543   21.7777 C   0  0  0  0  0  0
   33.2607   -2.1606   22.2421 O   0  0  0  0  0  0
   32.6794   -2.1908   23.4979 C   0  0  0  0  0  0
   32.9646   -3.1579   24.4718 C   0  0  0  0  0  0
   32.2952   -3.1409   25.6886 C   0  0  0  0  0  0
   31.3344   -2.1593   25.9459 C   0  0  0  0  0  0
   31.0700   -1.1732   25.0008 C   0  0  0  0  0  0
   31.7529   -1.1919   23.7911 C   0  0  0  0  0  0
   30.6022   -2.1494   27.2767 C   0  0  1  0  0  0
   30.8069   -0.9067   28.1346 C   0  0  0  0  0  0
   29.8291   -0.0865   28.4832 C   0  0  0  0  0  0
   30.0920    1.1363   29.3576 C   0  0  0  0  0  0
   30.9451    2.1671   28.6189 C   0  0  0  0  0  0
   32.0556    1.6996   27.8389 O   0  0  0  0  0  0
   32.7547    0.6214   28.3243 C   0  0  0  0  0  0
   32.1302   -0.6150   28.5529 C   0  0  0  0  0  0
   32.7596   -1.6492   29.1958 C   0  0  0  0  0  0
   34.0767   -1.5559   29.4636 C   0  0  0  0  0  0
   34.7485   -0.4251   29.0648 C   0  0  0  0  0  0
   34.1169    0.7048   28.5638 C   0  0  0  0  0  0
   36.0601   -0.5418   29.0637 O   0  0  0  0  0  0
   28.5551   -0.3559   27.8867 C   0  0  0  0  0  0
   27.5889    0.6187   27.8566 C   0  0  0  0  0  0
   26.3392    0.2578   27.4472 C   0  0  0  0  0  0
   26.0503   -1.0192   26.9989 C   0  0  0  0  0  0
   27.0433   -1.9672   26.8842 C   0  0  0  0  0  0
   28.3023   -1.6133   27.3116 C   0  0  0  0  0  0
   29.2511   -2.5901   27.2110 O   0  0  0  0  0  0
   24.7934   -1.3418   26.6638 O   0  0  0  0  0  0
   34.8214   -2.3962   18.1158 C   0  0  0  0  0  0
   33.7417   -1.3748   17.7494 C   0  0  0  0  0  0
   34.5588   -3.7549   17.4217 C   0  0  0  0  0  0
   31.0284   -2.9420   27.8505 H   0  0  0  0  0  0
   37.9221   -1.0018   20.4688 H   0  0  0  0  0  0
   37.2788   -0.9422   18.8391 H   0  0  0  0  0  0
   36.3450   -0.2746   20.1962 H   0  0  0  0  0  0
   36.3532   -2.6269   21.1537 H   0  0  0  0  0  0
   38.1722   -3.6669   20.0054 H   0  0  0  0  0  0
   36.7339   -4.5397   19.4648 H   0  0  0  0  0  0
   37.4921   -3.3517   18.4268 H   0  0  0  0  0  0
   33.0574   -3.3080   19.8221 H   0  0  0  0  0  0
   34.3718   -4.4421   19.9811 H   0  0  0  0  0  0
   33.3018   -4.2205   22.0508 H   0  0  0  0  0  0
   34.8603   -3.4858   22.2900 H   0  0  0  0  0  0
   33.6959   -3.9334   24.2955 H   0  0  0  0  0  0
   32.5147   -3.9003   26.4236 H   0  0  0  0  0  0
   30.3447   -0.3963   25.2007 H   0  0  0  0  0  0
   31.5604   -0.4256   23.0637 H   0  0  0  0  0  0
   29.1897    1.5812   29.7709 H   0  0  0  0  0  0
   30.6436    0.7989   30.2368 H   0  0  0  0  0  0
   30.2631    2.6583   27.9320 H   0  0  0  0  0  0
   31.3283    2.8686   29.3598 H   0  0  0  0  0  0
   32.2319   -2.5416   29.4641 H   0  0  0  0  0  0
   34.5902   -2.4120   29.8642 H   0  0  0  0  0  0
   34.6709    1.5915   28.2904 H   0  0  0  0  0  0
   36.5692    0.2697   28.9042 H   0  0  0  0  0  0
   27.7575    1.6322   28.1942 H   0  0  0  0  0  0
   25.6369    1.0471   27.4639 H   0  0  0  0  0  0
   26.8501   -2.9581   26.4929 H   0  0  0  0  0  0
   24.7350   -2.2407   26.2619 H   0  0  0  0  0  0
   35.7461   -2.0176   17.6814 H   0  0  0  0  0  0
   33.6009   -1.3426   16.6689 H   0  0  0  0  0  0
   32.7777   -1.6027   18.2069 H   0  0  0  0  0  0
   34.0537   -0.3797   18.0625 H   0  0  0  0  0  0
   34.6075   -3.6446   16.3381 H   0  0  0  0  0  0
   35.2898   -4.5119   17.6977 H   0  0  0  0  0  0
   33.5710   -4.1559   17.6557 H   0  0  0  0  0  0
  1  2  1  0  0  0
  1 39  1  0  0  0
  1 40  1  0  0  0
  1 41  1  0  0  0
  2  3  1  0  0  0
  2  4  1  0  0  0
  2 42  1  0  0  0
  3 43  1  0  0  0
  3 44  1  0  0  0
  3 45  1  0  0  0
  4  5  1  0  0  0
  4 35  1  0  0  0
  5  6  1  0  0  0
  5 46  1  0  0  0
  5 47  1  0  0  0
  6  7  1  0  0  0
  6 48  1  0  0  0
  6 49  1  0  0  0
  7  8  1  0  0  0
  8 13  1  0  0  0
  8  9  2  0  0  0
  9 10  1  0  0  0
  9 50  1  0  0  0
 10 11  2  0  0  0
 10 51  1  0  0  0
 11 12  1  0  0  0
 11 14  1  0  0  0
 12 13  2  0  0  0
 12 52  1  0  0  0
 13 53  1  0  0  0
 14 38  1  0  0  0
 14 33  1  0  0  0
 14 15  1  0  0  0
 15 21  1  0  0  0
 15 16  2  0  0  0
 16 17  1  0  0  0
 16 27  1  0  0  0
 17 18  1  0  0  0
 17 54  1  0  0  0
 17 55  1  0  0  0
 18 19  1  0  0  0
 18 56  1  0  0  0
 18 57  1  0  0  0
 19 20  1  0  0  0
 20 25  2  0  0  0
 20 21  1  0  0  0
 21 22  2  0  0  0
 22 23  1  0  0  0
 22 58  1  0  0  0
 23 24  2  0  0  0
 23 59  1  0  0  0
 24 25  1  0  0  0
 24 26  1  0  0  0
 25 60  1  0  0  0
 26 61  1  0  0  0
 27 32  2  0  0  0
 27 28  1  0  0  0
 28 29  2  0  0  0
 28 62  1  0  0  0
 29 30  1  0  0  0
 29 63  1  0  0  0
 30 31  2  0  0  0
 30 34  1  0  0  0
 31 32  1  0  0  0
 31 64  1  0  0  0
 32 33  1  0  0  0
 34 65  1  0  0  0
 35 36  1  0  0  0
 35 37  1  0  0  0
 35 66  1  0  0  0
 36 67  1  0  0  0
 36 68  1  0  0  0
 36 69  1  0  0  0
 37 70  1  0  0  0
 37 71  1  0  0  0
 37 72  1  0  0  0
M  END
> <s_m_entry_id>
17153

> <s_m_entry_name>
ligand_docking-pose.80

> <s_m_Source_Path>
/home/csk/Desktop/cluster/DUD-E-result/esr1

> <s_m_Source_File>
ligand_docking-pose.sdf

> <i_m_Source_File_Index>
80

> <i_lp_mmshare_version>
53161

> <i_f3d_flags>
0

> <r_lp_tautomer_probability>
1

> <s_lp_Force_Field>
OPLS_2005

> <r_lp_Energy>
60.25449

> <b_lp_Chiralities_Consistent>
1

> <s_lp_Variant>
615216-1

> <s_i_glide_gridfile>
glide-grid_1sj0

> <i_i_glide_lignum>
1547

> <i_i_glide_rotatable_bonds>
9

> <r_i_docking_score>
-10.0300325936078

> <r_i_glide_ligand_efficiency>
-0.271081961989401

> <r_i_glide_ligand_efficiency_sa>
-0.903305236240886

> <r_i_glide_ligand_efficiency_ln>
-2.17527893222803

> <r_i_glide_gscore>
-10.0300325936078

> <r_i_glide_lipo>
-5.86490474816722

> <r_i_glide_hbond>
-0.588980934420294

> <r_i_glide_metal>
0

> <r_i_glide_rewards>
-0.883959809684442

> <r_i_glide_evdw>
-21.294677734375

> <r_i_glide_ecoul>
-12.7440214157104

> <r_i_glide_erotb>
0.284149997739434

> <r_i_glide_esite>
0

> <r_i_glide_emodel>
-61.7039024232435

> <r_i_glide_energy>
-34.0386991500854

> <r_i_glide_einternal>
7.22203302383423

> <i_i_glide_confnum>
1

> <i_i_glide_posenum>
1

> <r_i_glide_eff_state_penalty>
0

> <s_user_duplicate_titles>
615216

> <s_m_subgroup_title>
dock_pv

> <s_m_subgroupid>
dock_pv1

> <b_m_subgroup_collapsed>
0

$$$$
11939
                    3D
 Schrodinger Suite 2021-1.
 63 64  0  0  1  0            999 V2000
   31.1245    1.8587   29.5013 C   0  0  0  0  0  0
   31.5720    1.1482   30.7884 C   0  0  0  0  0  0
   33.0542    0.7037   30.7933 C   0  0  0  0  0  0
   33.6163    0.0538   29.5033 C   0  0  0  0  0  0
   33.0816   -1.3414   29.1068 C   0  0  0  0  0  0
   31.5864   -1.4212   28.7932 C   0  0  0  0  0  0
   30.9699   -1.6769   27.6154 C   0  0  0  0  0  0
   29.4948   -1.5970   27.5526 C   0  0  0  0  0  0
   28.8621   -0.3485   27.5462 C   0  0  0  0  0  0
   27.4784   -0.2642   27.4213 C   0  0  0  0  0  0
   26.7311   -1.4274   27.2778 C   0  0  0  0  0  0
   27.3451   -2.6765   27.3108 C   0  0  0  0  0  0
   28.7265   -2.7612   27.4639 C   0  0  0  0  0  0
   25.3855   -1.3420   27.0640 O   0  0  0  0  0  0
   31.6709   -2.0510   26.3580 C   0  0  0  0  0  0
   32.6537   -3.0402   26.3894 C   0  0  0  0  0  0
   33.3532   -3.3732   25.2416 C   0  0  0  0  0  0
   33.0737   -2.7758   24.0233 C   0  0  0  0  0  0
   32.0597   -1.8076   23.9692 C   0  0  0  0  0  0
   31.3700   -1.4428   25.1306 C   0  0  0  0  0  0
   33.8555   -3.2153   22.9696 O   0  0  0  0  0  0
   33.5654   -2.8027   21.6388 C   0  0  0  0  0  0
   34.7338   -3.1402   20.6804 C   0  0  0  0  0  0
   35.8605   -2.1833   20.7286 N   0  0  0  0  0  0
   37.0723   -2.7936   20.1660 C   0  0  0  0  0  0
   38.3462   -1.9666   20.4044 C   0  0  0  0  0  0
   35.5626   -0.8518   20.1646 C   0  0  0  0  0  0
   35.3117   -0.8181   18.6435 C   0  0  0  0  0  0
   30.0549    2.0714   29.5112 H   0  0  0  0  0  0
   31.3192    1.2697   28.6088 H   0  0  0  0  0  0
   31.6597    2.7984   29.3883 H   0  0  0  0  0  0
   31.4139    1.8246   31.6300 H   0  0  0  0  0  0
   30.9135    0.3074   31.0000 H   0  0  0  0  0  0
   33.6601    1.5852   31.0060 H   0  0  0  0  0  0
   33.2262    0.0307   31.6327 H   0  0  0  0  0  0
   33.5051    0.7382   28.6594 H   0  0  0  0  0  0
   34.6973   -0.0387   29.6280 H   0  0  0  0  0  0
   33.6598   -1.6304   28.2331 H   0  0  0  0  0  0
   33.3404   -2.0805   29.8638 H   0  0  0  0  0  0
   30.9491   -1.2413   29.6409 H   0  0  0  0  0  0
   29.4407    0.5604   27.6058 H   0  0  0  0  0  0
   26.9913    0.7007   27.3952 H   0  0  0  0  0  0
   26.7582   -3.5773   27.1942 H   0  0  0  0  0  0
   29.1997   -3.7341   27.4696 H   0  0  0  0  0  0
   25.0715   -2.1067   26.5525 H   0  0  0  0  0  0
   32.8848   -3.5578   27.3100 H   0  0  0  0  0  0
   34.1077   -4.1392   25.2823 H   0  0  0  0  0  0
   31.8002   -1.3158   23.0476 H   0  0  0  0  0  0
   30.6025   -0.6839   25.0748 H   0  0  0  0  0  0
   32.6510   -3.2979   21.3043 H   0  0  0  0  0  0
   33.3842   -1.7433   21.6313 H   0  0  0  0  0  0
   35.0844   -4.1387   20.9516 H   0  0  0  0  0  0
   34.3646   -3.2369   19.6582 H   0  0  0  0  0  0
   37.2282   -3.7422   20.6639 H   0  0  0  0  0  0
   36.9485   -3.0187   19.1059 H   0  0  0  0  0  0
   39.2285   -2.5244   20.0917 H   0  0  0  0  0  0
   38.3445   -1.0314   19.8438 H   0  0  0  0  0  0
   38.4663   -1.7357   21.4628 H   0  0  0  0  0  0
   34.7044   -0.4105   20.6638 H   0  0  0  0  0  0
   36.3806   -0.1745   20.4132 H   0  0  0  0  0  0
   35.1465    0.2059   18.3071 H   0  0  0  0  0  0
   36.1613   -1.2000   18.0769 H   0  0  0  0  0  0
   34.4300   -1.3977   18.3637 H   0  0  0  0  0  0
  1  2  1  0  0  0
  1 29  1  0  0  0
  1 30  1  0  0  0
  1 31  1  0  0  0
  2  3  1  0  0  0
  2 32  1  0  0  0
  2 33  1  0  0  0
  3  4  1  0  0  0
  3 34  1  0  0  0
  3 35  1  0  0  0
  4  5  1  0  0  0
  4 36  1  0  0  0
  4 37  1  0  0  0
  5  6  1  0  0  0
  5 38  1  0  0  0
  5 39  1  0  0  0
  6  7  2  0  0  0
  6 40  1  0  0  0
  7  8  1  0  0  0
  7 15  1  0  0  0
  8 13  1  0  0  0
  8  9  2  0  0  0
  9 10  1  0  0  0
  9 41  1  0  0  0
 10 11  2  0  0  0
 10 42  1  0  0  0
 11 12  1  0  0  0
 11 14  1  0  0  0
 12 13  2  0  0  0
 12 43  1  0  0  0
 13 44  1  0  0  0
 14 45  1  0  0  0
 15 20  1  0  0  0
 15 16  2  0  0  0
 16 17  1  0  0  0
 16 46  1  0  0  0
 17 18  2  0  0  0
 17 47  1  0  0  0
 18 19  1  0  0  0
 18 21  1  0  0  0
 19 20  2  0  0  0
 19 48  1  0  0  0
 20 49  1  0  0  0
 21 22  1  0  0  0
 22 23  1  0  0  0
 22 50  1  0  0  0
 22 51  1  0  0  0
 23 24  1  0  0  0
 23 52  1  0  0  0
 23 53  1  0  0  0
 24 25  1  0  0  0
 24 27  1  0  0  0
 25 26  1  0  0  0
 25 54  1  0  0  0
 25 55  1  0  0  0
 26 56  1  0  0  0
 26 57  1  0  0  0
 26 58  1  0  0  0
 27 28  1  0  0  0
 27 59  1  0  0  0
 27 60  1  0  0  0
 28 61  1  0  0  0
 28 62  1  0  0  0
 28 63  1  0  0  0
M  END
> <s_m_entry_id>
17155

> <s_m_entry_name>
ligand_docking-pose.82

> <s_m_Source_Path>
/home/csk/Desktop/cluster/DUD-E-result/esr1

> <s_m_Source_File>
ligand_docking-pose.sdf

> <i_m_Source_File_Index>
82

> <i_lp_mmshare_version>
53161

> <i_f3d_flags>
0

> <r_lp_tautomer_probability>
1

> <s_lp_Force_Field>
OPLS_2005

> <r_lp_Energy>
31.644289

> <b_lp_Chiralities_Consistent>
1

> <s_lp_Variant>
11939-1

> <s_i_glide_gridfile>
glide-grid_1sj0

> <i_i_glide_lignum>
1441

> <i_i_glide_rotatable_bonds>
13

> <r_i_docking_score>
-10.0106812250853

> <r_i_glide_ligand_efficiency>
-0.357524329467333

> <r_i_glide_ligand_efficiency_sa>
-1.08565443483187

> <r_i_glide_ligand_efficiency_ln>
-2.31075915312236

> <r_i_glide_gscore>
-10.0106812250853

> <r_i_glide_lipo>
-5.99016075127861

> <r_i_glide_hbond>
-0.194837926330812

> <r_i_glide_metal>
0

> <r_i_glide_rewards>
-1.70693957550111

> <r_i_glide_evdw>
-46.6119537353516

> <r_i_glide_ecoul>
-4.18805646896362

> <r_i_glide_erotb>
0.840063185137321

> <r_i_glide_esite>
0

> <r_i_glide_emodel>
-76.483489731355

> <r_i_glide_energy>
-50.8000102043152

> <r_i_glide_einternal>
12.2705965042114

> <i_i_glide_confnum>
14

> <i_i_glide_posenum>
193

> <r_i_glide_eff_state_penalty>
0

> <s_user_duplicate_titles>
11939

> <s_m_subgroup_title>
dock_pv

> <s_m_subgroupid>
dock_pv1

> <b_m_subgroup_collapsed>
0

$$$$
303676
                    3D
 Schrodinger Suite 2021-1.
 60 64  0  0  1  0            999 V2000
   35.2599    1.6530   27.9696 C   0  0  0  0  0  0
   34.8600    0.8742   29.0552 C   0  0  0  0  0  0
   33.5466    0.4259   29.1334 C   0  0  0  0  0  0
   32.6430    0.7640   28.1224 C   0  0  0  0  0  0
   33.0717    1.5385   27.0437 C   0  0  0  0  0  0
   34.3709    1.9932   26.9695 C   0  0  0  0  0  0
   31.1937    0.3026   28.2131 C   0  0  2  0  0  0
   30.9471   -1.1596   27.7532 C   0  0  1  0  0  0
   29.4706   -1.5860   27.8462 C   0  0  0  0  0  0
   29.1648   -2.9420   27.7128 C   0  0  0  0  0  0
   27.8603   -3.4104   27.7192 C   0  0  0  0  0  0
   26.8247   -2.5057   27.8628 C   0  0  0  0  0  0
   27.0859   -1.1494   27.9865 C   0  0  0  0  0  0
   28.3981   -0.6715   28.0076 C   0  0  0  0  0  0
   28.6237    0.8064   28.2731 C   0  0  0  0  0  0
   30.0358    1.4580   27.4157 S   0  0  0  0  0  0
   25.5458   -2.9501   27.9108 O   0  0  0  0  0  0
   31.5484   -1.5367   26.3835 C   0  0  0  0  0  0
   32.5546   -2.5068   26.3031 C   0  0  0  0  0  0
   33.0675   -2.8942   25.0658 C   0  0  0  0  0  0
   32.5857   -2.3045   23.8877 C   0  0  0  0  0  0
   31.6096   -1.3192   23.9748 C   0  0  0  0  0  0
   31.0817   -0.9429   25.2061 C   0  0  0  0  0  0
   33.0033   -2.6200   22.6096 O   0  0  0  0  0  0
   33.9341   -3.6799   22.4159 C   0  0  0  0  0  0
   33.9440   -4.1392   20.9436 C   0  0  0  0  0  0
   34.7687   -3.2914   20.0754 N   0  0  0  0  0  0
   34.2457   -1.9501   19.8632 C   0  0  0  0  0  0
   34.9719   -1.4170   18.6266 C   0  0  0  0  0  0
   35.4084   -2.6778   17.8755 C   0  0  0  0  0  0
   34.8572   -3.8246   18.7234 C   0  0  0  0  0  0
   30.9697    0.3609   29.2797 H   0  0  0  0  0  0
   31.4746   -1.7785   28.4822 H   0  0  0  0  0  0
   36.2755    1.9984   27.8641 H   0  0  0  0  0  0
   35.5740    0.6139   29.8228 H   0  0  0  0  0  0
   33.2364   -0.1776   29.9741 H   0  0  0  0  0  0
   32.3957    1.8166   26.2639 H   0  0  0  0  0  0
   34.6897    2.5977   26.1342 H   0  0  0  0  0  0
   29.9646   -3.6484   27.5773 H   0  0  0  0  0  0
   27.6595   -4.4661   27.6115 H   0  0  0  0  0  0
   26.2585   -0.4660   28.1133 H   0  0  0  0  0  0
   28.8547    0.9830   29.3254 H   0  0  0  0  0  0
   27.7617    1.4158   27.9984 H   0  0  0  0  0  0
   25.2511   -3.3422   27.0678 H   0  0  0  0  0  0
   32.9356   -2.9772   27.1976 H   0  0  0  0  0  0
   33.8388   -3.6485   25.0405 H   0  0  0  0  0  0
   31.2599   -0.8536   23.0676 H   0  0  0  0  0  0
   30.2987   -0.2015   25.2319 H   0  0  0  0  0  0
   33.6606   -4.5420   23.0248 H   0  0  0  0  0  0
   34.9226   -3.3421   22.7265 H   0  0  0  0  0  0
   32.9206   -4.1886   20.5666 H   0  0  0  0  0  0
   34.3252   -5.1599   20.9018 H   0  0  0  0  0  0
   34.4593   -1.3469   20.7451 H   0  0  0  0  0  0
   33.1605   -1.9445   19.7441 H   0  0  0  0  0  0
   35.8284   -0.8043   18.9111 H   0  0  0  0  0  0
   34.3083   -0.7960   18.0230 H   0  0  0  0  0  0
   35.0050   -2.7087   16.8632 H   0  0  0  0  0  0
   36.4947   -2.7395   17.7967 H   0  0  0  0  0  0
   33.8980   -4.1964   18.3571 H   0  0  0  0  0  0
   35.5177   -4.6926   18.7321 H   0  0  0  0  0  0
  1  6  1  0  0  0
  1  2  2  0  0  0
  1 34  1  0  0  0
  2  3  1  0  0  0
  2 35  1  0  0  0
  3  4  2  0  0  0
  3 36  1  0  0  0
  4  5  1  0  0  0
  4  7  1  0  0  0
  5  6  2  0  0  0
  5 37  1  0  0  0
  6 38  1  0  0  0
  7 32  1  0  0  0
  7 16  1  0  0  0
  7  8  1  0  0  0
  8 33  1  0  0  0
  8  9  1  0  0  0
  8 18  1  0  0  0
  9 14  2  0  0  0
  9 10  1  0  0  0
 10 11  2  0  0  0
 10 39  1  0  0  0
 11 12  1  0  0  0
 11 40  1  0  0  0
 12 13  2  0  0  0
 12 17  1  0  0  0
 13 14  1  0  0  0
 13 41  1  0  0  0
 14 15  1  0  0  0
 15 16  1  0  0  0
 15 42  1  0  0  0
 15 43  1  0  0  0
 17 44  1  0  0  0
 18 23  1  0  0  0
 18 19  2  0  0  0
 19 20  1  0  0  0
 19 45  1  0  0  0
 20 21  2  0  0  0
 20 46  1  0  0  0
 21 22  1  0  0  0
 21 24  1  0  0  0
 22 23  2  0  0  0
 22 47  1  0  0  0
 23 48  1  0  0  0
 24 25  1  0  0  0
 25 26  1  0  0  0
 25 49  1  0  0  0
 25 50  1  0  0  0
 26 27  1  0  0  0
 26 51  1  0  0  0
 26 52  1  0  0  0
 27 31  1  0  0  0
 27 28  1  0  0  0
 28 29  1  0  0  0
 28 53  1  0  0  0
 28 54  1  0  0  0
 29 30  1  0  0  0
 29 55  1  0  0  0
 29 56  1  0  0  0
 30 31  1  0  0  0
 30 57  1  0  0  0
 30 58  1  0  0  0
 31 59  1  0  0  0
 31 60  1  0  0  0
M  END
> <s_m_entry_id>
17156

> <s_m_entry_name>
ligand_docking-pose.83

> <s_m_Source_Path>
/home/csk/Desktop/cluster/DUD-E-result/esr1

> <s_m_Source_File>
ligand_docking-pose.sdf

> <i_m_Source_File_Index>
83

> <i_lp_mmshare_version>
53161

> <i_f3d_flags>
0

> <r_lp_tautomer_probability>
0.999999999997365

> <s_lp_Force_Field>
OPLS_2005

> <r_lp_Energy>
45.353383

> <b_lp_Chiralities_Consistent>
1

> <s_lp_Variant>
303676-1

> <s_i_glide_gridfile>
glide-grid_1sj0

> <i_i_glide_lignum>
488

> <i_i_glide_rotatable_bonds>
7

> <r_i_docking_score>
-10.0093397751626

> <r_i_glide_ligand_efficiency>
-0.322881928231052

> <r_i_glide_ligand_efficiency_sa>
-1.01429504119083

> <r_i_glide_ligand_efficiency_ln>
-2.25741286872406

> <r_i_glide_gscore>
-10.0093397751626

> <r_i_glide_lipo>
-5.55069910428856

> <r_i_glide_hbond>
-0.16

> <r_i_glide_metal>
0

> <r_i_glide_rewards>
-1.36636531045703

> <r_i_glide_evdw>
-45.882266998291

> <r_i_glide_ecoul>
-6.74610042572021

> <r_i_glide_erotb>
0.373753053355566

> <r_i_glide_esite>
0

> <r_i_glide_emodel>
-82.1401085916428

> <r_i_glide_energy>
-52.6283674240112

> <r_i_glide_einternal>
5.98540019989014

> <i_i_glide_confnum>
11

> <i_i_glide_posenum>
140

> <r_i_glide_eff_state_penalty>
0

> <s_user_duplicate_titles>
303676

> <s_m_subgroup_title>
dock_pv

> <s_m_subgroupid>
dock_pv1

> <b_m_subgroup_collapsed>
0

$$$$
44512
                    3D
 Schrodinger Suite 2021-1.
 42 45  0  0  1  0            999 V2000
   33.3290   -2.9005   24.6938 C   0  0  0  0  0  0
   33.4422   -3.7420   23.6030 C   0  0  0  0  0  0
   32.6159   -3.6087   22.5107 C   0  0  0  0  0  0
   31.6600   -2.6071   22.5089 C   0  0  0  0  0  0
   31.5227   -1.7562   23.6167 C   0  0  0  0  0  0
   32.3314   -1.9136   24.7544 C   0  0  0  0  0  0
   32.1902   -0.9504   25.9744 C   0  0  1  0  0  0
   30.7985   -0.2795   26.2532 C   0  0  2  0  0  0
   30.9693    0.8148   27.1630 O   0  0  0  0  0  0
   31.5722    0.4829   28.3579 C   0  0  0  0  0  0
   31.1621    1.1914   29.4843 C   0  0  0  0  0  0
   31.7113    0.8723   30.7233 C   0  0  0  0  0  0
   32.7047   -0.0882   30.8268 C   0  0  0  0  0  0
   33.1034   -0.8050   29.7085 C   0  0  0  0  0  0
   32.5339   -0.5356   28.4606 C   0  0  0  0  0  0
   32.7662   -1.4562   27.3232 C   0  0  0  0  0  0
   33.2600   -2.5612   27.5389 O   0  0  0  0  0  0
   31.2601    1.4581   31.8639 O   0  0  0  0  0  0
   29.6146   -1.1819   26.6658 C   0  0  0  0  0  0
   29.7293   -2.2086   27.6147 C   0  0  0  0  0  0
   28.6568   -3.0345   27.8992 C   0  0  0  0  0  0
   27.4562   -2.8458   27.2417 C   0  0  0  0  0  0
   27.2845   -1.7859   26.3579 C   0  0  0  0  0  0
   28.3644   -0.9477   26.0880 C   0  0  0  0  0  0
   26.4600   -3.7418   27.4640 O   0  0  0  0  0  0
   32.7794   -4.4785   21.4640 O   0  0  0  0  0  0
   32.8597   -0.1370   25.6975 H   0  0  0  0  0  0
   30.4944    0.2156   25.3323 H   0  0  0  0  0  0
   34.0587   -3.0528   25.4672 H   0  0  0  0  0  0
   34.1289   -4.5595   23.6205 H   0  0  0  0  0  0
   30.9989   -2.5419   21.6581 H   0  0  0  0  0  0
   30.7573   -0.9984   23.5795 H   0  0  0  0  0  0
   30.3946    1.9440   29.3930 H   0  0  0  0  0  0
   33.1449   -0.3104   31.7860 H   0  0  0  0  0  0
   33.8344   -1.5932   29.8342 H   0  0  0  0  0  0
   30.5736    2.1080   31.7012 H   0  0  0  0  0  0
   30.6305   -2.4245   28.1538 H   0  0  0  0  0  0
   28.7697   -3.8458   28.6034 H   0  0  0  0  0  0
   26.3355   -1.6342   25.8634 H   0  0  0  0  0  0
   28.2355   -0.1372   25.3896 H   0  0  0  0  0  0
   25.7645   -3.7199   26.7800 H   0  0  0  0  0  0
   31.9930   -4.7317   20.9588 H   0  0  0  0  0  0
  1  6  1  0  0  0
  1  2  2  0  0  0
  1 29  1  0  0  0
  2  3  1  0  0  0
  2 30  1  0  0  0
  3  4  2  0  0  0
  3 26  1  0  0  0
  4  5  1  0  0  0
  4 31  1  0  0  0
  5  6  2  0  0  0
  5 32  1  0  0  0
  6  7  1  0  0  0
  7 27  1  0  0  0
  7 16  1  0  0  0
  7  8  1  0  0  0
  8 28  1  0  0  0
  8  9  1  0  0  0
  8 19  1  0  0  0
  9 10  1  0  0  0
 10 15  2  0  0  0
 10 11  1  0  0  0
 11 12  2  0  0  0
 11 33  1  0  0  0
 12 13  1  0  0  0
 12 18  1  0  0  0
 13 14  2  0  0  0
 13 34  1  0  0  0
 14 15  1  0  0  0
 14 35  1  0  0  0
 15 16  1  0  0  0
 16 17  2  0  0  0
 18 36  1  0  0  0
 19 24  1  0  0  0
 19 20  2  0  0  0
 20 21  1  0  0  0
 20 37  1  0  0  0
 21 22  2  0  0  0
 21 38  1  0  0  0
 22 23  1  0  0  0
 22 25  1  0  0  0
 23 24  2  0  0  0
 23 39  1  0  0  0
 24 40  1  0  0  0
 25 41  1  0  0  0
 26 42  1  0  0  0
M  END
> <s_m_entry_id>
17157

> <s_m_entry_name>
ligand_docking-pose.84

> <s_m_Source_Path>
/home/csk/Desktop/cluster/DUD-E-result/esr1

> <s_m_Source_File>
ligand_docking-pose.sdf

> <i_m_Source_File_Index>
84

> <i_lp_mmshare_version>
53161

> <i_f3d_flags>
0

> <r_lp_tautomer_probability>
0.99994999999473

> <s_lp_Force_Field>
OPLS_2005

> <r_lp_Energy>
26.410702

> <b_lp_Chiralities_Consistent>
1

> <s_lp_Variant>
44512-1

> <s_i_glide_gridfile>
glide-grid_1sj0

> <i_i_glide_lignum>
495

> <i_i_glide_rotatable_bonds>
5

> <r_i_docking_score>
-10.0088671808729

> <r_i_glide_ligand_efficiency>
-0.384956430033573

> <r_i_glide_ligand_efficiency_sa>
-1.14043190924405

> <r_i_glide_ligand_efficiency_ln>
-2.35054961565608

> <r_i_glide_gscore>
-10.0088671808729

> <r_i_glide_lipo>
-4.55124601499632

> <r_i_glide_hbond>
-0.296581605291329

> <r_i_glide_metal>
0

> <r_i_glide_rewards>
-2.2795313025528

> <r_i_glide_evdw>
-37.9815559387207

> <r_i_glide_ecoul>
-8.64111709594727

> <r_i_glide_erotb>
0.313737103295681

> <r_i_glide_esite>
0

> <r_i_glide_emodel>
-40.4240531156376

> <r_i_glide_energy>
-46.622673034668

> <r_i_glide_einternal>
21.2699279785156

> <i_i_glide_confnum>
19

> <i_i_glide_posenum>
287

> <r_i_glide_eff_state_penalty>
0

> <s_user_duplicate_titles>
44512

> <s_m_subgroup_title>
dock_pv

> <s_m_subgroupid>
dock_pv1

> <b_m_subgroup_collapsed>
0

$$$$
373280
                    3D
 Schrodinger Suite 2021-1.
 42 45  0  0  1  0            999 V2000
   32.4518   -2.5000   22.9768 C   0  0  0  0  0  0
   33.1057   -3.4950   23.6941 C   0  0  0  0  0  0
   33.3004   -3.3420   25.0641 C   0  0  0  0  0  0
   32.8600   -2.1890   25.7167 C   0  0  0  0  0  0
   32.2118   -1.1900   24.9824 C   0  0  0  0  0  0
   32.0063   -1.3475   23.6186 C   0  0  0  0  0  0
   33.1346   -2.0050   27.2172 C   0  0  0  0  0  0
   32.1026   -1.2716   27.9324 N   0  0  0  0  0  0
   32.1690   -0.2823   28.9104 C   0  0  0  0  0  0
   30.8108    0.0614   29.1475 C   0  0  0  0  0  0
   30.4959    1.0580   30.0894 C   0  0  0  0  0  0
   31.5043    1.4580   30.9500 C   0  0  0  0  0  0
   32.8236    1.1330   30.6966 C   0  0  0  0  0  0
   33.2138    0.3818   29.5799 C   0  0  0  0  0  0
   34.6722    0.4399   29.1678 C   0  0  0  0  0  0
   35.3008   -0.6915   29.4640 F   0  0  0  0  0  0
   34.7662    0.6825   27.8640 F   0  0  0  0  0  0
   35.2600    1.4580   29.7828 F   0  0  0  0  0  0
   30.0665   -0.7788   28.2633 C   0  0  0  0  0  0
   30.8419   -1.6375   27.6812 N   0  0  0  0  0  0
   28.6352   -0.7644   27.9267 C   0  0  0  0  0  0
   27.9330   -1.9450   27.6645 C   0  0  0  0  0  0
   26.6016   -1.8767   27.2776 C   0  0  0  0  0  0
   25.9915   -0.6352   27.1386 C   0  0  0  0  0  0
   26.6798    0.5286   27.4640 C   0  0  0  0  0  0
   28.0047    0.4710   27.8509 C   0  0  0  0  0  0
   24.7137   -0.5420   26.6640 O   0  0  0  0  0  0
   32.2933   -2.6220   21.9149 H   0  0  0  0  0  0
   33.4470   -4.3892   23.1927 H   0  0  0  0  0  0
   33.7926   -4.1302   25.6106 H   0  0  0  0  0  0
   31.8792   -0.2797   25.4600 H   0  0  0  0  0  0
   31.5198   -0.5629   23.0640 H   0  0  0  0  0  0
   33.2495   -2.9724   27.7093 H   0  0  0  0  0  0
   34.0597   -1.4594   27.3396 H   0  0  0  0  0  0
   29.4769    1.3707   30.2628 H   0  0  0  0  0  0
   31.2772    2.0990   31.7868 H   0  0  0  0  0  0
   33.5652    1.5812   31.3426 H   0  0  0  0  0  0
   28.4200   -2.9073   27.7356 H   0  0  0  0  0  0
   26.0600   -2.7851   27.0640 H   0  0  0  0  0  0
   26.1946    1.4873   27.4332 H   0  0  0  0  0  0
   28.5353    1.3880   28.0603 H   0  0  0  0  0  0
   24.4600    0.3818   26.5413 H   0  0  0  0  0  0
  1  6  1  0  0  0
  1  2  2  0  0  0
  1 28  1  0  0  0
  2  3  1  0  0  0
  2 29  1  0  0  0
  3  4  2  0  0  0
  3 30  1  0  0  0
  4  5  1  0  0  0
  4  7  1  0  0  0
  5  6  2  0  0  0
  5 31  1  0  0  0
  6 32  1  0  0  0
  7  8  1  0  0  0
  7 33  1  0  0  0
  7 34  1  0  0  0
  8 20  1  0  0  0
  8  9  1  0  0  0
  9 14  2  0  0  0
  9 10  1  0  0  0
 10 11  2  0  0  0
 10 19  1  0  0  0
 11 12  1  0  0  0
 11 35  1  0  0  0
 12 13  2  0  0  0
 12 36  1  0  0  0
 13 14  1  0  0  0
 13 37  1  0  0  0
 14 15  1  0  0  0
 15 16  1  0  0  0
 15 17  1  0  0  0
 15 18  1  0  0  0
 19 20  2  0  0  0
 19 21  1  0  0  0
 21 26  1  0  0  0
 21 22  2  0  0  0
 22 23  1  0  0  0
 22 38  1  0  0  0
 23 24  2  0  0  0
 23 39  1  0  0  0
 24 25  1  0  0  0
 24 27  1  0  0  0
 25 26  2  0  0  0
 25 40  1  0  0  0
 26 41  1  0  0  0
 27 42  1  0  0  0
M  END
> <s_m_entry_id>
17158

> <s_m_entry_name>
ligand_docking-pose.85

> <s_m_Source_Path>
/home/csk/Desktop/cluster/DUD-E-result/esr1

> <s_m_Source_File>
ligand_docking-pose.sdf

> <i_m_Source_File_Index>
85

> <i_lp_mmshare_version>
53161

> <i_f3d_flags>
0

> <r_lp_tautomer_probability>
0.999999999997365

> <s_lp_Force_Field>
OPLS_2005

> <r_lp_Energy>
22.10843

> <b_lp_Chiralities_Consistent>
1

> <s_lp_Variant>
373280-1

> <s_i_glide_gridfile>
glide-grid_1sj0

> <i_i_glide_lignum>
576

> <i_i_glide_rotatable_bonds>
5

> <r_i_docking_score>
-10.0005950073515

> <r_i_glide_ligand_efficiency>
-0.370392407679686

> <r_i_glide_ligand_efficiency_sa>
-1.1111772218183

> <r_i_glide_ligand_efficiency_ln>
-2.32797364501723

> <r_i_glide_gscore>
-10.0005950073515

> <r_i_glide_lipo>
-5.18408219958125

> <r_i_glide_hbond>
-0.403634857964036

> <r_i_glide_metal>
0

> <r_i_glide_rewards>
-2.60654040224276

> <r_i_glide_evdw>
-35.0462074279785

> <r_i_glide_ecoul>
-3.12270712852478

> <r_i_glide_erotb>
0.426041916868047

> <r_i_glide_esite>
-0.0116630237538643

> <r_i_glide_emodel>
-49.2955915789481

> <r_i_glide_energy>
-38.1689145565033

> <r_i_glide_einternal>
4.20668125152588

> <i_i_glide_confnum>
5

> <i_i_glide_posenum>
177

> <r_i_glide_eff_state_penalty>
0

> <s_user_duplicate_titles>
373280

> <s_m_subgroup_title>
dock_pv

> <s_m_subgroupid>
dock_pv1

> <b_m_subgroup_collapsed>
0

$$$$
43771
                    3D
 Schrodinger Suite 2021-1.
 67 71  0  0  1  0            999 V2000
   28.8593    2.3108   29.0642 C   0  0  0  0  0  0
   28.4301    1.1379   28.2213 C   0  0  0  0  0  0
   27.0891    1.0683   27.8629 C   0  0  0  0  0  0
   26.5782   -0.0218   27.1808 C   0  0  0  0  0  0
   27.4478   -0.9104   26.5813 C   0  0  0  0  0  0
   28.8364   -0.7345   26.7678 C   0  0  0  0  0  0
   29.3299    0.1387   27.7710 C   0  0  0  0  0  0
   30.6926    0.0515   28.1522 C   0  0  0  0  0  0
   31.1906    0.5913   29.3746 C   0  0  0  0  0  0
   32.5428    0.7783   29.5667 C   0  0  0  0  0  0
   33.4404    0.3533   28.5971 C   0  0  0  0  0  0
   32.9767   -0.4233   27.5404 C   0  0  0  0  0  0
   31.6075   -0.5862   27.2681 C   0  0  0  0  0  0
   31.1193   -1.2694   26.1104 C   0  0  0  0  0  0
   29.7466   -1.3405   25.9232 C   0  0  0  0  0  0
   31.9607   -1.9198   25.0701 C   0  0  0  0  0  0
   32.9728   -2.8193   25.3979 C   0  0  0  0  0  0
   33.6604   -3.4825   24.3913 C   0  0  0  0  0  0
   33.3040   -3.3431   23.0530 C   0  0  0  0  0  0
   32.2903   -2.4404   22.7234 C   0  0  0  0  0  0
   31.6588   -1.7111   23.7229 C   0  0  0  0  0  0
   33.9729   -4.1360   22.1398 O   0  0  0  0  0  0
   33.5790   -4.1415   20.7619 C   0  0  0  0  0  0
   34.0517   -2.8971   19.9626 C   0  0  0  0  0  0
   35.4627   -2.9270   19.5513 N   0  0  0  0  0  0
   36.3996   -2.8954   20.6842 C   0  0  0  0  0  0
   37.8673   -2.9843   20.2137 C   0  0  0  0  0  0
   38.2166   -1.9133   19.1744 C   0  0  0  0  0  0
   37.1785   -1.9175   18.0446 C   0  0  0  0  0  0
   35.7333   -1.8553   18.5791 C   0  0  0  0  0  0
   34.8953    0.7885   28.6189 C   0  0  1  0  0  0
   35.1789    1.8180   27.5121 C   0  0  0  0  0  0
   35.2600    1.4204   29.8197 O   0  0  0  0  0  0
   25.2297   -0.1421   27.0112 O   0  0  0  0  0  0
   29.8056    2.7404   28.7446 H   0  0  0  0  0  0
   28.8722    1.9958   30.1023 H   0  0  0  0  0  0
   28.1027    3.0838   29.0635 H   0  0  0  0  0  0
   26.4363    1.8472   28.2134 H   0  0  0  0  0  0
   27.0707   -1.6619   25.8996 H   0  0  0  0  0  0
   30.5425    0.9088   30.1670 H   0  0  0  0  0  0
   32.8764    1.3100   30.4458 H   0  0  0  0  0  0
   33.6598   -0.8439   26.8505 H   0  0  0  0  0  0
   29.3385   -1.7419   25.0177 H   0  0  0  0  0  0
   33.2211   -3.0213   26.4294 H   0  0  0  0  0  0
   34.4589   -4.1432   24.6645 H   0  0  0  0  0  0
   31.9720   -2.2954   21.7043 H   0  0  0  0  0  0
   30.8769   -1.0166   23.4601 H   0  0  0  0  0  0
   33.9889   -5.0438   20.3044 H   0  0  0  0  0  0
   32.4939   -4.2526   20.6876 H   0  0  0  0  0  0
   33.4220   -2.8277   19.0729 H   0  0  0  0  0  0
   33.8732   -1.9840   20.5302 H   0  0  0  0  0  0
   36.2304   -1.9971   21.2801 H   0  0  0  0  0  0
   36.1962   -3.7384   21.3408 H   0  0  0  0  0  0
   38.5334   -2.8690   21.0664 H   0  0  0  0  0  0
   38.0696   -3.9848   19.8297 H   0  0  0  0  0  0
   39.2198   -2.0718   18.7769 H   0  0  0  0  0  0
   38.2266   -0.9416   19.6632 H   0  0  0  0  0  0
   37.2963   -2.7933   17.4076 H   0  0  0  0  0  0
   37.3531   -1.0625   17.3918 H   0  0  0  0  0  0
   35.0456   -1.9613   17.7380 H   0  0  0  0  0  0
   35.5239   -0.8806   19.0268 H   0  0  0  0  0  0
   35.5251   -0.0932   28.4869 H   0  0  0  0  0  0
   34.8583    1.4592   26.5378 H   0  0  0  0  0  0
   34.6432    2.7494   27.6943 H   0  0  0  0  0  0
   36.2398    2.0501   27.4396 H   0  0  0  0  0  0
   36.2045    1.6108   29.7525 H   0  0  0  0  0  0
   24.8131    0.7349   27.0614 H   0  0  0  0  0  0
  1  2  1  0  0  0
  1 35  1  0  0  0
  1 36  1  0  0  0
  1 37  1  0  0  0
  2  7  1  0  0  0
  2  3  2  0  0  0
  3  4  1  0  0  0
  3 38  1  0  0  0
  4  5  2  0  0  0
  4 34  1  0  0  0
  5  6  1  0  0  0
  5 39  1  0  0  0
  6 15  2  0  0  0
  6  7  1  0  0  0
  7  8  2  0  0  0
  8 13  1  0  0  0
  8  9  1  0  0  0
  9 10  2  0  0  0
  9 40  1  0  0  0
 10 11  1  0  0  0
 10 41  1  0  0  0
 11 12  2  0  0  0
 11 31  1  0  0  0
 12 13  1  0  0  0
 12 42  1  0  0  0
 13 14  2  0  0  0
 14 15  1  0  0  0
 14 16  1  0  0  0
 15 43  1  0  0  0
 16 21  1  0  0  0
 16 17  2  0  0  0
 17 18  1  0  0  0
 17 44  1  0  0  0
 18 19  2  0  0  0
 18 45  1  0  0  0
 19 20  1  0  0  0
 19 22  1  0  0  0
 20 21  2  0  0  0
 20 46  1  0  0  0
 21 47  1  0  0  0
 22 23  1  0  0  0
 23 24  1  0  0  0
 23 48  1  0  0  0
 23 49  1  0  0  0
 24 25  1  0  0  0
 24 50  1  0  0  0
 24 51  1  0  0  0
 25 30  1  0  0  0
 25 26  1  0  0  0
 26 27  1  0  0  0
 26 52  1  0  0  0
 26 53  1  0  0  0
 27 28  1  0  0  0
 27 54  1  0  0  0
 27 55  1  0  0  0
 28 29  1  0  0  0
 28 56  1  0  0  0
 28 57  1  0  0  0
 29 30  1  0  0  0
 29 58  1  0  0  0
 29 59  1  0  0  0
 30 60  1  0  0  0
 30 61  1  0  0  0
 31 32  1  0  0  0
 31 33  1  0  0  0
 31 62  1  0  0  0
 32 63  1  0  0  0
 32 64  1  0  0  0
 32 65  1  0  0  0
 33 66  1  0  0  0
 34 67  1  0  0  0
M  END
> <s_m_entry_id>
17159

> <s_m_entry_name>
ligand_docking-pose.86

> <s_m_Source_Path>
/home/csk/Desktop/cluster/DUD-E-result/esr1

> <s_m_Source_File>
ligand_docking-pose.sdf

> <i_m_Source_File_Index>
86

> <i_lp_mmshare_version>
53161

> <i_f3d_flags>
0

> <r_lp_tautomer_probability>
1

> <s_lp_Force_Field>
OPLS_2005

> <r_lp_Energy>
54.276155

> <b_lp_Chiralities_Consistent>
1

> <s_lp_Variant>
43771-2

> <s_i_glide_gridfile>
glide-grid_1sj0

> <i_i_glide_lignum>
945

> <i_i_glide_rotatable_bonds>
8

> <r_i_docking_score>
-9.99669290921319

> <r_i_glide_ligand_efficiency>
-0.294020379682741

> <r_i_glide_ligand_efficiency_sa>
-0.95251189071666

> <r_i_glide_ligand_efficiency_ln>
-2.20854986138359

> <r_i_glide_gscore>
-9.99669290921319

> <r_i_glide_lipo>
-5.95618823293306

> <r_i_glide_hbond>
-0.608

> <r_i_glide_metal>
0

> <r_i_glide_rewards>
-1.20265678352538

> <r_i_glide_evdw>
-33.0561256408691

> <r_i_glide_ecoul>
-7.07335615158081

> <r_i_glide_erotb>
0.483961812025834

> <r_i_glide_esite>
0

> <r_i_glide_emodel>
-64.1706342571955

> <r_i_glide_energy>
-40.12948179245

> <r_i_glide_einternal>
5.288330078125

> <i_i_glide_confnum>
1

> <i_i_glide_posenum>
1

> <r_i_glide_eff_state_penalty>
0

> <s_user_duplicate_titles>
43771

> <s_m_subgroup_title>
dock_pv

> <s_m_subgroupid>
dock_pv1

> <b_m_subgroup_collapsed>
0

$$$$
52511
                    3D
 Schrodinger Suite 2021-1.
 49 51  0  0  1  0            999 V2000
   30.9426    0.9139   30.8527 C   0  0  0  0  0  0
   30.3495    0.9906   29.4346 C   0  0  0  0  0  0
   31.1074    0.2232   28.3472 C   0  0  0  0  0  0
   30.5421   -0.6981   27.5116 C   0  0  0  0  0  0
   29.1177   -1.1126   27.5352 C   0  0  0  0  0  0
   28.7910   -2.4705   27.6482 C   0  0  0  0  0  0
   27.4621   -2.8761   27.6077 C   0  0  0  0  0  0
   26.4593   -1.9225   27.4673 C   0  0  0  0  0  0
   26.7657   -0.5697   27.3551 C   0  0  0  0  0  0
   28.0960   -0.1674   27.3775 C   0  0  0  0  0  0
   31.3059   -1.3491   26.4232 C   0  0  0  0  0  0
   31.0656   -0.9417   25.1105 C   0  0  0  0  0  0
   31.7821   -1.5102   24.0671 C   0  0  0  0  0  0
   32.7250   -2.5049   24.3204 C   0  0  0  0  0  0
   32.9401   -2.9416   25.6288 C   0  0  0  0  0  0
   32.2408   -2.3557   26.6823 C   0  0  0  0  0  0
   33.5247   -3.0339   23.2106 C   0  0  0  0  0  0
   33.0237   -3.4050   22.0137 C   0  0  0  0  0  0
   33.8851   -3.7547   20.9178 C   0  0  0  0  0  0
   35.0378   -3.3408   20.7928 O   0  0  0  0  0  0
   33.2601   -4.5420   19.9980 O   0  0  0  0  0  0
   32.5230    0.6144   28.1948 C   0  0  0  0  0  0
   33.5270    0.1063   29.0259 C   0  0  0  0  0  0
   34.8438    0.5304   28.8565 C   0  0  0  0  0  0
   35.1443    1.4582   27.8601 C   0  0  0  0  0  0
   34.1505    1.9634   27.0333 C   0  0  0  0  0  0
   32.8398    1.5508   27.2129 C   0  0  0  0  0  0
   30.2925    1.4104   31.5738 H   0  0  0  0  0  0
   31.0751   -0.1192   31.1745 H   0  0  0  0  0  0
   31.9126    1.4108   30.9068 H   0  0  0  0  0  0
   30.3051    2.0361   29.1286 H   0  0  0  0  0  0
   29.3157    0.6621   29.4644 H   0  0  0  0  0  0
   29.5647   -3.2187   27.7483 H   0  0  0  0  0  0
   27.2077   -3.9239   27.6813 H   0  0  0  0  0  0
   25.4285   -2.2439   27.4573 H   0  0  0  0  0  0
   25.9791    0.1596   27.2363 H   0  0  0  0  0  0
   28.3327    0.8811   27.2639 H   0  0  0  0  0  0
   30.3461   -0.1649   24.8984 H   0  0  0  0  0  0
   31.6390   -1.1459   23.0638 H   0  0  0  0  0  0
   33.6595   -3.7191   25.8344 H   0  0  0  0  0  0
   32.4299   -2.6797   27.6954 H   0  0  0  0  0  0
   34.5936   -3.0555   23.3797 H   0  0  0  0  0  0
   31.9596   -3.4214   21.8205 H   0  0  0  0  0  0
   32.3913   -4.9031   20.2352 H   0  0  0  0  0  0
   33.2931   -0.6153   29.7966 H   0  0  0  0  0  0
   35.6305    0.1405   29.4870 H   0  0  0  0  0  0
   36.1606    1.7861   27.7112 H   0  0  0  0  0  0
   34.4020    2.6580   26.2472 H   0  0  0  0  0  0
   32.0613    1.9477   26.5861 H   0  0  0  0  0  0
  1  2  1  0  0  0
  1 28  1  0  0  0
  1 29  1  0  0  0
  1 30  1  0  0  0
  2  3  1  0  0  0
  2 31  1  0  0  0
  2 32  1  0  0  0
  3  4  2  0  0  0
  3 22  1  0  0  0
  4  5  1  0  0  0
  4 11  1  0  0  0
  5 10  1  0  0  0
  5  6  2  0  0  0
  6  7  1  0  0  0
  6 33  1  0  0  0
  7  8  2  0  0  0
  7 34  1  0  0  0
  8  9  1  0  0  0
  8 35  1  0  0  0
  9 10  2  0  0  0
  9 36  1  0  0  0
 10 37  1  0  0  0
 11 16  1  0  0  0
 11 12  2  0  0  0
 12 13  1  0  0  0
 12 38  1  0  0  0
 13 14  2  0  0  0
 13 39  1  0  0  0
 14 15  1  0  0  0
 14 17  1  0  0  0
 15 16  2  0  0  0
 15 40  1  0  0  0
 16 41  1  0  0  0
 17 18  2  0  0  0
 17 42  1  0  0  0
 18 19  1  0  0  0
 18 43  1  0  0  0
 19 20  2  0  0  0
 19 21  1  0  0  0
 21 44  1  0  0  0
 22 27  1  0  0  0
 22 23  2  0  0  0
 23 24  1  0  0  0
 23 45  1  0  0  0
 24 25  2  0  0  0
 24 46  1  0  0  0
 25 26  1  0  0  0
 25 47  1  0  0  0
 26 27  2  0  0  0
 26 48  1  0  0  0
 27 49  1  0  0  0
M  END
> <s_m_entry_id>
17160

> <s_m_entry_name>
ligand_docking-pose.87

> <s_m_Source_Path>
/home/csk/Desktop/cluster/DUD-E-result/esr1

> <s_m_Source_File>
ligand_docking-pose.sdf

> <i_m_Source_File_Index>
87

> <i_lp_mmshare_version>
53161

> <i_f3d_flags>
0

> <r_lp_tautomer_probability>
1

> <s_lp_Force_Field>
OPLS_2005

> <r_lp_Energy>
30.767575

> <b_lp_Chiralities_Consistent>
1

> <s_lp_Variant>
52511-1

> <s_i_glide_gridfile>
glide-grid_1sj0

> <i_i_glide_lignum>
1382

> <i_i_glide_rotatable_bonds>
7

> <r_i_docking_score>
-9.99479000898117

> <r_i_glide_ligand_efficiency>
-0.370177407740043

> <r_i_glide_ligand_efficiency_sa>
-1.11053222200009

> <r_i_glide_ligand_efficiency_ln>
-2.3266223370995

> <r_i_glide_gscore>
-9.99479000898117

> <r_i_glide_lipo>
-5.79173810028891

> <r_i_glide_hbond>
0

> <r_i_glide_metal>
0

> <r_i_glide_rewards>
-1.89244786363636

> <r_i_glide_evdw>
-49.6200675964355

> <r_i_glide_ecoul>
-4.73339986801147

> <r_i_glide_erotb>
0.91263247449036

> <r_i_glide_esite>
-0.0322231595227658

> <r_i_glide_emodel>
-79.615969606827

> <r_i_glide_energy>
-54.353467464447

> <r_i_glide_einternal>
10.3944959640503

> <i_i_glide_confnum>
93

> <i_i_glide_posenum>
231

> <r_i_glide_eff_state_penalty>
0

> <s_user_duplicate_titles>
52511

> <s_m_subgroup_title>
dock_pv

> <s_m_subgroupid>
dock_pv1

> <b_m_subgroup_collapsed>
0

$$$$
160074
                    3D
 Schrodinger Suite 2021-1.
 44 48  0  0  1  0            999 V2000
   31.9493    1.4579   31.0446 C   0  0  0  0  0  0
   30.9102    0.7599   30.4575 C   0  0  0  0  0  0
   31.1966   -0.3392   29.6515 C   0  0  0  0  0  0
   32.5155   -0.6632   29.3433 C   0  0  0  0  0  0
   33.5566    0.0919   29.8859 C   0  0  0  0  0  0
   33.2640    1.1352   30.7524 C   0  0  0  0  0  0
   32.8607   -1.8810   28.5759 C   0  0  0  0  0  0
   33.6598   -2.6762   29.0646 O   0  0  0  0  0  0
   32.4605   -2.0453   27.1755 C   0  0  0  0  0  0
   31.4524   -1.5185   26.3565 C   0  0  0  0  0  0
   31.7686   -1.9670   25.0276 C   0  0  0  0  0  0
   31.2607   -1.7729   23.7335 C   0  0  0  0  0  0
   31.7926   -2.5379   22.6790 C   0  0  0  0  0  0
   32.8770   -3.3905   22.8711 C   0  0  0  0  0  0
   33.4705   -3.5088   24.1210 C   0  0  0  0  0  0
   32.8707   -2.8250   25.1759 C   0  0  0  0  0  0
   33.2602   -2.8938   26.4686 O   0  0  0  0  0  0
   33.3575   -4.1396   21.8339 O   0  0  0  0  0  0
   30.2839   -0.6785   26.7194 C   0  0  0  0  0  0
   30.4865    0.6924   26.7452 C   0  0  0  0  0  0
   29.4562    1.5637   27.0652 C   0  0  0  0  0  0
   28.1817    1.0875   27.3488 C   0  0  0  0  0  0
   27.9372   -0.3053   27.3768 C   0  0  0  0  0  0
   29.0109   -1.2078   27.0946 C   0  0  0  0  0  0
   28.7706   -2.5981   27.2306 C   0  0  0  0  0  0
   27.5075   -3.0799   27.5517 C   0  0  0  0  0  0
   26.4574   -2.1988   27.7684 C   0  0  0  0  0  0
   26.6567   -0.8240   27.6890 C   0  0  0  0  0  0
   31.7313    2.2585   31.7300 H   0  0  0  0  0  0
   29.8953    1.0580   30.6764 H   0  0  0  0  0  0
   30.3831   -0.9501   29.2975 H   0  0  0  0  0  0
   34.5919   -0.1525   29.6860 H   0  0  0  0  0  0
   34.0596    1.7101   31.1949 H   0  0  0  0  0  0
   30.4176   -1.1176   23.5715 H   0  0  0  0  0  0
   31.3548   -2.4696   21.6938 H   0  0  0  0  0  0
   34.3174   -4.1467   24.2912 H   0  0  0  0  0  0
   32.7011   -4.3263   21.1543 H   0  0  0  0  0  0
   31.4692    1.0848   26.5300 H   0  0  0  0  0  0
   29.6593    2.6233   27.0838 H   0  0  0  0  0  0
   27.3792    1.7757   27.5742 H   0  0  0  0  0  0
   29.5748   -3.3003   27.0633 H   0  0  0  0  0  0
   27.3380   -4.1453   27.6186 H   0  0  0  0  0  0
   25.4761   -2.5929   27.9876 H   0  0  0  0  0  0
   25.8351   -0.1452   27.8620 H   0  0  0  0  0  0
  1  6  1  0  0  0
  1  2  2  0  0  0
  1 29  1  0  0  0
  2  3  1  0  0  0
  2 30  1  0  0  0
  3  4  2  0  0  0
  3 31  1  0  0  0
  4  5  1  0  0  0
  4  7  1  0  0  0
  5  6  2  0  0  0
  5 32  1  0  0  0
  6 33  1  0  0  0
  7  8  2  0  0  0
  7  9  1  0  0  0
  9 17  1  0  0  0
  9 10  2  0  0  0
 10 11  1  0  0  0
 10 19  1  0  0  0
 11 16  2  0  0  0
 11 12  1  0  0  0
 12 13  2  0  0  0
 12 34  1  0  0  0
 13 14  1  0  0  0
 13 35  1  0  0  0
 14 15  2  0  0  0
 14 18  1  0  0  0
 15 16  1  0  0  0
 15 36  1  0  0  0
 16 17  1  0  0  0
 18 37  1  0  0  0
 19 24  1  0  0  0
 19 20  2  0  0  0
 20 21  1  0  0  0
 20 38  1  0  0  0
 21 22  2  0  0  0
 21 39  1  0  0  0
 22 23  1  0  0  0
 22 40  1  0  0  0
 23 28  2  0  0  0
 23 24  1  0  0  0
 24 25  2  0  0  0
 25 26  1  0  0  0
 25 41  1  0  0  0
 26 27  2  0  0  0
 26 42  1  0  0  0
 27 28  1  0  0  0
 27 43  1  0  0  0
 28 44  1  0  0  0
M  END
> <s_m_entry_id>
17161

> <s_m_entry_name>
ligand_docking-pose.88

> <s_m_Source_Path>
/home/csk/Desktop/cluster/DUD-E-result/esr1

> <s_m_Source_File>
ligand_docking-pose.sdf

> <i_m_Source_File_Index>
88

> <i_lp_mmshare_version>
53161

> <i_f3d_flags>
0

> <r_lp_tautomer_probability>
1

> <s_lp_Force_Field>
OPLS_2005

> <r_lp_Energy>
27.864781

> <b_lp_Chiralities_Consistent>
1

> <s_lp_Variant>
160074-1

> <s_i_glide_gridfile>
glide-grid_1sj0

> <i_i_glide_lignum>
594

> <i_i_glide_rotatable_bonds>
4

> <r_i_docking_score>
-9.98058964193097

> <r_i_glide_ligand_efficiency>
-0.356449630068963

> <r_i_glide_ligand_efficiency_sa>
-1.08239101449432

> <r_i_glide_ligand_efficiency_ln>
-2.30381313220306

> <r_i_glide_gscore>
-9.98058964193097

> <r_i_glide_lipo>
-5.97225028354007

> <r_i_glide_hbond>
0

> <r_i_glide_metal>
0

> <r_i_glide_rewards>
-2.12238721012824

> <r_i_glide_evdw>
-42.3552055358887

> <r_i_glide_ecoul>
-1.35022830963135

> <r_i_glide_erotb>
0.434342374976476

> <r_i_glide_esite>
0

> <r_i_glide_emodel>
-59.8977161757962

> <r_i_glide_energy>
-43.70543384552

> <r_i_glide_einternal>
7.52724313735962

> <i_i_glide_confnum>
9

> <i_i_glide_posenum>
203

> <r_i_glide_eff_state_penalty>
0

> <s_user_duplicate_titles>
160074

> <s_m_subgroup_title>
dock_pv

> <s_m_subgroupid>
dock_pv1

> <b_m_subgroup_collapsed>
0

$$$$
159470
                    3D
 Schrodinger Suite 2021-1.
 44 48  0  0  1  0            999 V2000
   26.5203   -2.1974   27.6996 C   0  0  0  0  0  0
   27.5719   -3.0775   27.4844 C   0  0  0  0  0  0
   28.8521   -2.5961   27.2376 C   0  0  0  0  0  0
   29.1133   -1.2043   27.1699 C   0  0  0  0  0  0
   28.0331   -0.3073   27.4465 C   0  0  0  0  0  0
   26.7375   -0.8247   27.6919 C   0  0  0  0  0  0
   28.2817    1.0815   27.4679 C   0  0  0  0  0  0
   29.5648    1.5622   27.2470 C   0  0  0  0  0  0
   30.6088    0.7007   26.9275 C   0  0  0  0  0  0
   30.4006   -0.6724   26.8366 C   0  0  0  0  0  0
   31.5336   -1.5443   26.3987 C   0  0  0  0  0  0
   31.7896   -1.9908   25.0525 C   0  0  0  0  0  0
   31.2600   -1.7413   23.7776 C   0  0  0  0  0  0
   31.7236   -2.4941   22.6872 C   0  0  0  0  0  0
   32.7337   -3.4376   22.8308 C   0  0  0  0  0  0
   33.3159   -3.6684   24.0685 C   0  0  0  0  0  0
   32.8267   -2.9381   25.1521 C   0  0  0  0  0  0
   33.2587   -3.0408   26.4303 O   0  0  0  0  0  0
   32.5310   -2.1534   27.1682 C   0  0  0  0  0  0
   32.9466   -2.0512   28.5606 C   0  0  0  0  0  0
   33.6250   -2.9419   29.0641 O   0  0  0  0  0  0
   32.7032   -0.8150   29.3297 C   0  0  0  0  0  0
   31.4464   -0.5615   29.8878 C   0  0  0  0  0  0
   31.2602    0.5505   30.7113 C   0  0  0  0  0  0
   32.3250    1.3896   31.0061 C   0  0  0  0  0  0
   33.5689    1.1455   30.4335 C   0  0  0  0  0  0
   33.7646    0.0691   29.5768 C   0  0  0  0  0  0
   35.3391   -0.1420   28.8854 Cl  0  0  0  0  0  0
   33.1513   -4.1607   21.7509 O   0  0  0  0  0  0
   25.5274   -2.5909   27.8636 H   0  0  0  0  0  0
   27.3877   -4.1427   27.4911 H   0  0  0  0  0  0
   29.6531   -3.3006   27.0638 H   0  0  0  0  0  0
   25.9174   -0.1444   27.8653 H   0  0  0  0  0  0
   27.4753    1.7652   27.6894 H   0  0  0  0  0  0
   29.7348    2.6258   27.3073 H   0  0  0  0  0  0
   31.5895    1.1085   26.7259 H   0  0  0  0  0  0
   30.4644   -1.0231   23.6534 H   0  0  0  0  0  0
   31.2885   -2.3522   21.7098 H   0  0  0  0  0  0
   34.0615   -4.4307   24.1986 H   0  0  0  0  0  0
   30.6183   -1.2344   29.7072 H   0  0  0  0  0  0
   30.2993    0.7589   31.1527 H   0  0  0  0  0  0
   32.1847    2.2298   31.6695 H   0  0  0  0  0  0
   34.3901    1.8131   30.6550 H   0  0  0  0  0  0
   32.4615   -4.3340   21.0997 H   0  0  0  0  0  0
  1  6  1  0  0  0
  1  2  2  0  0  0
  1 30  1  0  0  0
  2  3  1  0  0  0
  2 31  1  0  0  0
  3  4  2  0  0  0
  3 32  1  0  0  0
  4 10  1  0  0  0
  4  5  1  0  0  0
  5  6  2  0  0  0
  5  7  1  0  0  0
  6 33  1  0  0  0
  7  8  2  0  0  0
  7 34  1  0  0  0
  8  9  1  0  0  0
  8 35  1  0  0  0
  9 10  2  0  0  0
  9 36  1  0  0  0
 10 11  1  0  0  0
 11 19  2  0  0  0
 11 12  1  0  0  0
 12 17  2  0  0  0
 12 13  1  0  0  0
 13 14  2  0  0  0
 13 37  1  0  0  0
 14 15  1  0  0  0
 14 38  1  0  0  0
 15 16  2  0  0  0
 15 29  1  0  0  0
 16 17  1  0  0  0
 16 39  1  0  0  0
 17 18  1  0  0  0
 18 19  1  0  0  0
 19 20  1  0  0  0
 20 21  2  0  0  0
 20 22  1  0  0  0
 22 27  1  0  0  0
 22 23  2  0  0  0
 23 24  1  0  0  0
 23 40  1  0  0  0
 24 25  2  0  0  0
 24 41  1  0  0  0
 25 26  1  0  0  0
 25 42  1  0  0  0
 26 27  2  0  0  0
 26 43  1  0  0  0
 27 28  1  0  0  0
 29 44  1  0  0  0
M  END
> <s_m_entry_id>
17162

> <s_m_entry_name>
ligand_docking-pose.89

> <s_m_Source_Path>
/home/csk/Desktop/cluster/DUD-E-result/esr1

> <s_m_Source_File>
ligand_docking-pose.sdf

> <i_m_Source_File_Index>
89

> <i_lp_mmshare_version>
53161

> <i_f3d_flags>
0

> <r_lp_tautomer_probability>
1

> <s_lp_Force_Field>
OPLS_2005

> <r_lp_Energy>
27.909214

> <b_lp_Chiralities_Consistent>
1

> <s_lp_Variant>
159470-1

> <s_i_glide_gridfile>
glide-grid_1sj0

> <i_i_glide_lignum>
87

> <i_i_glide_rotatable_bonds>
4

> <r_i_docking_score>
-9.97127193726912

> <r_i_glide_ligand_efficiency>
-0.343836963354108

> <r_i_glide_ligand_efficiency_sa>
-1.05637608661984

> <r_i_glide_ligand_efficiency_ln>
-2.28316842399476

> <r_i_glide_gscore>
-9.97127193726912

> <r_i_glide_lipo>
-6.17766964542963

> <r_i_glide_hbond>
0

> <r_i_glide_metal>
0

> <r_i_glide_rewards>
-1.82681547398754

> <r_i_glide_evdw>
-43.0216064453125

> <r_i_glide_ecoul>
-1.23424386978149

> <r_i_glide_erotb>
0.369430084880905

> <r_i_glide_esite>
0

> <r_i_glide_emodel>
-58.022213116182

> <r_i_glide_energy>
-44.255850315094

> <r_i_glide_einternal>
5.44459295272827

> <i_i_glide_confnum>
6

> <i_i_glide_posenum>
130

> <r_i_glide_eff_state_penalty>
0

> <s_user_duplicate_titles>
159470

> <s_m_subgroup_title>
dock_pv

> <s_m_subgroupid>
dock_pv1

> <b_m_subgroup_collapsed>
0

$$$$
250584
                    3D
 Schrodinger Suite 2021-1.
 41 43  0  0  1  0            999 V2000
   30.4883    0.8325   29.4783 C   0  0  0  0  0  0
   31.2467    0.1805   28.3249 C   0  0  0  0  0  0
   30.7311   -0.7680   27.4937 C   0  0  0  0  0  0
   29.3597   -1.3157   27.6007 C   0  0  0  0  0  0
   28.2240   -0.5081   27.4654 C   0  0  0  0  0  0
   26.9546   -1.0763   27.5510 C   0  0  0  0  0  0
   26.8333   -2.4494   27.7566 C   0  0  0  0  0  0
   27.9482   -3.2633   27.8641 C   0  0  0  0  0  0
   29.2059   -2.6922   27.7920 C   0  0  0  0  0  0
   25.6088   -3.0275   27.8640 O   0  0  0  0  0  0
   31.5021   -1.3957   26.3929 C   0  0  0  0  0  0
   32.4097   -2.4191   26.6796 C   0  0  0  0  0  0
   33.0132   -3.1224   25.6432 C   0  0  0  0  0  0
   32.7482   -2.7794   24.3221 C   0  0  0  0  0  0
   31.8701   -1.7400   24.0263 C   0  0  0  0  0  0
   31.2359   -1.0566   25.0619 C   0  0  0  0  0  0
   33.3449   -3.4858   23.3137 O   0  0  0  0  0  0
   32.6147    0.7076   28.1630 C   0  0  0  0  0  0
   32.9212    1.4579   27.0286 C   0  0  0  0  0  0
   34.1786    2.0229   26.8802 C   0  0  0  0  0  0
   35.1396    1.8217   27.8640 C   0  0  0  0  0  0
   34.8551    1.0584   28.9947 C   0  0  0  0  0  0
   33.5845    0.5102   29.1517 C   0  0  0  0  0  0
   30.8615    0.4551   30.4304 H   0  0  0  0  0  0
   30.6317    1.9130   29.4631 H   0  0  0  0  0  0
   29.4170    0.6580   29.4579 H   0  0  0  0  0  0
   28.3231    0.5537   27.2920 H   0  0  0  0  0  0
   26.0738   -0.4580   27.4568 H   0  0  0  0  0  0
   27.8416   -4.3289   28.0067 H   0  0  0  0  0  0
   30.0600   -3.3418   27.8639 H   0  0  0  0  0  0
   25.2600   -3.3042   26.9848 H   0  0  0  0  0  0
   32.6083   -2.7031   27.7029 H   0  0  0  0  0  0
   33.6611   -3.9547   25.8622 H   0  0  0  0  0  0
   31.6601   -1.4766   23.0017 H   0  0  0  0  0  0
   30.5220   -0.2794   24.8302 H   0  0  0  0  0  0
   33.0154   -3.2592   22.4413 H   0  0  0  0  0  0
   32.1785    1.6038   26.2641 H   0  0  0  0  0  0
   34.4147    2.6039   26.0011 H   0  0  0  0  0  0
   36.1183    2.2580   27.7431 H   0  0  0  0  0  0
   35.6147    0.9048   29.7474 H   0  0  0  0  0  0
   33.3596   -0.0689   30.0358 H   0  0  0  0  0  0
  1  2  1  0  0  0
  1 24  1  0  0  0
  1 25  1  0  0  0
  1 26  1  0  0  0
  2  3  2  3  0  0
  2 18  1  0  0  0
  3  4  1  0  0  0
  3 11  1  0  0  0
  4  9  1  0  0  0
  4  5  2  0  0  0
  5  6  1  0  0  0
  5 27  1  0  0  0
  6  7  2  0  0  0
  6 28  1  0  0  0
  7  8  1  0  0  0
  7 10  1  0  0  0
  8  9  2  0  0  0
  8 29  1  0  0  0
  9 30  1  0  0  0
 10 31  1  0  0  0
 11 16  1  0  0  0
 11 12  2  0  0  0
 12 13  1  0  0  0
 12 32  1  0  0  0
 13 14  2  0  0  0
 13 33  1  0  0  0
 14 15  1  0  0  0
 14 17  1  0  0  0
 15 16  2  0  0  0
 15 34  1  0  0  0
 16 35  1  0  0  0
 17 36  1  0  0  0
 18 23  1  0  0  0
 18 19  2  0  0  0
 19 20  1  0  0  0
 19 37  1  0  0  0
 20 21  2  0  0  0
 20 38  1  0  0  0
 21 22  1  0  0  0
 21 39  1  0  0  0
 22 23  2  0  0  0
 22 40  1  0  0  0
 23 41  1  0  0  0
M  END
> <s_m_entry_id>
17163

> <s_m_entry_name>
ligand_docking-pose.90

> <s_m_Source_Path>
/home/csk/Desktop/cluster/DUD-E-result/esr1

> <s_m_Source_File>
ligand_docking-pose.sdf

> <i_m_Source_File_Index>
90

> <i_lp_mmshare_version>
53161

> <i_f3d_flags>
0

> <r_lp_tautomer_probability>
1

> <s_lp_Force_Field>
OPLS_2005

> <r_lp_Energy>
28.568168

> <b_lp_Chiralities_Consistent>
1

> <s_lp_Variant>
250584-1

> <s_i_glide_gridfile>
glide-grid_1sj0

> <i_i_glide_lignum>
1277

> <i_i_glide_rotatable_bonds>
5

> <r_i_docking_score>
-9.96861556617055

> <r_i_glide_ligand_efficiency>
-0.433418068094372

> <r_i_glide_ligand_efficiency_sa>
-1.23258333103639

> <r_i_glide_ligand_efficiency_ln>
-2.4105016343085

> <r_i_glide_gscore>
-9.96861556617055

> <r_i_glide_lipo>
-5.0568568492065

> <r_i_glide_hbond>
-0.16

> <r_i_glide_metal>
0

> <r_i_glide_rewards>
-2.24750168181818

> <r_i_glide_evdw>
-40.2252082824707

> <r_i_glide_ecoul>
-7.31419277191162

> <r_i_glide_erotb>
0.604132294764408

> <r_i_glide_esite>
0

> <r_i_glide_emodel>
-69.4591495272074

> <r_i_glide_energy>
-47.5394010543823

> <r_i_glide_einternal>
6.17473697662354

> <i_i_glide_confnum>
5

> <i_i_glide_posenum>
320

> <r_i_glide_eff_state_penalty>
0

> <s_user_duplicate_titles>
250584

> <s_m_subgroup_title>
dock_pv

> <s_m_subgroupid>
dock_pv1

> <b_m_subgroup_collapsed>
0

$$$$
326231
                    3D
 Schrodinger Suite 2021-1.
 62 67  0  0  1  0            999 V2000
   33.1296   -3.3767   25.3324 C   0  0  0  0  0  0
   33.6609   -3.3627   24.0656 C   0  0  0  0  0  0
   33.1326   -2.5437   23.0727 C   0  0  0  0  0  0
   32.0592   -1.7136   23.4012 C   0  0  0  0  0  0
   31.4817   -1.7468   24.6666 C   0  0  0  0  0  0
   32.0010   -2.6254   25.6167 C   0  0  0  0  0  0
   31.3290   -2.8582   26.9466 C   0  0  0  0  0  0
   31.2113   -1.6662   27.7518 N   0  0  0  0  0  0
   32.2899   -1.0830   28.4043 C   0  0  0  0  0  0
   33.5859   -1.5199   28.6664 C   0  0  0  0  0  0
   34.4420   -0.6042   29.2645 C   0  0  0  0  0  0
   33.9949    0.6518   29.6506 C   0  0  0  0  0  0
   32.6937    1.0823   29.4506 C   0  0  0  0  0  0
   31.8476    0.2006   28.7991 C   0  0  0  0  0  0
   30.5285    0.3301   28.4090 C   0  0  0  0  0  0
   30.1181   -0.8488   27.8456 C   0  0  0  0  0  0
   28.7659   -0.8697   27.5344 C   0  0  0  0  0  0
   28.0056   -1.9564   27.0983 C   0  0  0  0  0  0
   26.6564   -1.7436   26.8971 C   0  0  0  0  0  0
   26.0638   -0.5056   27.0468 C   0  0  0  0  0  0
   26.8117    0.5973   27.4640 C   0  0  0  0  0  0
   28.1583    0.4006   27.7539 C   0  0  0  0  0  0
   29.3111    1.5531   28.4313 S   0  0  0  0  0  0
   24.7491   -0.3850   26.6918 O   0  0  0  0  0  0
   34.8596    1.4828   30.2536 O   0  0  0  0  0  0
   33.6216   -2.5248   21.7810 O   0  0  0  0  0  0
   34.7513   -3.3398   21.4539 C   0  0  0  0  0  0
   35.2896   -3.0620   20.0353 C   0  0  0  0  0  0
   34.3741   -3.3284   18.9205 N   0  0  0  0  0  0
   33.8827   -4.7142   18.8639 C   0  0  0  0  0  0
   33.1212   -4.9812   17.5476 C   0  0  0  0  0  0
   32.0057   -3.9503   17.3037 C   0  0  0  0  0  0
   32.5620   -2.5230   17.4644 C   0  0  0  0  0  0
   33.2904   -2.3447   18.8049 C   0  0  0  0  0  0
   33.5463   -4.0638   26.0540 H   0  0  0  0  0  0
   34.4599   -4.0416   23.8745 H   0  0  0  0  0  0
   31.6601   -1.0458   22.6640 H   0  0  0  0  0  0
   30.6155   -1.1387   24.8852 H   0  0  0  0  0  0
   30.3728   -3.3419   26.8150 H   0  0  0  0  0  0
   31.9779   -3.5489   27.4640 H   0  0  0  0  0  0
   33.9165   -2.5128   28.4065 H   0  0  0  0  0  0
   35.4635   -0.8968   29.4640 H   0  0  0  0  0  0
   32.3602    2.0591   29.7629 H   0  0  0  0  0  0
   28.3992   -2.9468   26.9587 H   0  0  0  0  0  0
   26.0601   -2.5722   26.5937 H   0  0  0  0  0  0
   26.3790    1.5748   27.5865 H   0  0  0  0  0  0
   24.4633    0.5379   26.6644 H   0  0  0  0  0  0
   35.7705    1.3125   29.9885 H   0  0  0  0  0  0
   34.5042   -4.3967   21.5677 H   0  0  0  0  0  0
   35.5660   -3.1234   22.1469 H   0  0  0  0  0  0
   36.1837   -3.6657   19.8776 H   0  0  0  0  0  0
   35.6312   -2.0275   19.9735 H   0  0  0  0  0  0
   33.2644   -4.9408   19.7342 H   0  0  0  0  0  0
   34.7423   -5.3861   18.9098 H   0  0  0  0  0  0
   32.6831   -5.9794   17.5908 H   0  0  0  0  0  0
   33.8224   -5.0141   16.7119 H   0  0  0  0  0  0
   31.5681   -4.0905   16.3146 H   0  0  0  0  0  0
   31.2015   -4.1125   18.0245 H   0  0  0  0  0  0
   33.2608   -2.2688   16.6643 H   0  0  0  0  0  0
   31.7462   -1.8012   17.4018 H   0  0  0  0  0  0
   32.5973   -2.4205   19.6427 H   0  0  0  0  0  0
   33.7151   -1.3395   18.8359 H   0  0  0  0  0  0
  1  6  1  0  0  0
  1  2  2  0  0  0
  1 35  1  0  0  0
  2  3  1  0  0  0
  2 36  1  0  0  0
  3  4  2  0  0  0
  3 26  1  0  0  0
  4  5  1  0  0  0
  4 37  1  0  0  0
  5  6  2  0  0  0
  5 38  1  0  0  0
  6  7  1  0  0  0
  7  8  1  0  0  0
  7 39  1  0  0  0
  7 40  1  0  0  0
  8 16  1  0  0  0
  8  9  1  0  0  0
  9 14  2  0  0  0
  9 10  1  0  0  0
 10 11  2  0  0  0
 10 41  1  0  0  0
 11 12  1  0  0  0
 11 42  1  0  0  0
 12 13  2  0  0  0
 12 25  1  0  0  0
 13 14  1  0  0  0
 13 43  1  0  0  0
 14 15  1  0  0  0
 15 23  1  0  0  0
 15 16  2  0  0  0
 16 17  1  0  0  0
 17 22  2  0  0  0
 17 18  1  0  0  0
 18 19  2  0  0  0
 18 44  1  0  0  0
 19 20  1  0  0  0
 19 45  1  0  0  0
 20 21  2  0  0  0
 20 24  1  0  0  0
 21 22  1  0  0  0
 21 46  1  0  0  0
 22 23  1  0  0  0
 24 47  1  0  0  0
 25 48  1  0  0  0
 26 27  1  0  0  0
 27 28  1  0  0  0
 27 49  1  0  0  0
 27 50  1  0  0  0
 28 29  1  0  0  0
 28 51  1  0  0  0
 28 52  1  0  0  0
 29 34  1  0  0  0
 29 30  1  0  0  0
 30 31  1  0  0  0
 30 53  1  0  0  0
 30 54  1  0  0  0
 31 32  1  0  0  0
 31 55  1  0  0  0
 31 56  1  0  0  0
 32 33  1  0  0  0
 32 57  1  0  0  0
 32 58  1  0  0  0
 33 34  1  0  0  0
 33 59  1  0  0  0
 33 60  1  0  0  0
 34 61  1  0  0  0
 34 62  1  0  0  0
M  END
> <s_m_entry_id>
17164

> <s_m_entry_name>
ligand_docking-pose.91

> <s_m_Source_Path>
/home/csk/Desktop/cluster/DUD-E-result/esr1

> <s_m_Source_File>
ligand_docking-pose.sdf

> <i_m_Source_File_Index>
91

> <i_lp_mmshare_version>
53161

> <i_f3d_flags>
0

> <r_lp_tautomer_probability>
1

> <s_lp_Force_Field>
OPLS_2005

> <r_lp_Energy>
60.552526

> <b_lp_Chiralities_Consistent>
1

> <s_lp_Variant>
326231-1

> <s_i_glide_gridfile>
glide-grid_1sj0

> <i_i_glide_lignum>
569

> <i_i_glide_rotatable_bonds>
8

> <r_i_docking_score>
-9.9464112646445

> <r_i_glide_ligand_efficiency>
-0.292541507783662

> <r_i_glide_ligand_efficiency_sa>
-0.947720919865458

> <r_i_glide_ligand_efficiency_ln>
-2.19744123574601

> <r_i_glide_gscore>
-9.9464112646445

> <r_i_glide_lipo>
-5.81910456824845

> <r_i_glide_hbond>
-0.44650472158346

> <r_i_glide_metal>
0

> <r_i_glide_rewards>
-1.13681828474938

> <r_i_glide_evdw>
-34.8178634643555

> <r_i_glide_ecoul>
-8.37180709838867

> <r_i_glide_erotb>
0.452680547912861

> <r_i_glide_esite>
0

> <r_i_glide_emodel>
-40.077701235771

> <r_i_glide_energy>
-43.1896705627441

> <r_i_glide_einternal>
8.39358425140381

> <i_i_glide_confnum>
1

> <i_i_glide_posenum>
1

> <r_i_glide_eff_state_penalty>
0

> <s_user_duplicate_titles>
326231

> <s_m_subgroup_title>
dock_pv

> <s_m_subgroupid>
dock_pv1

> <b_m_subgroup_collapsed>
0

$$$$
125383
                    3D
 Schrodinger Suite 2021-1.
 36 39  0  0  1  0            999 V2000
   32.2858   -2.5385   25.6743 C   0  0  0  0  0  0
   31.6774   -2.7727   27.0640 C   0  0  0  0  0  0
   30.6584   -1.7148   27.4313 C   0  0  0  0  0  0
   29.2311   -1.8442   27.4244 C   0  0  0  0  0  0
   28.1978   -2.7958   27.2681 C   0  0  0  0  0  0
   26.8600   -2.3483   27.1957 C   0  0  0  0  0  0
   26.5265   -0.9829   27.2438 C   0  0  0  0  0  0
   27.5408   -0.0649   27.4651 C   0  0  0  0  0  0
   28.7868   -0.5495   27.5571 N   0  0  0  0  0  0
   29.7276    0.3679   27.7652 C   0  0  0  0  0  0
   30.9207   -0.3620   27.7650 C   0  0  0  0  0  0
   32.2495    0.2698   27.8984 C   0  0  0  0  0  0
   33.3121   -0.2626   28.6333 C   0  0  0  0  0  0
   34.5351    0.4043   28.6381 C   0  0  0  0  0  0
   34.6659    1.5827   27.9037 C   0  0  0  0  0  0
   33.6124    2.1204   27.1885 C   0  0  0  0  0  0
   32.4039    1.4580   27.1976 C   0  0  0  0  0  0
   35.8348    2.2580   27.8640 O   0  0  0  0  0  0
   29.0228    1.6325   27.8640 C   0  0  0  0  0  0
   27.7120    1.3762   27.6421 C   0  0  0  0  0  0
   25.2442   -0.5420   27.0640 O   0  0  0  0  0  0
   32.9942   -3.3278   25.4202 H   0  0  0  0  0  0
   31.5149   -2.5248   24.9028 H   0  0  0  0  0  0
   32.8188   -1.5881   25.6263 H   0  0  0  0  0  0
   32.4783   -2.8326   27.7998 H   0  0  0  0  0  0
   31.2071   -3.7420   27.0640 H   0  0  0  0  0  0
   28.4298   -3.8456   27.1588 H   0  0  0  0  0  0
   26.0668   -3.0697   27.0640 H   0  0  0  0  0  0
   33.1954   -1.1789   29.1926 H   0  0  0  0  0  0
   35.3706    0.0055   29.1951 H   0  0  0  0  0  0
   33.7305    3.0394   26.6341 H   0  0  0  0  0  0
   31.5648    1.8580   26.6640 H   0  0  0  0  0  0
   36.5708    1.8242   28.3251 H   0  0  0  0  0  0
   29.4835    2.5925   28.0471 H   0  0  0  0  0  0
   26.9009    2.0837   27.6249 H   0  0  0  0  0  0
   25.1797    0.4165   27.0021 H   0  0  0  0  0  0
  1  2  1  0  0  0
  1 22  1  0  0  0
  1 23  1  0  0  0
  1 24  1  0  0  0
  2  3  1  0  0  0
  2 25  1  0  0  0
  2 26  1  0  0  0
  3 11  1  0  0  0
  3  4  2  0  0  0
  4  9  1  0  0  0
  4  5  1  0  0  0
  5  6  2  0  0  0
  5 27  1  0  0  0
  6  7  1  0  0  0
  6 28  1  0  0  0
  7  8  2  0  0  0
  7 21  1  0  0  0
  8 20  1  0  0  0
  8  9  1  0  0  0
  9 10  1  0  0  0
 10 11  2  0  0  0
 10 19  1  0  0  0
 11 12  1  0  0  0
 12 17  1  0  0  0
 12 13  2  0  0  0
 13 14  1  0  0  0
 13 29  1  0  0  0
 14 15  2  0  0  0
 14 30  1  0  0  0
 15 16  1  0  0  0
 15 18  1  0  0  0
 16 17  2  0  0  0
 16 31  1  0  0  0
 17 32  1  0  0  0
 18 33  1  0  0  0
 19 20  2  0  0  0
 19 34  1  0  0  0
 20 35  1  0  0  0
 21 36  1  0  0  0
M  END
> <s_m_entry_id>
17165

> <s_m_entry_name>
ligand_docking-pose.92

> <s_m_Source_Path>
/home/csk/Desktop/cluster/DUD-E-result/esr1

> <s_m_Source_File>
ligand_docking-pose.sdf

> <i_m_Source_File_Index>
92

> <i_lp_mmshare_version>
53161

> <i_f3d_flags>
0

> <r_lp_tautomer_probability>
0.999999999997365

> <s_lp_Force_Field>
OPLS_2005

> <r_lp_Energy>
61.292999

> <b_lp_Chiralities_Consistent>
1

> <s_lp_Variant>
125383-1

> <s_i_glide_gridfile>
glide-grid_1sj0

> <i_i_glide_lignum>
1117

> <i_i_glide_rotatable_bonds>
4

> <r_i_docking_score>
-9.92474764165692

> <r_i_glide_ligand_efficiency>
-0.472607030555092

> <r_i_glide_ligand_efficiency_sa>
-1.3038869612029

> <r_i_glide_ligand_efficiency_ln>
-2.45387379955873

> <r_i_glide_gscore>
-9.92474764165692

> <r_i_glide_lipo>
-4.3418822571156

> <r_i_glide_hbond>
-0.61137241966923

> <r_i_glide_metal>
0

> <r_i_glide_rewards>
-2.38831661547299

> <r_i_glide_evdw>
-33.1688270568848

> <r_i_glide_ecoul>
-7.72585868835449

> <r_i_glide_erotb>
0.234143806698304

> <r_i_glide_esite>
0

> <r_i_glide_emodel>
-61.0709329947425

> <r_i_glide_energy>
-40.8946857452393

> <r_i_glide_einternal>
0.913335919380188

> <i_i_glide_confnum>
4

> <i_i_glide_posenum>
165

> <r_i_glide_eff_state_penalty>
0

> <s_user_duplicate_titles>
125383

> <s_m_subgroup_title>
dock_pv

> <s_m_subgroupid>
dock_pv1

> <b_m_subgroup_collapsed>
0

$$$$
286667
                    3D
 Schrodinger Suite 2021-1.
 46 48  0  0  1  0            999 V2000
   31.7182    1.3206   31.8023 C   0  0  0  0  0  0
   30.8293    0.8486   30.6517 C   0  0  0  0  0  0
   31.4667    0.7924   29.3377 N   0  0  0  0  0  0
   32.7245    1.1589   29.0683 C   0  0  0  0  0  0
   32.9431    1.1502   27.7546 N   0  3  0  0  0  0
   31.7797    0.6212   27.0422 C   0  0  2  0  0  0
   30.6798    0.6531   28.1023 C   0  0  1  0  0  0
   29.5860   -0.4311   27.9669 C   0  0  0  0  0  0
   29.7817   -1.7218   28.4790 C   0  0  0  0  0  0
   28.8617   -2.7390   28.2291 C   0  0  0  0  0  0
   27.7299   -2.4910   27.4567 C   0  0  0  0  0  0
   27.5032   -1.2081   26.9628 C   0  0  0  0  0  0
   28.4204   -0.1817   27.2113 C   0  0  0  0  0  0
   28.0940    1.3774   26.5290 Cl  0  0  0  0  0  0
   26.8599   -3.5172   27.1940 O   0  0  0  0  0  0
   31.9922   -0.6728   26.2259 C   0  0  0  0  0  0
   31.4372   -0.6826   24.9448 C   0  0  0  0  0  0
   31.6819   -1.7199   24.0553 C   0  0  0  0  0  0
   32.4742   -2.7875   24.4473 C   0  0  0  0  0  0
   32.9313   -2.8665   25.7610 C   0  0  0  0  0  0
   32.6866   -1.8247   26.6606 C   0  0  0  0  0  0
   33.2585   -2.0172   28.2819 Cl  0  0  0  0  0  0
   32.8064   -3.7408   23.5260 O   0  0  0  0  0  0
   34.1261    1.6503   27.0425 C   0  0  0  0  0  0
   35.4324    1.6163   27.8508 C   0  0  0  0  0  0
   31.5582    1.4047   26.3260 H   0  0  0  0  0  0
   30.1798    1.6211   28.0510 H   0  0  0  0  0  0
   31.0968    1.4676   32.6808 H   0  0  0  0  0  0
   32.5485    0.6540   32.0066 H   0  0  0  0  0  0
   32.1825    2.2607   31.5723 H   0  0  0  0  0  0
   29.9627    1.5018   30.5464 H   0  0  0  0  0  0
   30.4724   -0.1513   30.8585 H   0  0  0  0  0  0
   33.4618    1.4462   29.8010 H   0  0  0  0  0  0
   30.6616   -1.9544   29.0584 H   0  0  0  0  0  0
   29.0341   -3.7302   28.6234 H   0  0  0  0  0  0
   26.6250   -1.0082   26.3667 H   0  0  0  0  0  0
   26.1438   -3.3429   26.5617 H   0  0  0  0  0  0
   30.8076    0.1358   24.6377 H   0  0  0  0  0  0
   31.2699   -1.6929   23.0574 H   0  0  0  0  0  0
   33.5003   -3.7252   26.0824 H   0  0  0  0  0  0
   33.3324   -4.4600   23.8842 H   0  0  0  0  0  0
   34.2090    1.0879   26.1139 H   0  0  0  0  0  0
   33.8976    2.6792   26.7615 H   0  0  0  0  0  0
   36.2827    1.8738   27.2172 H   0  0  0  0  0  0
   35.4468    2.3153   28.6858 H   0  0  0  0  0  0
   35.6378    0.6264   28.2542 H   0  0  0  0  0  0
  1  2  1  0  0  0
  1 28  1  0  0  0
  1 29  1  0  0  0
  1 30  1  0  0  0
  2  3  1  0  0  0
  2 31  1  0  0  0
  2 32  1  0  0  0
  3  7  1  0  0  0
  3  4  1  0  0  0
  4  5  2  0  0  0
  4 33  1  0  0  0
  5  6  1  0  0  0
  5 24  1  0  0  0
  6 26  1  0  0  0
  6  7  1  0  0  0
  6 16  1  0  0  0
  7 27  1  0  0  0
  7  8  1  0  0  0
  8 13  1  0  0  0
  8  9  2  0  0  0
  9 10  1  0  0  0
  9 34  1  0  0  0
 10 11  2  0  0  0
 10 35  1  0  0  0
 11 12  1  0  0  0
 11 15  1  0  0  0
 12 13  2  0  0  0
 12 36  1  0  0  0
 13 14  1  0  0  0
 15 37  1  0  0  0
 16 21  1  0  0  0
 16 17  2  0  0  0
 17 18  1  0  0  0
 17 38  1  0  0  0
 18 19  2  0  0  0
 18 39  1  0  0  0
 19 20  1  0  0  0
 19 23  1  0  0  0
 20 21  2  0  0  0
 20 40  1  0  0  0
 21 22  1  0  0  0
 23 41  1  0  0  0
 24 25  1  0  0  0
 24 42  1  0  0  0
 24 43  1  0  0  0
 25 44  1  0  0  0
 25 45  1  0  0  0
 25 46  1  0  0  0
M  CHG  1   5   1
M  END
> <s_m_entry_id>
17166

> <s_m_entry_name>
ligand_docking-pose.93

> <s_m_Source_Path>
/home/csk/Desktop/cluster/DUD-E-result/esr1

> <s_m_Source_File>
ligand_docking-pose.sdf

> <i_m_Source_File_Index>
93

> <i_lp_mmshare_version>
53161

> <i_f3d_flags>
0

> <r_lp_tautomer_probability>
0.99999999999473

> <s_lp_Force_Field>
OPLS_2005

> <r_lp_Energy>
31.962047

> <b_lp_Chiralities_Consistent>
1

> <s_lp_Variant>
286667-1

> <s_i_glide_gridfile>
glide-grid_1sj0

> <i_i_glide_lignum>
1619

> <i_i_glide_rotatable_bonds>
6

> <r_i_docking_score>
-9.92426432308024

> <r_i_glide_ligand_efficiency>
-0.396970572923209

> <r_i_glide_ligand_efficiency_sa>
-1.16074899553055

> <r_i_glide_ligand_efficiency_ln>
-2.35234805077257

> <r_i_glide_gscore>
-9.92426432308024

> <r_i_glide_lipo>
-5.09430067844856

> <r_i_glide_hbond>
-0.16

> <r_i_glide_metal>
0

> <r_i_glide_rewards>
-2.23167646996447

> <r_i_glide_evdw>
-38.6475524902344

> <r_i_glide_ecoul>
-5.16123962402344

> <r_i_glide_erotb>
0.268276393448026

> <r_i_glide_esite>
0

> <r_i_glide_emodel>
-47.1319790143825

> <r_i_glide_energy>
-43.8087921142578

> <r_i_glide_einternal>
13.6035661697388

> <i_i_glide_confnum>
2

> <i_i_glide_posenum>
145

> <r_i_glide_eff_state_penalty>
0

> <s_user_duplicate_titles>
286667

> <s_m_subgroup_title>
dock_pv

> <s_m_subgroupid>
dock_pv1

> <b_m_subgroup_collapsed>
0

$$$$
331901
                    3D
 Schrodinger Suite 2021-1.
 65 69  0  0  1  0            999 V2000
   35.5277   -2.8884   21.5827 C   0  0  0  0  0  0
   34.1251   -3.3896   21.1704 C   0  0  1  0  0  0
   33.0517   -2.8269   22.1370 C   0  0  0  0  0  0
   33.2807   -3.2437   23.4830 O   0  0  0  0  0  0
   32.5694   -2.6399   24.5049 C   0  0  0  0  0  0
   31.5916   -1.6454   24.3275 C   0  0  0  0  0  0
   30.9168   -1.1119   25.4260 C   0  0  0  0  0  0
   31.2055   -1.5618   26.7194 C   0  0  0  0  0  0
   32.1925   -2.5404   26.8885 C   0  0  0  0  0  0
   32.8635   -3.0719   25.7930 C   0  0  0  0  0  0
   30.4494   -1.0041   27.9486 C   0  0  2  0  0  0
   28.9254   -1.0053   27.7321 C   0  0  0  0  0  0
   28.2658   -2.1985   27.4073 C   0  0  0  0  0  0
   26.9185   -2.2100   27.0644 C   0  0  0  0  0  0
   26.1947   -1.0225   27.0702 C   0  0  0  0  0  0
   26.8114    0.1517   27.4569 C   0  0  0  0  0  0
   28.1682    0.1876   27.7675 C   0  0  0  0  0  0
   28.7825    1.5237   28.1232 C   0  0  0  0  0  0
   30.2725    1.5836   27.8268 C   0  0  0  0  0  0
   30.9861    0.3775   28.4598 C   0  0  2  0  0  0
   32.5107    0.4645   28.4514 C   0  0  0  0  0  0
   33.1917    1.4281   27.6911 C   0  0  0  0  0  0
   34.5754    1.3928   27.6058 C   0  0  0  0  0  0
   35.2599    0.3775   28.2640 C   0  0  0  0  0  0
   34.6062   -0.5419   29.0671 C   0  0  0  0  0  0
   33.2292   -0.4803   29.1881 C   0  0  0  0  0  0
   24.8928   -0.9826   26.6634 O   0  0  0  0  0  0
   33.8475   -2.9745   19.7796 N   0  0  0  0  0  0
   32.5943   -3.4879   19.2333 C   0  0  0  0  0  0
   32.6610   -3.2396   17.7270 C   0  0  0  0  0  0
   34.1595   -3.2224   17.4261 C   0  0  0  0  0  0
   34.8134   -3.4493   18.7916 C   0  0  0  0  0  0
   34.1091   -4.4813   21.2291 H   0  0  0  0  0  0
   30.6147   -1.7370   28.7410 H   0  0  0  0  0  0
   30.7536    0.3771   29.5274 H   0  0  0  0  0  0
   35.6601   -2.9420   22.6626 H   0  0  0  0  0  0
   36.3179   -3.4799   21.1211 H   0  0  0  0  0  0
   35.6863   -1.8482   21.2951 H   0  0  0  0  0  0
   33.0982   -1.7420   22.0973 H   0  0  0  0  0  0
   32.0457   -3.1375   21.8511 H   0  0  0  0  0  0
   31.3289   -1.2865   23.3452 H   0  0  0  0  0  0
   30.1610   -0.3573   25.2669 H   0  0  0  0  0  0
   32.4591   -2.8959   27.8690 H   0  0  0  0  0  0
   33.6291   -3.8228   25.9361 H   0  0  0  0  0  0
   28.8215   -3.1241   27.3660 H   0  0  0  0  0  0
   26.4604   -3.1398   26.7671 H   0  0  0  0  0  0
   26.2287    1.0613   27.4631 H   0  0  0  0  0  0
   28.6254    1.7372   29.1775 H   0  0  0  0  0  0
   28.2623    2.2942   27.5626 H   0  0  0  0  0  0
   30.6439    2.5090   28.2641 H   0  0  0  0  0  0
   30.4311    1.6104   26.7491 H   0  0  0  0  0  0
   32.6690    2.1795   27.1194 H   0  0  0  0  0  0
   35.1106    2.0976   26.9857 H   0  0  0  0  0  0
   36.3198    0.2584   28.1173 H   0  0  0  0  0  0
   35.1665   -1.3164   29.5680 H   0  0  0  0  0  0
   32.7202   -1.2159   29.7937 H   0  0  0  0  0  0
   24.6567   -1.8354   26.2562 H   0  0  0  0  0  0
   31.7477   -2.9725   19.6871 H   0  0  0  0  0  0
   32.4600   -4.5414   19.4767 H   0  0  0  0  0  0
   32.1861   -2.2932   17.4654 H   0  0  0  0  0  0
   32.1424   -4.0290   17.1802 H   0  0  0  0  0  0
   34.4383   -4.0108   16.7241 H   0  0  0  0  0  0
   34.4724   -2.2695   16.9921 H   0  0  0  0  0  0
   35.0917   -4.4919   18.9584 H   0  0  0  0  0  0
   35.7405   -2.8833   18.8918 H   0  0  0  0  0  0
  1  2  1  0  0  0
  1 36  1  0  0  0
  1 37  1  0  0  0
  1 38  1  0  0  0
  2 33  1  0  0  0
  2  3  1  0  0  0
  2 28  1  0  0  0
  3  4  1  0  0  0
  3 39  1  0  0  0
  3 40  1  0  0  0
  4  5  1  0  0  0
  5 10  1  0  0  0
  5  6  2  0  0  0
  6  7  1  0  0  0
  6 41  1  0  0  0
  7  8  2  0  0  0
  7 42  1  0  0  0
  8  9  1  0  0  0
  8 11  1  0  0  0
  9 10  2  0  0  0
  9 43  1  0  0  0
 10 44  1  0  0  0
 11 34  1  0  0  0
 11 20  1  0  0  0
 11 12  1  0  0  0
 12 17  2  0  0  0
 12 13  1  0  0  0
 13 14  2  0  0  0
 13 45  1  0  0  0
 14 15  1  0  0  0
 14 46  1  0  0  0
 15 16  2  0  0  0
 15 27  1  0  0  0
 16 17  1  0  0  0
 16 47  1  0  0  0
 17 18  1  0  0  0
 18 19  1  0  0  0
 18 48  1  0  0  0
 18 49  1  0  0  0
 19 20  1  0  0  0
 19 50  1  0  0  0
 19 51  1  0  0  0
 20 35  1  0  0  0
 20 21  1  0  0  0
 21 26  1  0  0  0
 21 22  2  0  0  0
 22 23  1  0  0  0
 22 52  1  0  0  0
 23 24  2  0  0  0
 23 53  1  0  0  0
 24 25  1  0  0  0
 24 54  1  0  0  0
 25 26  2  0  0  0
 25 55  1  0  0  0
 26 56  1  0  0  0
 27 57  1  0  0  0
 28 32  1  0  0  0
 28 29  1  0  0  0
 29 30  1  0  0  0
 29 58  1  0  0  0
 29 59  1  0  0  0
 30 31  1  0  0  0
 30 60  1  0  0  0
 30 61  1  0  0  0
 31 32  1  0  0  0
 31 62  1  0  0  0
 31 63  1  0  0  0
 32 64  1  0  0  0
 32 65  1  0  0  0
M  END
> <s_m_entry_id>
17167

> <s_m_entry_name>
ligand_docking-pose.94

> <s_m_Source_Path>
/home/csk/Desktop/cluster/DUD-E-result/esr1

> <s_m_Source_File>
ligand_docking-pose.sdf

> <i_m_Source_File_Index>
94

> <i_lp_mmshare_version>
53161

> <i_f3d_flags>
0

> <r_lp_tautomer_probability>
0.999999999997365

> <s_lp_Force_Field>
OPLS_2005

> <r_lp_Energy>
47.894143

> <b_lp_Chiralities_Consistent>
1

> <s_lp_Variant>
331901-1

> <s_i_glide_gridfile>
glide-grid_1sj0

> <i_i_glide_lignum>
1608

> <i_i_glide_rotatable_bonds>
7

> <r_i_docking_score>
-9.91642264895582

> <r_i_glide_ligand_efficiency>
-0.309888207779869

> <r_i_glide_ligand_efficiency_sa>
-0.98383373290804

> <r_i_glide_ligand_efficiency_ln>
-2.22055734257345

> <r_i_glide_gscore>
-9.91642264895582

> <r_i_glide_lipo>
-5.56907093341785

> <r_i_glide_hbond>
-0.27733156300234

> <r_i_glide_metal>
0

> <r_i_glide_rewards>
-1.39378662897226

> <r_i_glide_evdw>
-47.5096244812012

> <r_i_glide_ecoul>
-4.53921699523926

> <r_i_glide_erotb>
0.38013024978258

> <r_i_glide_esite>
0

> <r_i_glide_emodel>
-79.2600875122942

> <r_i_glide_energy>
-52.0488414764404

> <r_i_glide_einternal>
3.48291182518005

> <i_i_glide_confnum>
29

> <i_i_glide_posenum>
303

> <r_i_glide_eff_state_penalty>
0

> <s_user_duplicate_titles>
331901

> <s_m_subgroup_title>
dock_pv

> <s_m_subgroupid>
dock_pv1

> <b_m_subgroup_collapsed>
0

$$$$
164313
                    3D
 Schrodinger Suite 2021-1.
 67 71  0  0  1  0            999 V2000
   30.4824   -1.9846   28.9360 C   0  0  0  0  0  0
   30.4428   -0.9566   27.7607 C   0  0  1  0  0  0
   28.9434   -0.8132   27.4180 C   0  0  0  0  0  0
   28.2347   -1.9113   26.9324 C   0  0  0  0  0  0
   26.8795   -1.8434   26.6883 C   0  0  0  0  0  0
   26.1775   -0.6724   26.9608 C   0  0  0  0  0  0
   26.8599    0.4283   27.4598 C   0  0  0  0  0  0
   28.2344    0.3867   27.6543 C   0  0  0  0  0  0
   28.9627    1.6263   28.1251 C   0  0  0  0  0  0
   30.1688    1.2151   28.9582 C   0  0  0  0  0  0
   31.0042    0.3753   28.1039 N   0  0  0  0  0  0
   32.3257    0.7104   27.9926 C   0  0  0  0  0  0
   32.7083    1.7762   27.1897 C   0  0  0  0  0  0
   34.0404    2.1652   27.0792 C   0  0  0  0  0  0
   35.0015    1.4718   27.8067 C   0  0  0  0  0  0
   34.5885    0.4152   28.6148 C   0  0  0  0  0  0
   33.2721    0.0482   28.7360 C   0  0  0  0  0  0
   35.6600   -0.5421   29.4640 Cl  0  0  0  0  0  0
   24.8499   -0.5421   26.6642 O   0  0  0  0  0  0
   31.2188   -1.5353   26.5290 C   0  0  0  0  0  0
   32.1899   -2.5410   26.6711 C   0  0  0  0  0  0
   32.8601   -3.0543   25.5695 C   0  0  0  0  0  0
   32.6038   -2.5683   24.2946 C   0  0  0  0  0  0
   31.6743   -1.5298   24.1373 C   0  0  0  0  0  0
   30.9884   -1.0242   25.2421 C   0  0  0  0  0  0
   33.3097   -3.1732   23.2736 O   0  0  0  0  0  0
   33.1599   -2.7103   21.9368 C   0  0  0  0  0  0
   33.8062   -3.7329   20.9848 C   0  0  0  0  0  0
   33.7103   -3.3347   19.5738 N   0  0  0  0  0  0
   33.9637   -4.4942   18.7037 C   0  0  0  0  0  0
   33.8007   -4.1430   17.2095 C   0  0  0  0  0  0
   34.6650   -2.9408   16.8009 C   0  0  0  0  0  0
   34.4023   -1.7668   17.7549 C   0  0  0  0  0  0
   34.5565   -2.1776   19.2343 C   0  0  0  0  0  0
   30.0601   -2.9419   28.6195 H   0  0  0  0  0  0
   31.4802   -2.1431   29.3265 H   0  0  0  0  0  0
   29.8907   -1.7420   29.8012 H   0  0  0  0  0  0
   28.7455   -2.8413   26.7341 H   0  0  0  0  0  0
   26.4592   -2.7306   26.2611 H   0  0  0  0  0  0
   26.3337    1.3530   27.6396 H   0  0  0  0  0  0
   28.3013    2.2785   28.6903 H   0  0  0  0  0  0
   29.2893    2.2066   27.2604 H   0  0  0  0  0  0
   29.8840    0.6932   29.8650 H   0  0  0  0  0  0
   30.7045    2.1123   29.2738 H   0  0  0  0  0  0
   31.9338    2.2579   26.6481 H   0  0  0  0  0  0
   34.3208    2.9774   26.4281 H   0  0  0  0  0  0
   36.0482    1.7311   27.7254 H   0  0  0  0  0  0
   33.0067   -0.7547   29.4012 H   0  0  0  0  0  0
   24.5760    0.3842   26.6640 H   0  0  0  0  0  0
   32.4570   -2.9467   27.6318 H   0  0  0  0  0  0
   33.5865   -3.8427   25.7016 H   0  0  0  0  0  0
   31.4694   -1.1087   23.1671 H   0  0  0  0  0  0
   30.2724   -0.2280   25.0963 H   0  0  0  0  0  0
   33.6532   -1.7431   21.8644 H   0  0  0  0  0  0
   32.1088   -2.5939   21.6664 H   0  0  0  0  0  0
   33.2891   -4.6840   21.1308 H   0  0  0  0  0  0
   34.8476   -3.9073   21.2615 H   0  0  0  0  0  0
   33.2603   -5.2896   18.9584 H   0  0  0  0  0  0
   34.9599   -4.8941   18.9037 H   0  0  0  0  0  0
   32.7466   -3.9649   16.9901 H   0  0  0  0  0  0
   34.0756   -5.0088   16.6064 H   0  0  0  0  0  0
   35.7196   -3.2174   16.8424 H   0  0  0  0  0  0
   34.4599   -2.6510   15.7697 H   0  0  0  0  0  0
   35.0975   -0.9570   17.5319 H   0  0  0  0  0  0
   33.4091   -1.3435   17.5946 H   0  0  0  0  0  0
   34.2908   -1.3241   19.8559 H   0  0  0  0  0  0
   35.5980   -2.4106   19.4640 H   0  0  0  0  0  0
  1  2  1  0  0  0
  1 35  1  0  0  0
  1 36  1  0  0  0
  1 37  1  0  0  0
  2 11  1  0  0  0
  2  3  1  0  0  0
  2 20  1  0  0  0
  3  8  2  0  0  0
  3  4  1  0  0  0
  4  5  2  0  0  0
  4 38  1  0  0  0
  5  6  1  0  0  0
  5 39  1  0  0  0
  6  7  2  0  0  0
  6 19  1  0  0  0
  7  8  1  0  0  0
  7 40  1  0  0  0
  8  9  1  0  0  0
  9 10  1  0  0  0
  9 41  1  0  0  0
  9 42  1  0  0  0
 10 11  1  0  0  0
 10 43  1  0  0  0
 10 44  1  0  0  0
 11 12  1  0  0  0
 12 17  1  0  0  0
 12 13  2  0  0  0
 13 14  1  0  0  0
 13 45  1  0  0  0
 14 15  2  0  0  0
 14 46  1  0  0  0
 15 16  1  0  0  0
 15 47  1  0  0  0
 16 17  2  0  0  0
 16 18  1  0  0  0
 17 48  1  0  0  0
 19 49  1  0  0  0
 20 25  1  0  0  0
 20 21  2  0  0  0
 21 22  1  0  0  0
 21 50  1  0  0  0
 22 23  2  0  0  0
 22 51  1  0  0  0
 23 24  1  0  0  0
 23 26  1  0  0  0
 24 25  2  0  0  0
 24 52  1  0  0  0
 25 53  1  0  0  0
 26 27  1  0  0  0
 27 28  1  0  0  0
 27 54  1  0  0  0
 27 55  1  0  0  0
 28 29  1  0  0  0
 28 56  1  0  0  0
 28 57  1  0  0  0
 29 34  1  0  0  0
 29 30  1  0  0  0
 30 31  1  0  0  0
 30 58  1  0  0  0
 30 59  1  0  0  0
 31 32  1  0  0  0
 31 60  1  0  0  0
 31 61  1  0  0  0
 32 33  1  0  0  0
 32 62  1  0  0  0
 32 63  1  0  0  0
 33 34  1  0  0  0
 33 64  1  0  0  0
 33 65  1  0  0  0
 34 66  1  0  0  0
 34 67  1  0  0  0
M  END
> <s_m_entry_id>
17168

> <s_m_entry_name>
ligand_docking-pose.95

> <s_m_Source_Path>
/home/csk/Desktop/cluster/DUD-E-result/esr1

> <s_m_Source_File>
ligand_docking-pose.sdf

> <i_m_Source_File_Index>
95

> <i_lp_mmshare_version>
53161

> <i_f3d_flags>
0

> <r_lp_tautomer_probability>
0.999999999997365

> <s_lp_Force_Field>
OPLS_2005

> <r_lp_Energy>
48.017895

> <b_lp_Chiralities_Consistent>
1

> <s_lp_Variant>
164313-2

> <s_i_glide_gridfile>
glide-grid_1sj0

> <i_i_glide_lignum>
882

> <i_i_glide_rotatable_bonds>
7

> <r_i_docking_score>
-9.91566227642895

> <r_i_glide_ligand_efficiency>
-0.291637125777322

> <r_i_glide_ligand_efficiency_sa>
-0.9447910732483

> <r_i_glide_ligand_efficiency_ln>
-2.19064792176929

> <r_i_glide_gscore>
-9.91566227642895

> <r_i_glide_lipo>
-6.1224492288068

> <r_i_glide_hbond>
-0.374323120617239

> <r_i_glide_metal>
0

> <r_i_glide_rewards>
-1.2955502199052

> <r_i_glide_evdw>
-42.6252021789551

> <r_i_glide_ecoul>
-2.91400051116943

> <r_i_glide_erotb>
0.445020478523449

> <r_i_glide_esite>
0

> <r_i_glide_emodel>
-57.5523400635988

> <r_i_glide_energy>
-45.5392026901245

> <r_i_glide_einternal>
9.36946392059326

> <i_i_glide_confnum>
1

> <i_i_glide_posenum>
1

> <r_i_glide_eff_state_penalty>
0

> <s_user_duplicate_titles>
164313

> <s_m_subgroup_title>
dock_pv

> <s_m_subgroupid>
dock_pv1

> <b_m_subgroup_collapsed>
0

$$$$
138182
                    3D
 Schrodinger Suite 2021-1.
 63 66  0  0  1  0            999 V2000
   33.7034   -0.6077   29.4443 C   0  0  0  0  0  0
   32.6033    0.3766   28.9703 C   0  0  0  0  0  0
   32.4448    1.4372   30.0877 C   0  0  0  0  0  0
   33.1071    1.0740   27.6818 C   0  0  0  0  0  0
   31.2224   -0.3536   28.7718 C   0  0  2  0  0  0
   31.2439   -1.7430   28.0695 C   0  0  1  0  0  0
   30.0358   -2.4473   28.3266 O   0  0  0  0  0  0
   28.8544   -1.8678   27.9309 C   0  0  0  0  0  0
   27.8077   -2.7751   27.7893 C   0  0  0  0  0  0
   26.5253   -2.3152   27.5169 C   0  0  0  0  0  0
   26.2946   -0.9576   27.3166 C   0  0  0  0  0  0
   27.3406   -0.0435   27.4646 C   0  0  0  0  0  0
   28.6207   -0.4829   27.8220 C   0  0  0  0  0  0
   29.8974    0.7224   28.1055 S   0  0  0  0  0  0
   25.0328   -0.5416   26.9905 O   0  0  0  0  0  0
   31.7122   -1.8728   26.6102 C   0  0  0  0  0  0
   32.7350   -2.7806   26.3093 C   0  0  0  0  0  0
   33.1529   -2.9683   24.9965 C   0  0  0  0  0  0
   32.5456   -2.2487   23.9608 C   0  0  0  0  0  0
   31.5332   -1.3423   24.2588 C   0  0  0  0  0  0
   31.1124   -1.1576   25.5689 C   0  0  0  0  0  0
   32.8726   -2.3687   22.6287 O   0  0  0  0  0  0
   33.9511   -3.2102   22.2313 C   0  0  0  0  0  0
   34.1124   -3.0429   20.7058 C   0  0  0  0  0  0
   35.5047   -3.0377   20.2195 N   0  0  0  0  0  0
   36.3024   -1.8852   20.6748 C   0  0  0  0  0  0
   35.7914   -0.5353   20.1236 C   0  0  0  0  0  0
   35.7063   -0.5483   18.5848 C   0  0  0  0  0  0
   34.9772   -1.8051   18.0797 C   0  0  0  0  0  0
   35.5211   -3.0934   18.7469 C   0  0  0  0  0  0
   30.8587   -0.5751   29.7772 H   0  0  0  0  0  0
   31.9597   -2.3309   28.6393 H   0  0  0  0  0  0
   34.0047   -1.2980   28.6571 H   0  0  0  0  0  0
   34.6099   -0.0860   29.7550 H   0  0  0  0  0  0
   33.3672   -1.2047   30.2914 H   0  0  0  0  0  0
   31.7968    2.2576   29.7795 H   0  0  0  0  0  0
   32.0132    1.0100   30.9939 H   0  0  0  0  0  0
   33.4074    1.8570   30.3789 H   0  0  0  0  0  0
   32.4133    1.8361   27.3274 H   0  0  0  0  0  0
   34.0631    1.5734   27.8460 H   0  0  0  0  0  0
   33.2581    0.3667   26.8682 H   0  0  0  0  0  0
   27.9832   -3.8324   27.9260 H   0  0  0  0  0  0
   25.7090   -3.0207   27.4640 H   0  0  0  0  0  0
   27.1516    1.0126   27.3411 H   0  0  0  0  0  0
   24.9619    0.3978   26.7807 H   0  0  0  0  0  0
   33.2048   -3.3600   27.0906 H   0  0  0  0  0  0
   33.9337   -3.6861   24.7973 H   0  0  0  0  0  0
   31.0601   -0.7879   23.4638 H   0  0  0  0  0  0
   30.3066   -0.4662   25.7440 H   0  0  0  0  0  0
   34.8547   -2.9441   22.7787 H   0  0  0  0  0  0
   33.7258   -4.2521   22.4634 H   0  0  0  0  0  0
   33.5876   -3.8792   20.2377 H   0  0  0  0  0  0
   33.5859   -2.1466   20.3778 H   0  0  0  0  0  0
   36.3366   -1.8479   21.7606 H   0  0  0  0  0  0
   37.3371   -2.0462   20.3662 H   0  0  0  0  0  0
   34.8402   -0.2799   20.5875 H   0  0  0  0  0  0
   36.4606    0.2601   20.4485 H   0  0  0  0  0  0
   36.7129   -0.5430   18.1666 H   0  0  0  0  0  0
   35.2212    0.3569   18.2193 H   0  0  0  0  0  0
   35.1079   -1.8865   17.0000 H   0  0  0  0  0  0
   33.8982   -1.7247   18.2185 H   0  0  0  0  0  0
   36.5442   -3.2859   18.4199 H   0  0  0  0  0  0
   34.9439   -3.9578   18.4137 H   0  0  0  0  0  0
  1  2  1  0  0  0
  1 33  1  0  0  0
  1 34  1  0  0  0
  1 35  1  0  0  0
  2  3  1  0  0  0
  2  4  1  0  0  0
  2  5  1  0  0  0
  3 36  1  0  0  0
  3 37  1  0  0  0
  3 38  1  0  0  0
  4 39  1  0  0  0
  4 40  1  0  0  0
  4 41  1  0  0  0
  5 31  1  0  0  0
  5 14  1  0  0  0
  5  6  1  0  0  0
  6 32  1  0  0  0
  6  7  1  0  0  0
  6 16  1  0  0  0
  7  8  1  0  0  0
  8 13  2  0  0  0
  8  9  1  0  0  0
  9 10  2  0  0  0
  9 42  1  0  0  0
 10 11  1  0  0  0
 10 43  1  0  0  0
 11 12  2  0  0  0
 11 15  1  0  0  0
 12 13  1  0  0  0
 12 44  1  0  0  0
 13 14  1  0  0  0
 15 45  1  0  0  0
 16 21  1  0  0  0
 16 17  2  0  0  0
 17 18  1  0  0  0
 17 46  1  0  0  0
 18 19  2  0  0  0
 18 47  1  0  0  0
 19 20  1  0  0  0
 19 22  1  0  0  0
 20 21  2  0  0  0
 20 48  1  0  0  0
 21 49  1  0  0  0
 22 23  1  0  0  0
 23 24  1  0  0  0
 23 50  1  0  0  0
 23 51  1  0  0  0
 24 25  1  0  0  0
 24 52  1  0  0  0
 24 53  1  0  0  0
 25 30  1  0  0  0
 25 26  1  0  0  0
 26 27  1  0  0  0
 26 54  1  0  0  0
 26 55  1  0  0  0
 27 28  1  0  0  0
 27 56  1  0  0  0
 27 57  1  0  0  0
 28 29  1  0  0  0
 28 58  1  0  0  0
 28 59  1  0  0  0
 29 30  1  0  0  0
 29 60  1  0  0  0
 29 61  1  0  0  0
 30 62  1  0  0  0
 30 63  1  0  0  0
M  END
> <s_m_entry_id>
17169

> <s_m_entry_name>
ligand_docking-pose.96

> <s_m_Source_Path>
/home/csk/Desktop/cluster/DUD-E-result/esr1

> <s_m_Source_File>
ligand_docking-pose.sdf

> <i_m_Source_File_Index>
96

> <i_lp_mmshare_version>
53161

> <i_f3d_flags>
0

> <r_lp_tautomer_probability>
1

> <s_lp_Force_Field>
OPLS_2005

> <r_lp_Energy>
44.382749

> <b_lp_Chiralities_Consistent>
1

> <s_lp_Variant>
138182-1

> <s_i_glide_gridfile>
glide-grid_1sj0

> <i_i_glide_lignum>
1446

> <i_i_glide_rotatable_bonds>
7

> <r_i_docking_score>
-9.91442750258398

> <r_i_glide_ligand_efficiency>
-0.330480916752799

> <r_i_glide_ligand_efficiency_sa>
-1.02688104596752

> <r_i_glide_ligand_efficiency_ln>
-2.25266595492695

> <r_i_glide_gscore>
-9.91442750258398

> <r_i_glide_lipo>
-5.82322987466623

> <r_i_glide_hbond>
-0.357390490511873

> <r_i_glide_metal>
0

> <r_i_glide_rewards>
-1.33643753921931

> <r_i_glide_evdw>
-50.4019584655762

> <r_i_glide_ecoul>
-2.0777645111084

> <r_i_glide_erotb>
0.434393001758502

> <r_i_glide_esite>
0

> <r_i_glide_emodel>
-75.094121440872

> <r_i_glide_energy>
-52.4797229766846

> <r_i_glide_einternal>
10.1390867233276

> <i_i_glide_confnum>
21

> <i_i_glide_posenum>
94

> <r_i_glide_eff_state_penalty>
0

> <s_user_duplicate_titles>
138182

> <s_m_subgroup_title>
dock_pv

> <s_m_subgroupid>
dock_pv1

> <b_m_subgroup_collapsed>
0

$$$$
203251
                    3D
 Schrodinger Suite 2021-1.
 62 66  0  0  1  0            999 V2000
   34.7938    1.4558   29.3696 C   0  0  0  0  0  0
   33.5260    1.0550   29.7860 C   0  0  0  0  0  0
   32.4577    1.0957   28.8858 C   0  0  0  0  0  0
   32.6500    1.6023   27.6044 C   0  0  0  0  0  0
   33.9156    1.9404   27.1758 C   0  0  0  0  0  0
   34.9968    1.8782   28.0528 C   0  0  0  0  0  0
   34.0621    2.2595   25.8640 O   0  0  0  0  0  0
   31.1928    0.3229   29.1774 C   0  0  2  0  0  0
   31.4704   -1.1430   28.7568 C   0  0  1  0  0  0
   30.0600   -2.1420   29.0462 S   0  0  0  0  0  0
   28.7211   -1.4373   28.1798 C   0  0  0  0  0  0
   27.7554   -2.3442   27.7465 C   0  0  0  0  0  0
   26.5164   -1.8929   27.3278 C   0  0  0  0  0  0
   26.2520   -0.5374   27.2894 C   0  0  0  0  0  0
   27.2579    0.3830   27.5888 C   0  0  0  0  0  0
   28.4968   -0.0518   28.0795 C   0  0  0  0  0  0
   29.6613    1.1946   28.6159 S   0  0  0  0  0  0
   24.9758   -0.1426   27.0163 O   0  0  0  0  0  0
   31.9299   -1.4772   27.3504 C   0  0  0  0  0  0
   32.8599   -2.4901   27.0940 C   0  0  0  0  0  0
   33.0749   -2.9399   25.7843 C   0  0  0  0  0  0
   32.3078   -2.4290   24.7239 C   0  0  0  0  0  0
   31.3780   -1.4380   25.0353 C   0  0  0  0  0  0
   31.2436   -0.9233   26.2938 C   0  0  0  0  0  0
   30.0596   -0.8358   23.8642 Br  0  0  0  0  0  0
   32.3637   -2.8380   23.4057 O   0  0  0  0  0  0
   33.1758   -3.9338   22.9778 C   0  0  0  0  0  0
   34.3325   -3.4520   22.0724 C   0  0  0  0  0  0
   33.9152   -2.5641   20.9727 N   0  0  0  0  0  0
   35.0781   -2.0112   20.2577 C   0  0  0  0  0  0
   35.8469   -3.0671   19.4282 C   0  0  0  0  0  0
   34.9204   -3.8340   18.4678 C   0  0  0  0  0  0
   33.6624   -4.3359   19.1989 C   0  0  0  0  0  0
   32.9922   -3.2098   20.0189 C   0  0  0  0  0  0
   31.0721    0.3320   30.2625 H   0  0  0  0  0  0
   32.2341   -1.5457   29.4253 H   0  0  0  0  0  0
   35.6157    1.4084   30.0754 H   0  0  0  0  0  0
   33.3995    0.6474   30.7782 H   0  0  0  0  0  0
   31.8455    1.6199   26.8866 H   0  0  0  0  0  0
   35.9902    2.1441   27.7214 H   0  0  0  0  0  0
   34.9832    2.3951   25.6216 H   0  0  0  0  0  0
   27.9265   -3.4093   27.8206 H   0  0  0  0  0  0
   25.7398   -2.5926   27.0699 H   0  0  0  0  0  0
   27.0445    1.4408   27.5399 H   0  0  0  0  0  0
   24.8331    0.8178   27.0518 H   0  0  0  0  0  0
   33.3927   -2.9568   27.9102 H   0  0  0  0  0  0
   33.8042   -3.7151   25.6291 H   0  0  0  0  0  0
   30.4840   -0.1796   26.4493 H   0  0  0  0  0  0
   32.5318   -4.6171   22.4246 H   0  0  0  0  0  0
   33.5777   -4.5451   23.7794 H   0  0  0  0  0  0
   34.8643   -4.3194   21.6817 H   0  0  0  0  0  0
   35.0436   -2.9172   22.7031 H   0  0  0  0  0  0
   35.7513   -1.5385   20.9744 H   0  0  0  0  0  0
   34.7282   -1.2062   19.6093 H   0  0  0  0  0  0
   36.3875   -3.7427   20.0893 H   0  0  0  0  0  0
   36.6262   -2.5686   18.8532 H   0  0  0  0  0  0
   34.6212   -3.1745   17.6528 H   0  0  0  0  0  0
   35.4530   -4.6687   18.0104 H   0  0  0  0  0  0
   32.9456   -4.7197   18.4731 H   0  0  0  0  0  0
   33.8850   -5.1906   19.8366 H   0  0  0  0  0  0
   32.1138   -3.5979   20.5358 H   0  0  0  0  0  0
   32.6072   -2.4380   19.3508 H   0  0  0  0  0  0
  1  6  1  0  0  0
  1  2  2  0  0  0
  1 37  1  0  0  0
  2  3  1  0  0  0
  2 38  1  0  0  0
  3  4  2  0  0  0
  3  8  1  0  0  0
  4  5  1  0  0  0
  4 39  1  0  0  0
  5  6  2  0  0  0
  5  7  1  0  0  0
  6 40  1  0  0  0
  7 41  1  0  0  0
  8 35  1  0  0  0
  8 17  1  0  0  0
  8  9  1  0  0  0
  9 36  1  0  0  0
  9 10  1  0  0  0
  9 19  1  0  0  0
 10 11  1  0  0  0
 11 16  2  0  0  0
 11 12  1  0  0  0
 12 13  2  0  0  0
 12 42  1  0  0  0
 13 14  1  0  0  0
 13 43  1  0  0  0
 14 15  2  0  0  0
 14 18  1  0  0  0
 15 16  1  0  0  0
 15 44  1  0  0  0
 16 17  1  0  0  0
 18 45  1  0  0  0
 19 24  1  0  0  0
 19 20  2  0  0  0
 20 21  1  0  0  0
 20 46  1  0  0  0
 21 22  2  0  0  0
 21 47  1  0  0  0
 22 23  1  0  0  0
 22 26  1  0  0  0
 23 24  2  0  0  0
 23 25  1  0  0  0
 24 48  1  0  0  0
 26 27  1  0  0  0
 27 28  1  0  0  0
 27 49  1  0  0  0
 27 50  1  0  0  0
 28 29  1  0  0  0
 28 51  1  0  0  0
 28 52  1  0  0  0
 29 34  1  0  0  0
 29 30  1  0  0  0
 30 31  1  0  0  0
 30 53  1  0  0  0
 30 54  1  0  0  0
 31 32  1  0  0  0
 31 55  1  0  0  0
 31 56  1  0  0  0
 32 33  1  0  0  0
 32 57  1  0  0  0
 32 58  1  0  0  0
 33 34  1  0  0  0
 33 59  1  0  0  0
 33 60  1  0  0  0
 34 61  1  0  0  0
 34 62  1  0  0  0
M  END
> <s_m_entry_id>
17170

> <s_m_entry_name>
ligand_docking-pose.97

> <s_m_Source_Path>
/home/csk/Desktop/cluster/DUD-E-result/esr1

> <s_m_Source_File>
ligand_docking-pose.sdf

> <i_m_Source_File_Index>
97

> <i_lp_mmshare_version>
53161

> <i_f3d_flags>
0

> <r_lp_tautomer_probability>
0.99999999999473

> <s_lp_Force_Field>
OPLS_2005

> <r_lp_Energy>
38.317484

> <b_lp_Chiralities_Consistent>
1

> <s_lp_Variant>
203251-1

> <s_i_glide_gridfile>
glide-grid_1sj0

> <i_i_glide_lignum>
660

> <i_i_glide_rotatable_bonds>
8

> <r_i_docking_score>
-9.90830509053207

> <r_i_glide_ligand_efficiency>
-0.291420737956825

> <r_i_glide_ligand_efficiency_sa>
-0.944090060712191

> <r_i_glide_ligand_efficiency_ln>
-2.18902251304259

> <r_i_glide_gscore>
-9.90830509053207

> <r_i_glide_lipo>
-5.64394907438527

> <r_i_glide_hbond>
-0.560822337637129

> <r_i_glide_metal>
0

> <r_i_glide_rewards>
-0.9

> <r_i_glide_evdw>
-32.4269714355469

> <r_i_glide_ecoul>
-9.58143997192383

> <r_i_glide_erotb>
0.255030889056246

> <r_i_glide_esite>
0

> <r_i_glide_emodel>
-39.3101376142793

> <r_i_glide_energy>
-42.0084114074707

> <r_i_glide_einternal>
13.800012588501

> <i_i_glide_confnum>
4

> <i_i_glide_posenum>
60

> <r_i_glide_eff_state_penalty>
0

> <s_user_duplicate_titles>
203251

> <s_m_subgroup_title>
dock_pv

> <s_m_subgroupid>
dock_pv1

> <b_m_subgroup_collapsed>
0

$$$$
516434
                    3D
 Schrodinger Suite 2021-1.
 38 40  0  0  1  0            999 V2000
   27.3148   -3.6507   27.8643 C   0  0  0  0  0  0
   27.4202   -2.6422   27.1863 C   0  0  0  0  0  0
   27.6222   -1.4892   26.2947 C   0  0  0  0  0  0
   28.4772   -0.4510   26.8666 N   0  0  0  0  0  0
   28.0816    0.4943   27.7798 C   0  0  0  0  0  0
   28.8812    1.4571   27.9857 N   0  0  0  0  0  0
   30.0333    1.2358   27.1390 C   0  0  2  0  0  0
   29.6653    0.0442   26.2073 C   0  0  1  0  0  0
   30.7344   -1.0097   25.8533 C   0  0  0  0  0  0
   31.2351   -0.9973   24.5472 C   0  0  0  0  0  0
   32.2080   -1.9032   24.1369 C   0  0  0  0  0  0
   32.7025   -2.8441   25.0314 C   0  0  0  0  0  0
   32.2201   -2.8768   26.3391 C   0  0  0  0  0  0
   31.2412   -1.9670   26.7574 C   0  0  0  0  0  0
   30.7023   -2.0593   28.3984 Cl  0  0  0  0  0  0
   33.6602   -3.7235   24.6038 O   0  0  0  0  0  0
   31.4112    1.2146   27.8670 C   0  0  0  0  0  0
   32.5506    1.3133   27.0476 C   0  0  0  0  0  0
   33.8405    1.2451   27.5643 C   0  0  0  0  0  0
   34.0181    1.0578   28.9258 C   0  0  0  0  0  0
   32.9237    0.9925   29.7689 C   0  0  0  0  0  0
   31.6310    1.0910   29.2647 C   0  0  0  0  0  0
   30.4073    1.0580   30.4741 Cl  0  0  0  0  0  0
   35.2600    0.9436   29.4640 O   0  0  0  0  0  0
   27.2599   -4.5416   28.4439 H   0  0  0  0  0  0
   26.6448   -1.0890   26.0216 H   0  0  0  0  0  0
   28.0682   -1.8830   25.3903 H   0  0  0  0  0  0
   27.1162    0.3832   28.2639 H   0  0  0  0  0  0
   30.0600    2.1304   26.5166 H   0  0  0  0  0  0
   29.3121    0.4649   25.2631 H   0  0  0  0  0  0
   30.8629   -0.2829   23.8335 H   0  0  0  0  0  0
   32.5787   -1.8782   23.1226 H   0  0  0  0  0  0
   32.6026   -3.6053   27.0382 H   0  0  0  0  0  0
   33.8581   -4.4428   25.2096 H   0  0  0  0  0  0
   32.4603    1.4201   25.9788 H   0  0  0  0  0  0
   34.6923    1.3155   26.9037 H   0  0  0  0  0  0
   33.0845    0.8723   30.8305 H   0  0  0  0  0  0
   35.9942    1.0579   28.8507 H   0  0  0  0  0  0
  1  2  3  0  0  0
  1 25  1  0  0  0
  2  3  1  0  0  0
  3  4  1  0  0  0
  3 26  1  0  0  0
  3 27  1  0  0  0
  4  8  1  0  0  0
  4  5  1  0  0  0
  5  6  2  0  0  0
  5 28  1  0  0  0
  6  7  1  0  0  0
  7  8  1  0  0  0
  7 17  1  0  0  0
  7 29  1  0  0  0
  8  9  1  0  0  0
  8 30  1  0  0  0
  9 14  1  0  0  0
  9 10  2  0  0  0
 10 11  1  0  0  0
 10 31  1  0  0  0
 11 12  2  0  0  0
 11 32  1  0  0  0
 12 13  1  0  0  0
 12 16  1  0  0  0
 13 14  2  0  0  0
 13 33  1  0  0  0
 14 15  1  0  0  0
 16 34  1  0  0  0
 17 22  1  0  0  0
 17 18  2  0  0  0
 18 19  1  0  0  0
 18 35  1  0  0  0
 19 20  2  0  0  0
 19 36  1  0  0  0
 20 21  1  0  0  0
 20 24  1  0  0  0
 21 22  2  0  0  0
 21 37  1  0  0  0
 22 23  1  0  0  0
 24 38  1  0  0  0
M  END
> <s_m_entry_id>
17171

> <s_m_entry_name>
ligand_docking-pose.98

> <s_m_Source_Path>
/home/csk/Desktop/cluster/DUD-E-result/esr1

> <s_m_Source_File>
ligand_docking-pose.sdf

> <i_m_Source_File_Index>
98

> <i_lp_mmshare_version>
53161

> <i_f3d_flags>
0

> <r_lp_tautomer_probability>
0.99999999998839

> <s_lp_Force_Field>
OPLS_2005

> <r_lp_Energy>
26.592306

> <b_lp_Chiralities_Consistent>
1

> <s_lp_Variant>
516434-2

> <s_i_glide_gridfile>
glide-grid_1sj0

> <i_i_glide_lignum>
1521

> <i_i_glide_rotatable_bonds>
6

> <r_i_docking_score>
-9.90126008764397

> <r_i_glide_ligand_efficiency>
-0.412552503651832

> <r_i_glide_ligand_efficiency_sa>
-1.19000734098157

> <r_i_glide_ligand_efficiency_ln>
-2.36982587819349

> <r_i_glide_gscore>
-9.90126008764397

> <r_i_glide_lipo>
-4.59190354800019

> <r_i_glide_hbond>
-0.485841465897653

> <r_i_glide_metal>
0

> <r_i_glide_rewards>
-2.59387502317499

> <r_i_glide_evdw>
-43.9776496887207

> <r_i_glide_ecoul>
-4.12654829025269

> <r_i_glide_erotb>
0.588224677402798

> <r_i_glide_esite>
0

> <r_i_glide_emodel>
-53.8156052931956

> <r_i_glide_energy>
-48.1041979789734

> <r_i_glide_einternal>
32.7803001403809

> <i_i_glide_confnum>
6

> <i_i_glide_posenum>
160

> <r_i_glide_eff_state_penalty>
0

> <s_user_duplicate_titles>
516434

> <s_m_subgroup_title>
dock_pv

> <s_m_subgroupid>
dock_pv1

> <b_m_subgroup_collapsed>
0

$$$$
88165
                    3D
 Schrodinger Suite 2021-1.
 62 66  0  0  1  0            999 V2000
   33.4391    1.4398   27.5170 C   0  0  0  0  0  0
   34.7128    1.0393   27.8991 C   0  0  0  0  0  0
   34.8424    0.0022   28.8199 C   0  0  0  0  0  0
   33.7420   -0.5422   29.4640 C   0  0  0  0  0  0
   32.4763   -0.1037   29.1296 C   0  0  0  0  0  0
   32.3272    0.8228   28.0967 C   0  0  0  0  0  0
   30.9459    1.0483   27.5184 C   0  0  2  0  0  0
   30.0208    1.6809   28.5841 C   0  0  0  0  0  0
   28.6459    1.9080   27.9810 C   0  0  0  0  0  0
   28.1007    0.6067   27.4640 C   0  0  0  0  0  0
   26.7245    0.3543   27.4640 C   0  0  0  0  0  0
   26.2009   -0.7837   26.8503 C   0  0  0  0  0  0
   27.0557   -1.7170   26.2991 C   0  0  0  0  0  0
   28.4140   -1.4695   26.3294 C   0  0  0  0  0  0
   28.9781   -0.3315   26.8901 C   0  0  0  0  0  0
   30.3783   -0.1638   26.8686 N   0  0  0  0  0  0
   31.1765   -0.9733   26.0417 C   0  0  0  0  0  0
   31.0679   -0.8694   24.6519 C   0  0  0  0  0  0
   31.7531   -1.7350   23.8063 C   0  0  0  0  0  0
   32.5390   -2.7589   24.3370 C   0  0  0  0  0  0
   32.6736   -2.8629   25.7209 C   0  0  0  0  0  0
   31.9955   -1.9827   26.5654 C   0  0  0  0  0  0
   33.2163   -3.6635   23.5480 O   0  0  0  0  0  0
   32.5571   -4.2144   22.3973 C   0  0  0  0  0  0
   33.6132   -4.5385   21.3243 C   0  0  0  0  0  0
   34.0303   -3.3635   20.5521 N   0  0  0  0  0  0
   33.0296   -2.9367   19.5783 C   0  0  0  0  0  0
   33.7828   -2.0800   18.5550 C   0  0  0  0  0  0
   35.2442   -2.5045   18.7115 C   0  0  0  0  0  0
   35.1875   -3.6532   19.7169 C   0  0  0  0  0  0
   24.8600   -0.9420   26.6643 O   0  0  0  0  0  0
   36.0600   -0.5420   29.0640 O   0  0  0  0  0  0
   33.3226    2.1675   26.7270 H   0  0  0  0  0  0
   35.5827    1.4614   27.4159 H   0  0  0  0  0  0
   33.8631   -1.3370   30.1835 H   0  0  0  0  0  0
   31.6150   -0.5766   29.5785 H   0  0  0  0  0  0
   31.0663    1.7803   26.7193 H   0  0  0  0  0  0
   29.9352    1.0477   29.4681 H   0  0  0  0  0  0
   30.4350    2.6293   28.9248 H   0  0  0  0  0  0
   28.7589    2.5429   27.1118 H   0  0  0  0  0  0
   27.9658    2.4082   28.6640 H   0  0  0  0  0  0
   26.0600    1.1112   27.8436 H   0  0  0  0  0  0
   26.6790   -2.5962   25.8004 H   0  0  0  0  0  0
   29.0778   -2.1420   25.8640 H   0  0  0  0  0  0
   30.4031   -0.1420   24.2201 H   0  0  0  0  0  0
   31.6601   -1.6113   22.7394 H   0  0  0  0  0  0
   33.2790   -3.6520   26.1402 H   0  0  0  0  0  0
   32.0667   -2.1335   27.6298 H   0  0  0  0  0  0
   31.7640   -3.5970   21.9789 H   0  0  0  0  0  0
   32.0632   -5.1413   22.6888 H   0  0  0  0  0  0
   33.2601   -5.3334   20.6639 H   0  0  0  0  0  0
   34.4859   -4.9420   21.8354 H   0  0  0  0  0  0
   32.2483   -2.3711   20.0859 H   0  0  0  0  0  0
   32.5184   -3.7799   19.1070 H   0  0  0  0  0  0
   33.6603   -1.0161   18.7561 H   0  0  0  0  0  0
   33.4151   -2.2700   17.5459 H   0  0  0  0  0  0
   35.6805   -2.8281   17.7660 H   0  0  0  0  0  0
   35.8633   -1.6906   19.0917 H   0  0  0  0  0  0
   35.1222   -4.6319   19.2356 H   0  0  0  0  0  0
   36.0747   -3.6977   20.3497 H   0  0  0  0  0  0
   24.6624   -1.7251   26.1283 H   0  0  0  0  0  0
   36.7771    0.0679   28.8327 H   0  0  0  0  0  0
  1  6  1  0  0  0
  1  2  2  0  0  0
  1 33  1  0  0  0
  2  3  1  0  0  0
  2 34  1  0  0  0
  3  4  2  0  0  0
  3 32  1  0  0  0
  4  5  1  0  0  0
  4 35  1  0  0  0
  5  6  2  0  0  0
  5 36  1  0  0  0
  6  7  1  0  0  0
  7 16  1  0  0  0
  7  8  1  0  0  0
  7 37  1  0  0  0
  8  9  1  0  0  0
  8 38  1  0  0  0
  8 39  1  0  0  0
  9 10  1  0  0  0
  9 40  1  0  0  0
  9 41  1  0  0  0
 10 15  2  0  0  0
 10 11  1  0  0  0
 11 12  2  0  0  0
 11 42  1  0  0  0
 12 13  1  0  0  0
 12 31  1  0  0  0
 13 14  2  0  0  0
 13 43  1  0  0  0
 14 15  1  0  0  0
 14 44  1  0  0  0
 15 16  1  0  0  0
 16 17  1  0  0  0
 17 22  1  0  0  0
 17 18  2  0  0  0
 18 19  1  0  0  0
 18 45  1  0  0  0
 19 20  2  0  0  0
 19 46  1  0  0  0
 20 21  1  0  0  0
 20 23  1  0  0  0
 21 22  2  0  0  0
 21 47  1  0  0  0
 22 48  1  0  0  0
 23 24  1  0  0  0
 24 25  1  0  0  0
 24 49  1  0  0  0
 24 50  1  0  0  0
 25 26  1  0  0  0
 25 51  1  0  0  0
 25 52  1  0  0  0
 26 30  1  0  0  0
 26 27  1  0  0  0
 27 28  1  0  0  0
 27 53  1  0  0  0
 27 54  1  0  0  0
 28 29  1  0  0  0
 28 55  1  0  0  0
 28 56  1  0  0  0
 29 30  1  0  0  0
 29 57  1  0  0  0
 29 58  1  0  0  0
 30 59  1  0  0  0
 30 60  1  0  0  0
 31 61  1  0  0  0
 32 62  1  0  0  0
M  END
> <s_m_entry_id>
17172

> <s_m_entry_name>
ligand_docking-pose.99

> <s_m_Source_Path>
/home/csk/Desktop/cluster/DUD-E-result/esr1

> <s_m_Source_File>
ligand_docking-pose.sdf

> <i_m_Source_File_Index>
99

> <i_lp_mmshare_version>
53161

> <i_f3d_flags>
0

> <r_lp_tautomer_probability>
0.99999999999473

> <s_lp_Force_Field>
OPLS_2005

> <r_lp_Energy>
51.346062

> <b_lp_Chiralities_Consistent>
1

> <s_lp_Variant>
88165-1

> <s_i_glide_gridfile>
glide-grid_1sj0

> <i_i_glide_lignum>
310

> <i_i_glide_rotatable_bonds>
8

> <r_i_docking_score>
-9.89449749898576

> <r_i_glide_ligand_efficiency>
-0.309203046843305

> <r_i_glide_ligand_efficiency_sa>
-0.981658482527613

> <r_i_glide_ligand_efficiency_ln>
-2.21564770383814

> <r_i_glide_gscore>
-9.89449749898576

> <r_i_glide_lipo>
-5.40931772795634

> <r_i_glide_hbond>
-0.568498429999385

> <r_i_glide_metal>
0

> <r_i_glide_rewards>
-0.947042406775521

> <r_i_glide_evdw>
-39.2237319946289

> <r_i_glide_ecoul>
-9.22574329376221

> <r_i_glide_erotb>
0.375409159541263

> <r_i_glide_esite>
0

> <r_i_glide_emodel>
-61.8626252164977

> <r_i_glide_energy>
-48.4494752883911

> <r_i_glide_einternal>
7.69276571273804

> <i_i_glide_confnum>
4

> <i_i_glide_posenum>
69

> <r_i_glide_eff_state_penalty>
0

> <s_user_duplicate_titles>
88165

> <s_m_subgroup_title>
dock_pv

> <s_m_subgroupid>
dock_pv1

> <b_m_subgroup_collapsed>
0

$$$$
112715
                    3D
 Schrodinger Suite 2021-1.
 63 66  0  0  1  0            999 V2000
   34.0977    1.6491   27.4376 C   0  0  0  0  0  0
   33.1644    0.6283   28.1559 C   0  0  2  0  0  0
   32.8858   -0.5869   27.2109 C   0  0  0  0  0  0
   31.5439   -1.3317   27.2589 C   0  0  1  0  0  0
   30.4558   -0.6600   28.1331 C   0  0  2  0  0  0
   29.0390   -1.2313   27.9512 C   0  0  0  0  0  0
   28.8579   -2.6235   27.9466 C   0  0  0  0  0  0
   27.6026   -3.1982   27.8645 C   0  0  0  0  0  0
   26.4915   -2.3753   27.8563 C   0  0  0  0  0  0
   26.6328   -0.9885   27.8408 C   0  0  0  0  0  0
   27.9013   -0.3961   27.8643 C   0  0  0  0  0  0
   28.0537    1.1225   27.8271 C   0  0  0  0  0  0
   29.2993    1.5593   28.6146 C   0  0  0  0  0  0
   30.5525    0.8848   28.0198 C   0  0  1  0  0  0
   31.8826    1.3822   28.6690 C   0  0  1  0  0  0
   31.9385    1.3173   30.2164 C   0  0  0  0  0  0
   33.3735    0.9595   30.5914 C   0  0  0  0  0  0
   33.8580    0.0922   29.4393 C   0  0  2  0  0  0
   35.2551   -0.1408   29.3941 O   0  0  0  0  0  0
   25.2611   -2.9443   27.9135 O   0  0  0  0  0  0
   31.1466   -1.8760   25.8563 C   0  0  0  0  0  0
   31.9535   -3.1199   25.4143 C   0  0  0  0  0  0
   32.9910   -2.8505   24.3138 C   0  0  0  0  0  0
   32.3831   -2.4408   22.9507 C   0  0  0  0  0  0
   32.6357   -3.3881   21.8621 N   0  0  0  0  0  0
   33.8167   -3.5591   21.2474 C   0  0  0  0  0  0
   34.8435   -2.9679   21.5856 O   0  0  0  0  0  0
   33.8368   -4.5427   20.0797 C   0  0  0  0  0  0
   35.1739   -4.1222   18.6588 Br  0  0  0  0  0  0
   31.7762   -2.2128   27.8588 H   0  0  0  0  0  0
   33.4469   -0.8992   29.6438 H   0  0  0  0  0  0
   35.0038    1.1720   27.0646 H   0  0  0  0  0  0
   33.6086    2.1133   26.5809 H   0  0  0  0  0  0
   34.4165    2.4538   28.1042 H   0  0  0  0  0  0
   32.8000   -0.0598   26.2594 H   0  0  0  0  0  0
   33.7005   -1.2801   27.0640 H   0  0  0  0  0  0
   30.6743   -0.9223   29.1696 H   0  0  0  0  0  0
   29.7049   -3.2888   28.0124 H   0  0  0  0  0  0
   27.4944   -4.2753   27.8684 H   0  0  0  0  0  0
   25.7501   -0.3689   27.8119 H   0  0  0  0  0  0
   28.1424    1.4448   26.7877 H   0  0  0  0  0  0
   27.1648    1.6135   28.2272 H   0  0  0  0  0  0
   29.4120    2.6436   28.5646 H   0  0  0  0  0  0
   29.2070    1.3453   29.6785 H   0  0  0  0  0  0
   30.5833    1.1366   26.9562 H   0  0  0  0  0  0
   31.9657    2.4364   28.4022 H   0  0  0  0  0  0
   31.6451    2.2573   30.6785 H   0  0  0  0  0  0
   31.2671    0.5620   30.6200 H   0  0  0  0  0  0
   33.9965    1.8463   30.6851 H   0  0  0  0  0  0
   33.4240    0.4368   31.5435 H   0  0  0  0  0  0
   35.7289    0.6916   29.2984 H   0  0  0  0  0  0
   24.9721   -3.3416   27.0641 H   0  0  0  0  0  0
   30.0990   -2.1420   25.8345 H   0  0  0  0  0  0
   31.1995   -1.0784   25.1153 H   0  0  0  0  0  0
   32.4530   -3.5871   26.2642 H   0  0  0  0  0  0
   31.2610   -3.8809   25.0642 H   0  0  0  0  0  0
   33.6664   -2.0677   24.6548 H   0  0  0  0  0  0
   33.6234   -3.7317   24.1980 H   0  0  0  0  0  0
   31.3077   -2.2684   23.0242 H   0  0  0  0  0  0
   32.8036   -1.4729   22.6651 H   0  0  0  0  0  0
   31.8542   -3.9493   21.5474 H   0  0  0  0  0  0
   34.0586   -5.5420   20.4593 H   0  0  0  0  0  0
   32.8643   -4.5814   19.5911 H   0  0  0  0  0  0
  1  2  1  0  0  0
  1 32  1  0  0  0
  1 33  1  0  0  0
  1 34  1  0  0  0
  2 15  1  0  0  0
  2 18  1  0  0  0
  2  3  1  0  0  0
  3  4  1  0  0  0
  3 35  1  0  0  0
  3 36  1  0  0  0
  4 30  1  0  0  0
  4  5  1  0  0  0
  4 21  1  0  0  0
  5 14  1  0  0  0
  5  6  1  0  0  0
  5 37  1  0  0  0
  6 11  2  0  0  0
  6  7  1  0  0  0
  7  8  2  0  0  0
  7 38  1  0  0  0
  8  9  1  0  0  0
  8 39  1  0  0  0
  9 10  2  0  0  0
  9 20  1  0  0  0
 10 11  1  0  0  0
 10 40  1  0  0  0
 11 12  1  0  0  0
 12 13  1  0  0  0
 12 41  1  0  0  0
 12 42  1  0  0  0
 13 14  1  0  0  0
 13 43  1  0  0  0
 13 44  1  0  0  0
 14 15  1  0  0  0
 14 45  1  0  0  0
 15 16  1  0  0  0
 15 46  1  0  0  0
 16 17  1  0  0  0
 16 47  1  0  0  0
 16 48  1  0  0  0
 17 18  1  0  0  0
 17 49  1  0  0  0
 17 50  1  0  0  0
 18 31  1  0  0  0
 18 19  1  0  0  0
 19 51  1  0  0  0
 20 52  1  0  0  0
 21 22  1  0  0  0
 21 53  1  0  0  0
 21 54  1  0  0  0
 22 23  1  0  0  0
 22 55  1  0  0  0
 22 56  1  0  0  0
 23 24  1  0  0  0
 23 57  1  0  0  0
 23 58  1  0  0  0
 24 25  1  0  0  0
 24 59  1  0  0  0
 24 60  1  0  0  0
 25 26  1  0  0  0
 25 61  1  0  0  0
 26 27  2  0  0  0
 26 28  1  0  0  0
 28 29  1  0  0  0
 28 62  1  0  0  0
 28 63  1  0  0  0
M  END
> <s_m_entry_id>
17173

> <s_m_entry_name>
ligand_docking-pose.100

> <s_m_Source_Path>
/home/csk/Desktop/cluster/DUD-E-result/esr1

> <s_m_Source_File>
ligand_docking-pose.sdf

> <i_m_Source_File_Index>
100

> <i_lp_mmshare_version>
53161

> <i_f3d_flags>
0

> <r_lp_tautomer_probability>
0.999999999997365

> <s_lp_Force_Field>
OPLS_2005

> <r_lp_Energy>
50.086646

> <b_lp_Chiralities_Consistent>
1

> <s_lp_Variant>
112715-2

> <s_i_glide_gridfile>
glide-grid_1sj0

> <i_i_glide_lignum>
831

> <i_i_glide_rotatable_bonds>
9

> <r_i_docking_score>
-9.879764805003

> <r_i_glide_ligand_efficiency>
-0.340681545000104

> <r_i_glide_ligand_efficiency_sa>
-1.04668164172964

> <r_i_glide_ligand_efficiency_ln>
-2.26221561112648

> <r_i_glide_gscore>
-9.879764805003

> <r_i_glide_lipo>
-5.52196879657124

> <r_i_glide_hbond>
-0.235982204907898

> <r_i_glide_metal>
0

> <r_i_glide_rewards>
-1.14241410693608

> <r_i_glide_evdw>
-41.4780921936035

> <r_i_glide_ecoul>
-8.42519474029541

> <r_i_glide_erotb>
0.392532276339282

> <r_i_glide_esite>
-0.0342481522025722

> <r_i_glide_emodel>
-71.1823020539224

> <r_i_glide_energy>
-49.9032869338989

> <r_i_glide_einternal>
10.1924629211426

> <i_i_glide_confnum>
24

> <i_i_glide_posenum>
263

> <r_i_glide_eff_state_penalty>
0

> <s_user_duplicate_titles>
112715

> <s_m_subgroup_title>
dock_pv

> <s_m_subgroupid>
dock_pv1

> <b_m_subgroup_collapsed>
0

$$$$
67780
                    3D
 Schrodinger Suite 2021-1.
 59 62  0  0  1  0            999 V2000
   33.1694    1.5914   27.9349 C   0  0  0  0  0  0
   32.0014    1.6071   28.9430 C   0  0  0  0  0  0
   32.4270    1.1338   30.3477 C   0  0  0  0  0  0
   30.7610    0.8662   28.4339 C   0  0  0  0  0  0
   30.5988   -0.4407   27.9477 C   0  0  0  0  0  0
   29.2309   -0.7386   27.6295 C   0  0  0  0  0  0
   28.6476   -1.9486   27.1906 C   0  0  0  0  0  0
   27.2864   -2.0028   26.8874 C   0  0  0  0  0  0
   26.4823   -0.8791   27.0185 C   0  0  0  0  0  0
   27.0128    0.3256   27.4640 C   0  0  0  0  0  0
   28.3784    0.3825   27.7777 C   0  0  0  0  0  0
   29.2589    1.7613   28.3749 S   0  0  0  0  0  0
   25.1603   -0.9422   26.6640 O   0  0  0  0  0  0
   31.6766   -1.4000   27.7711 C   0  0  0  0  0  0
   32.3460   -1.7422   28.7440 O   0  0  0  0  0  0
   31.9746   -1.8957   26.3898 C   0  0  0  0  0  0
   32.9324   -2.8956   26.2364 C   0  0  0  0  0  0
   33.2636   -3.3621   24.9741 C   0  0  0  0  0  0
   32.6124   -2.8922   23.8437 C   0  0  0  0  0  0
   31.6684   -1.8675   23.9821 C   0  0  0  0  0  0
   31.3630   -1.3646   25.2435 C   0  0  0  0  0  0
   32.9640   -3.5072   22.6620 O   0  0  0  0  0  0
   32.2658   -3.2042   21.4546 C   0  0  0  0  0  0
   33.0760   -3.6698   20.2241 C   0  0  0  0  0  0
   34.1930   -2.7693   19.8860 N   0  0  0  0  0  0
   34.6558   -3.0321   18.5144 C   0  0  0  0  0  0
   35.7797   -2.0663   18.0868 C   0  0  0  0  0  0
   36.9604   -2.0940   19.0680 C   0  0  0  0  0  0
   36.4518   -1.8658   20.4971 C   0  0  0  0  0  0
   35.2968   -2.8196   20.8627 C   0  0  0  0  0  0
   32.8541    1.9564   26.9554 H   0  0  0  0  0  0
   33.9911    2.2287   28.2646 H   0  0  0  0  0  0
   33.5911    0.5944   27.7883 H   0  0  0  0  0  0
   31.7458    2.6593   29.0644 H   0  0  0  0  0  0
   31.5982    1.1919   31.0552 H   0  0  0  0  0  0
   32.7919    0.1058   30.3522 H   0  0  0  0  0  0
   33.2384    1.7479   30.7427 H   0  0  0  0  0  0
   29.2533   -2.8375   27.0660 H   0  0  0  0  0  0
   26.8598   -2.9313   26.5313 H   0  0  0  0  0  0
   26.3799    1.1959   27.5537 H   0  0  0  0  0  0
   24.9295   -1.7991   26.2652 H   0  0  0  0  0  0
   33.4350   -3.3191   27.0931 H   0  0  0  0  0  0
   34.0062   -4.1415   24.8719 H   0  0  0  0  0  0
   31.1536   -1.4616   23.1293 H   0  0  0  0  0  0
   30.6381   -0.5676   25.3046 H   0  0  0  0  0  0
   31.3048   -3.7189   21.4742 H   0  0  0  0  0  0
   32.0621   -2.1420   21.3383 H   0  0  0  0  0  0
   33.4404   -4.6873   20.3752 H   0  0  0  0  0  0
   32.3826   -3.7215   19.3817 H   0  0  0  0  0  0
   34.9829   -4.0697   18.4315 H   0  0  0  0  0  0
   33.8134   -2.9183   17.8280 H   0  0  0  0  0  0
   36.1294   -2.3413   17.0917 H   0  0  0  0  0  0
   35.3765   -1.0572   17.9805 H   0  0  0  0  0  0
   37.7033   -1.3422   18.7991 H   0  0  0  0  0  0
   37.4628   -3.0608   19.0078 H   0  0  0  0  0  0
   36.1365   -0.8315   20.6494 H   0  0  0  0  0  0
   37.2735   -2.0195   21.1974 H   0  0  0  0  0  0
   34.9363   -2.5424   21.8517 H   0  0  0  0  0  0
   35.6592   -3.8436   20.9471 H   0  0  0  0  0  0
  1  2  1  0  0  0
  1 31  1  0  0  0
  1 32  1  0  0  0
  1 33  1  0  0  0
  2  3  1  0  0  0
  2  4  1  0  0  0
  2 34  1  0  0  0
  3 35  1  0  0  0
  3 36  1  0  0  0
  3 37  1  0  0  0
  4 12  1  0  0  0
  4  5  2  0  0  0
  5  6  1  0  0  0
  5 14  1  0  0  0
  6 11  2  0  0  0
  6  7  1  0  0  0
  7  8  2  0  0  0
  7 38  1  0  0  0
  8  9  1  0  0  0
  8 39  1  0  0  0
  9 10  2  0  0  0
  9 13  1  0  0  0
 10 11  1  0  0  0
 10 40  1  0  0  0
 11 12  1  0  0  0
 13 41  1  0  0  0
 14 15  2  0  0  0
 14 16  1  0  0  0
 16 21  1  0  0  0
 16 17  2  0  0  0
 17 18  1  0  0  0
 17 42  1  0  0  0
 18 19  2  0  0  0
 18 43  1  0  0  0
 19 20  1  0  0  0
 19 22  1  0  0  0
 20 21  2  0  0  0
 20 44  1  0  0  0
 21 45  1  0  0  0
 22 23  1  0  0  0
 23 24  1  0  0  0
 23 46  1  0  0  0
 23 47  1  0  0  0
 24 25  1  0  0  0
 24 48  1  0  0  0
 24 49  1  0  0  0
 25 30  1  0  0  0
 25 26  1  0  0  0
 26 27  1  0  0  0
 26 50  1  0  0  0
 26 51  1  0  0  0
 27 28  1  0  0  0
 27 52  1  0  0  0
 27 53  1  0  0  0
 28 29  1  0  0  0
 28 54  1  0  0  0
 28 55  1  0  0  0
 29 30  1  0  0  0
 29 56  1  0  0  0
 29 57  1  0  0  0
 30 58  1  0  0  0
 30 59  1  0  0  0
M  END
> <s_m_entry_id>
17174

> <s_m_entry_name>
ligand_docking-pose.101

> <s_m_Source_Path>
/home/csk/Desktop/cluster/DUD-E-result/esr1

> <s_m_Source_File>
ligand_docking-pose.sdf

> <i_m_Source_File_Index>
101

> <i_lp_mmshare_version>
53161

> <i_f3d_flags>
0

> <r_lp_tautomer_probability>
1

> <s_lp_Force_Field>
OPLS_2005

> <r_lp_Energy>
29.657197

> <b_lp_Chiralities_Consistent>
1

> <s_lp_Variant>
67780-1

> <s_i_glide_gridfile>
glide-grid_1sj0

> <i_i_glide_lignum>
1248

> <i_i_glide_rotatable_bonds>
8

> <r_i_docking_score>
-9.87670936873946

> <r_i_glide_ligand_efficiency>
-0.329223645624649

> <r_i_glide_ligand_efficiency_sa>
-1.02297441225376

> <r_i_glide_ligand_efficiency_ln>
-2.24409598394549

> <r_i_glide_gscore>
-9.87670936873946

> <r_i_glide_lipo>
-5.17096262557945

> <r_i_glide_hbond>
-0.195045215848207

> <r_i_glide_metal>
0

> <r_i_glide_rewards>
-1.74860161643917

> <r_i_glide_evdw>
-51.3556861877441

> <r_i_glide_ecoul>
-3.87321472167969

> <r_i_glide_erotb>
0.386666606766535

> <r_i_glide_esite>
0

> <r_i_glide_emodel>
-88.0904140920798

> <r_i_glide_energy>
-55.2289009094238

> <r_i_glide_einternal>
4.55791282653809

> <i_i_glide_confnum>
7

> <i_i_glide_posenum>
16

> <r_i_glide_eff_state_penalty>
0

> <s_user_duplicate_titles>
67780

> <s_m_subgroup_title>
dock_pv

> <s_m_subgroupid>
dock_pv1

> <b_m_subgroup_collapsed>
0

$$$$
357062
                    3D
 Schrodinger Suite 2021-1.
 43 46  0  0  1  0            999 V2000
   31.1024    1.8378   29.7667 C   0  0  0  0  0  0
   31.6723    0.6421   29.0133 C   0  0  0  0  0  0
   30.9201   -0.0995   28.1539 C   0  0  0  0  0  0
   29.5015    0.0294   27.7365 C   0  0  0  0  0  0
   28.5905    1.0834   27.8519 C   0  0  0  0  0  0
   27.2615    0.9018   27.4662 C   0  0  0  0  0  0
   26.8157   -0.3551   27.0642 C   0  0  0  0  0  0
   27.7255   -1.4025   26.9180 C   0  0  0  0  0  0
   29.0781   -1.1913   27.2035 C   0  0  0  0  0  0
   30.2191   -2.1700   27.1784 C   0  0  0  0  0  0
   31.4777   -1.3027   27.3835 C   0  0  2  0  0  0
   32.5333   -1.9755   28.3049 C   0  0  0  0  0  0
   33.6463   -0.9985   28.7406 C   0  0  0  0  0  0
   33.0792    0.2976   29.3431 C   0  0  0  0  0  0
   33.8270    1.0568   29.9583 O   0  0  0  0  0  0
   32.0577   -0.7587   26.0262 C   0  0  0  0  0  0
   32.3302   -1.7633   24.9051 C   0  0  0  0  0  0
   33.2548   -2.7949   25.0653 C   0  0  0  0  0  0
   33.4532   -3.7108   24.0396 C   0  0  0  0  0  0
   32.7664   -3.5885   22.8406 C   0  0  0  0  0  0
   31.8738   -2.5423   22.6576 C   0  0  0  0  0  0
   31.6567   -1.6310   23.6876 C   0  0  0  0  0  0
   25.4855   -0.5418   26.7963 O   0  0  0  0  0  0
   31.6968    2.1628   30.6217 H   0  0  0  0  0  0
   31.0222    2.6592   29.0641 H   0  0  0  0  0  0
   30.1091    1.6043   30.1487 H   0  0  0  0  0  0
   28.8867    2.0498   28.2277 H   0  0  0  0  0  0
   26.5667    1.7233   27.5591 H   0  0  0  0  0  0
   27.3681   -2.3645   26.5818 H   0  0  0  0  0  0
   30.2764   -2.7575   26.2643 H   0  0  0  0  0  0
   30.0832   -2.8830   27.9931 H   0  0  0  0  0  0
   32.0360   -2.3192   29.2124 H   0  0  0  0  0  0
   32.9504   -2.8768   27.8639 H   0  0  0  0  0  0
   34.2215   -0.7004   27.8655 H   0  0  0  0  0  0
   34.3456   -1.4496   29.4462 H   0  0  0  0  0  0
   32.9633   -0.1810   26.1916 H   0  0  0  0  0  0
   31.3599   -0.0210   25.6242 H   0  0  0  0  0  0
   33.8213   -2.9003   25.9737 H   0  0  0  0  0  0
   34.1108   -4.5419   24.1928 H   0  0  0  0  0  0
   32.9128   -4.3163   22.0549 H   0  0  0  0  0  0
   31.3361   -2.4683   21.7250 H   0  0  0  0  0  0
   30.9443   -0.8331   23.5374 H   0  0  0  0  0  0
   25.0110    0.2953   26.7464 H   0  0  0  0  0  0
  1  2  1  0  0  0
  1 24  1  0  0  0
  1 25  1  0  0  0
  1 26  1  0  0  0
  2 14  1  0  0  0
  2  3  2  0  0  0
  3 11  1  0  0  0
  3  4  1  0  0  0
  4  9  2  0  0  0
  4  5  1  0  0  0
  5  6  2  0  0  0
  5 27  1  0  0  0
  6  7  1  0  0  0
  6 28  1  0  0  0
  7  8  2  0  0  0
  7 23  1  0  0  0
  8  9  1  0  0  0
  8 29  1  0  0  0
  9 10  1  0  0  0
 10 11  1  0  0  0
 10 30  1  0  0  0
 10 31  1  0  0  0
 11 12  1  0  0  0
 11 16  1  0  0  0
 12 13  1  0  0  0
 12 32  1  0  0  0
 12 33  1  0  0  0
 13 14  1  0  0  0
 13 34  1  0  0  0
 13 35  1  0  0  0
 14 15  2  0  0  0
 16 17  1  0  0  0
 16 36  1  0  0  0
 16 37  1  0  0  0
 17 22  1  0  0  0
 17 18  2  0  0  0
 18 19  1  0  0  0
 18 38  1  0  0  0
 19 20  2  0  0  0
 19 39  1  0  0  0
 20 21  1  0  0  0
 20 40  1  0  0  0
 21 22  2  0  0  0
 21 41  1  0  0  0
 22 42  1  0  0  0
 23 43  1  0  0  0
M  END
> <s_m_entry_id>
17175

> <s_m_entry_name>
ligand_docking-pose.102

> <s_m_Source_Path>
/home/csk/Desktop/cluster/DUD-E-result/esr1

> <s_m_Source_File>
ligand_docking-pose.sdf

> <i_m_Source_File_Index>
102

> <i_lp_mmshare_version>
53161

> <i_f3d_flags>
0

> <r_lp_tautomer_probability>
1

> <s_lp_Force_Field>
OPLS_2005

> <r_lp_Energy>
24.613452

> <b_lp_Chiralities_Consistent>
1

> <s_lp_Variant>
357062-1

> <s_i_glide_gridfile>
glide-grid_1sj0

> <i_i_glide_lignum>
866

> <i_i_glide_rotatable_bonds>
3

> <r_i_docking_score>
-9.87340814996975

> <r_i_glide_ligand_efficiency>
-0.429278615216076

> <r_i_glide_ligand_efficiency_sa>
-1.22081127769346

> <r_i_glide_ligand_efficiency_ln>
-2.38747961777802

> <r_i_glide_gscore>
-9.87340814996975

> <r_i_glide_lipo>
-5.126344561508

> <r_i_glide_hbond>
-0.32

> <r_i_glide_metal>
0

> <r_i_glide_rewards>
-2.58646621814359

> <r_i_glide_evdw>
-37.7710075378418

> <r_i_glide_ecoul>
-2.33426666259766

> <r_i_glide_erotb>
0.398093005963572

> <r_i_glide_esite>
0

> <r_i_glide_emodel>
-61.2065991826446

> <r_i_glide_energy>
-40.1052742004395

> <r_i_glide_einternal>
2.98340559005737

> <i_i_glide_confnum>
6

> <i_i_glide_posenum>
139

> <r_i_glide_eff_state_penalty>
0

> <s_user_duplicate_titles>
357062

> <s_m_subgroup_title>
dock_pv

> <s_m_subgroupid>
dock_pv1

> <b_m_subgroup_collapsed>
0

$$$$
150369
                    3D
 Schrodinger Suite 2021-1.
 63 67  0  0  1  0            999 V2000
   34.8008    0.6500   28.5744 C   0  0  0  0  0  0
   34.3685    1.4568   27.5274 C   0  0  0  0  0  0
   33.0073    1.6823   27.3588 C   0  0  0  0  0  0
   32.0865    1.1421   28.2651 C   0  0  0  0  0  0
   32.5323    0.3691   29.3404 C   0  0  0  0  0  0
   33.8909    0.1017   29.4727 C   0  0  0  0  0  0
   30.6184    1.3718   28.0405 C   0  0  0  0  0  0
   30.0345    2.2580   28.6622 O   0  0  0  0  0  0
   30.0456    0.6168   27.0687 N   0  0  0  0  0  0
   28.7951    1.0663   26.4288 C   0  0  0  0  0  0
   27.6200    0.6384   27.3130 C   0  0  0  0  0  0
   27.6437   -0.8663   27.5216 C   0  0  0  0  0  0
   26.4547   -1.5599   27.7644 C   0  0  0  0  0  0
   26.4614   -2.9296   28.0030 C   0  0  0  0  0  0
   27.6598   -3.6270   27.9967 C   0  0  0  0  0  0
   28.8463   -2.9430   27.7544 C   0  0  0  0  0  0
   28.8712   -1.5693   27.4876 C   0  0  0  0  0  0
   30.2114   -0.8577   27.1799 C   0  0  1  0  0  0
   31.0545   -1.5473   26.0995 C   0  0  0  0  0  0
   30.9785   -1.1647   24.7575 C   0  0  0  0  0  0
   31.7326   -1.8361   23.7985 C   0  0  0  0  0  0
   32.5622   -2.9023   24.1682 C   0  0  0  0  0  0
   32.7206   -3.2058   25.5171 C   0  0  0  0  0  0
   31.9768   -2.5303   26.4783 C   0  0  0  0  0  0
   33.2619   -3.6675   23.2610 O   0  0  0  0  0  0
   32.5875   -4.0747   22.0636 C   0  0  0  0  0  0
   33.5563   -4.2476   20.8775 C   0  0  0  0  0  0
   34.2918   -3.0164   20.5630 N   0  0  0  0  0  0
   34.8330   -3.0090   19.2121 C   0  0  0  0  0  0
   35.8360   -1.8534   19.1959 C   0  0  0  0  0  0
   36.2885   -1.7346   20.6534 C   0  0  0  0  0  0
   35.4879   -2.8210   21.3743 C   0  0  0  0  0  0
   25.2933   -3.5837   28.2640 O   0  0  0  0  0  0
   35.8516    0.4320   28.6814 H   0  0  0  0  0  0
   35.0838    1.8725   26.8317 H   0  0  0  0  0  0
   32.6766    2.2692   26.5150 H   0  0  0  0  0  0
   31.8331   -0.0577   30.0460 H   0  0  0  0  0  0
   34.2435   -0.5371   30.2640 H   0  0  0  0  0  0
   28.8254    2.1407   26.2499 H   0  0  0  0  0  0
   28.6879    0.6548   25.4258 H   0  0  0  0  0  0
   27.6590    1.1661   28.2627 H   0  0  0  0  0  0
   26.6794    0.9453   26.8580 H   0  0  0  0  0  0
   25.5180   -1.0229   27.7838 H   0  0  0  0  0  0
   27.6734   -4.6900   28.1849 H   0  0  0  0  0  0
   29.7632   -3.5072   27.7565 H   0  0  0  0  0  0
   30.7831   -1.0615   28.0863 H   0  0  0  0  0  0
   30.3204   -0.3696   24.4447 H   0  0  0  0  0  0
   31.6598   -1.5355   22.7661 H   0  0  0  0  0  0
   33.3915   -3.9992   25.8112 H   0  0  0  0  0  0
   32.0971   -2.8018   27.5163 H   0  0  0  0  0  0
   32.1018   -5.0307   22.2662 H   0  0  0  0  0  0
   31.7841   -3.4096   21.7494 H   0  0  0  0  0  0
   34.2396   -5.0777   21.0600 H   0  0  0  0  0  0
   32.9600   -4.5400   20.0108 H   0  0  0  0  0  0
   35.2818   -3.9665   18.9381 H   0  0  0  0  0  0
   34.0138   -2.8608   18.5073 H   0  0  0  0  0  0
   36.6691   -2.0656   18.5250 H   0  0  0  0  0  0
   35.3636   -0.9342   18.8472 H   0  0  0  0  0  0
   36.0681   -0.7473   21.0608 H   0  0  0  0  0  0
   37.3609   -1.9008   20.7617 H   0  0  0  0  0  0
   35.2088   -2.5413   22.3888 H   0  0  0  0  0  0
   36.0588   -3.7417   21.4894 H   0  0  0  0  0  0
   24.8605   -3.7411   27.4030 H   0  0  0  0  0  0
  1  6  1  0  0  0
  1  2  2  0  0  0
  1 34  1  0  0  0
  2  3  1  0  0  0
  2 35  1  0  0  0
  3  4  2  0  0  0
  3 36  1  0  0  0
  4  5  1  0  0  0
  4  7  1  0  0  0
  5  6  2  0  0  0
  5 37  1  0  0  0
  6 38  1  0  0  0
  7  8  2  0  0  0
  7  9  1  0  0  0
  9 18  1  0  0  0
  9 10  1  0  0  0
 10 11  1  0  0  0
 10 39  1  0  0  0
 10 40  1  0  0  0
 11 12  1  0  0  0
 11 41  1  0  0  0
 11 42  1  0  0  0
 12 17  2  0  0  0
 12 13  1  0  0  0
 13 14  2  0  0  0
 13 43  1  0  0  0
 14 15  1  0  0  0
 14 33  1  0  0  0
 15 16  2  0  0  0
 15 44  1  0  0  0
 16 17  1  0  0  0
 16 45  1  0  0  0
 17 18  1  0  0  0
 18 19  1  0  0  0
 18 46  1  0  0  0
 19 24  1  0  0  0
 19 20  2  0  0  0
 20 21  1  0  0  0
 20 47  1  0  0  0
 21 22  2  0  0  0
 21 48  1  0  0  0
 22 23  1  0  0  0
 22 25  1  0  0  0
 23 24  2  0  0  0
 23 49  1  0  0  0
 24 50  1  0  0  0
 25 26  1  0  0  0
 26 27  1  0  0  0
 26 51  1  0  0  0
 26 52  1  0  0  0
 27 28  1  0  0  0
 27 53  1  0  0  0
 27 54  1  0  0  0
 28 32  1  0  0  0
 28 29  1  0  0  0
 29 30  1  0  0  0
 29 55  1  0  0  0
 29 56  1  0  0  0
 30 31  1  0  0  0
 30 57  1  0  0  0
 30 58  1  0  0  0
 31 32  1  0  0  0
 31 59  1  0  0  0
 31 60  1  0  0  0
 32 61  1  0  0  0
 32 62  1  0  0  0
 33 63  1  0  0  0
M  END
> <s_m_entry_id>
17176

> <s_m_entry_name>
ligand_docking-pose.103

> <s_m_Source_Path>
/home/csk/Desktop/cluster/DUD-E-result/esr1

> <s_m_Source_File>
ligand_docking-pose.sdf

> <i_m_Source_File_Index>
103

> <i_lp_mmshare_version>
53161

> <i_f3d_flags>
0

> <r_lp_tautomer_probability>
0.999999999997365

> <s_lp_Force_Field>
OPLS_2005

> <r_lp_Energy>
63.603217

> <b_lp_Chiralities_Consistent>
1

> <s_lp_Variant>
150369-1

> <s_i_glide_gridfile>
glide-grid_1sj0

> <i_i_glide_lignum>
598

> <i_i_glide_rotatable_bonds>
8

> <r_i_docking_score>
-9.86787804337445

> <r_i_glide_ligand_efficiency>
-0.299026607374983

> <r_i_glide_ligand_efficiency_sa>
-0.959138107619564

> <r_i_glide_ligand_efficiency_ln>
-2.19456498370841

> <r_i_glide_gscore>
-9.86787804337445

> <r_i_glide_lipo>
-5.83665532217312

> <r_i_glide_hbond>
-0.16

> <r_i_glide_metal>
0

> <r_i_glide_rewards>
-0.484631379078711

> <r_i_glide_evdw>
-56.6891212463379

> <r_i_glide_ecoul>
-6.53798627853394

> <r_i_glide_erotb>
0.428562661974365

> <r_i_glide_esite>
0

> <r_i_glide_emodel>
-82.6933838337498

> <r_i_glide_energy>
-63.2271075248718

> <r_i_glide_einternal>
19.0086402893066

> <i_i_glide_confnum>
7

> <i_i_glide_posenum>
41

> <r_i_glide_eff_state_penalty>
0

> <s_user_duplicate_titles>
150369

> <s_m_subgroup_title>
dock_pv

> <s_m_subgroupid>
dock_pv1

> <b_m_subgroup_collapsed>
0

$$$$
326183
                    3D
 Schrodinger Suite 2021-1.
 64 69  0  0  1  0            999 V2000
   34.0407    1.0580   29.8687 C   0  0  0  0  0  0
   34.5846   -0.1549   29.4640 C   0  0  0  0  0  0
   33.7906   -1.1515   28.9038 C   0  0  0  0  0  0
   32.4633   -0.8324   28.6392 C   0  0  0  0  0  0
   31.9116    0.4024   29.0355 C   0  0  0  0  0  0
   32.6842    1.3430   29.7023 C   0  0  0  0  0  0
   30.5891    0.4249   28.6191 C   0  0  0  0  0  0
   30.2852   -0.7734   28.0222 C   0  0  0  0  0  0
   31.4438   -1.5167   27.9860 N   0  0  0  0  0  0
   31.6857   -2.7380   27.2366 C   0  0  0  0  0  0
   32.1399   -2.5302   25.8062 C   0  0  0  0  0  0
   31.5069   -1.5933   24.9976 C   0  0  0  0  0  0
   31.7786   -1.5734   23.6428 C   0  0  0  0  0  0
   32.6384   -2.5094   23.0655 C   0  0  0  0  0  0
   33.3621   -3.3635   23.8998 C   0  0  0  0  0  0
   33.1267   -3.3535   25.2695 C   0  0  0  0  0  0
   32.6981   -2.5420   21.6890 O   0  0  0  0  0  0
   33.4071   -3.5768   21.0131 C   0  0  0  0  0  0
   33.0595   -3.4502   19.5148 C   0  0  0  0  0  0
   34.0173   -4.0943   18.6061 N   0  0  0  0  0  0
   33.8716   -3.6440   17.2180 C   0  0  0  0  0  0
   35.1503   -3.7441   16.3656 C   0  0  0  0  0  0
   35.4108   -5.1106   15.7012 C   0  0  0  0  0  0
   35.0785   -6.3636   16.5348 C   0  0  0  0  0  0
   35.3286   -6.2498   18.0508 C   0  0  0  0  0  0
   34.2105   -5.5324   18.8331 C   0  0  0  0  0  0
   28.9510   -0.8655   27.6156 C   0  0  0  0  0  0
   28.2901   -1.9688   27.0641 C   0  0  0  0  0  0
   26.9414   -1.8372   26.7570 C   0  0  0  0  0  0
   26.2492   -0.6448   26.9718 C   0  0  0  0  0  0
   26.9023    0.4799   27.4641 C   0  0  0  0  0  0
   28.2439    0.3549   27.8319 C   0  0  0  0  0  0
   29.2794    1.5554   28.6134 S   0  0  0  0  0  0
   24.9198   -0.5420   26.6640 O   0  0  0  0  0  0
   34.6832    1.7877   30.3382 H   0  0  0  0  0  0
   35.6338   -0.3475   29.6375 H   0  0  0  0  0  0
   34.1838   -2.1211   28.6641 H   0  0  0  0  0  0
   32.2418    2.2580   30.0466 H   0  0  0  0  0  0
   30.7850   -3.3420   27.2363 H   0  0  0  0  0  0
   32.4600   -3.3035   27.7575 H   0  0  0  0  0  0
   30.7647   -0.9150   25.3896 H   0  0  0  0  0  0
   31.2600   -0.8388   23.0640 H   0  0  0  0  0  0
   34.0603   -4.0794   23.4962 H   0  0  0  0  0  0
   33.6387   -4.0760   25.8871 H   0  0  0  0  0  0
   33.1004   -4.5576   21.3819 H   0  0  0  0  0  0
   34.4803   -3.4627   21.1782 H   0  0  0  0  0  0
   33.0024   -2.3862   19.2782 H   0  0  0  0  0  0
   32.0621   -3.8554   19.3350 H   0  0  0  0  0  0
   33.0437   -4.1882   16.7596 H   0  0  0  0  0  0
   33.5964   -2.5878   17.2007 H   0  0  0  0  0  0
   36.0059   -3.5340   17.0101 H   0  0  0  0  0  0
   35.1452   -2.9703   15.5971 H   0  0  0  0  0  0
   36.4598   -5.1486   15.4048 H   0  0  0  0  0  0
   34.8497   -5.1627   14.7667 H   0  0  0  0  0  0
   34.0344   -6.6368   16.3716 H   0  0  0  0  0  0
   35.6552   -7.2009   16.1394 H   0  0  0  0  0  0
   35.4032   -7.2605   18.4539 H   0  0  0  0  0  0
   36.2934   -5.7857   18.2590 H   0  0  0  0  0  0
   33.2602   -6.0258   18.6225 H   0  0  0  0  0  0
   34.3965   -5.7121   19.8912 H   0  0  0  0  0  0
   28.7791   -2.9123   26.8935 H   0  0  0  0  0  0
   26.4600   -2.6970   26.3272 H   0  0  0  0  0  0
   26.3814    1.4120   27.6170 H   0  0  0  0  0  0
   24.6235    0.3773   26.6639 H   0  0  0  0  0  0
  1  6  1  0  0  0
  1  2  2  0  0  0
  1 35  1  0  0  0
  2  3  1  0  0  0
  2 36  1  0  0  0
  3  4  2  0  0  0
  3 37  1  0  0  0
  4  9  1  0  0  0
  4  5  1  0  0  0
  5  6  2  0  0  0
  5  7  1  0  0  0
  6 38  1  0  0  0
  7 33  1  0  0  0
  7  8  2  0  0  0
  8  9  1  0  0  0
  8 27  1  0  0  0
  9 10  1  0  0  0
 10 11  1  0  0  0
 10 39  1  0  0  0
 10 40  1  0  0  0
 11 16  1  0  0  0
 11 12  2  0  0  0
 12 13  1  0  0  0
 12 41  1  0  0  0
 13 14  2  0  0  0
 13 42  1  0  0  0
 14 15  1  0  0  0
 14 17  1  0  0  0
 15 16  2  0  0  0
 15 43  1  0  0  0
 16 44  1  0  0  0
 17 18  1  0  0  0
 18 19  1  0  0  0
 18 45  1  0  0  0
 18 46  1  0  0  0
 19 20  1  0  0  0
 19 47  1  0  0  0
 19 48  1  0  0  0
 20 26  1  0  0  0
 20 21  1  0  0  0
 21 22  1  0  0  0
 21 49  1  0  0  0
 21 50  1  0  0  0
 22 23  1  0  0  0
 22 51  1  0  0  0
 22 52  1  0  0  0
 23 24  1  0  0  0
 23 53  1  0  0  0
 23 54  1  0  0  0
 24 25  1  0  0  0
 24 55  1  0  0  0
 24 56  1  0  0  0
 25 26  1  0  0  0
 25 57  1  0  0  0
 25 58  1  0  0  0
 26 59  1  0  0  0
 26 60  1  0  0  0
 27 32  2  0  0  0
 27 28  1  0  0  0
 28 29  2  0  0  0
 28 61  1  0  0  0
 29 30  1  0  0  0
 29 62  1  0  0  0
 30 31  2  0  0  0
 30 34  1  0  0  0
 31 32  1  0  0  0
 31 63  1  0  0  0
 32 33  1  0  0  0
 34 64  1  0  0  0
M  END
> <s_m_entry_id>
17177

> <s_m_entry_name>
ligand_docking-pose.104

> <s_m_Source_Path>
/home/csk/Desktop/cluster/DUD-E-result/esr1

> <s_m_Source_File>
ligand_docking-pose.sdf

> <i_m_Source_File_Index>
104

> <i_lp_mmshare_version>
53161

> <i_f3d_flags>
0

> <r_lp_tautomer_probability>
1

> <s_lp_Force_Field>
OPLS_2005

> <r_lp_Energy>
65.422152

> <b_lp_Chiralities_Consistent>
1

> <s_lp_Variant>
326183-1

> <s_i_glide_gridfile>
glide-grid_1sj0

> <i_i_glide_lignum>
68

> <i_i_glide_rotatable_bonds>
7

> <r_i_docking_score>
-9.8666852348339

> <r_i_glide_ligand_efficiency>
-0.290196624553938

> <r_i_glide_ligand_efficiency_sa>
-0.940124408490757

> <r_i_glide_ligand_efficiency_ln>
-2.17982751952146

> <r_i_glide_gscore>
-9.8666852348339

> <r_i_glide_lipo>
-5.5538605621354

> <r_i_glide_hbond>
-0.359239190047361

> <r_i_glide_metal>
0

> <r_i_glide_rewards>
-1.37344644303252

> <r_i_glide_evdw>
-45.6687698364258

> <r_i_glide_ecoul>
-5.01900196075439

> <r_i_glide_erotb>
0.456149746315835

> <r_i_glide_esite>
0

> <r_i_glide_emodel>
-64.6385621139074

> <r_i_glide_energy>
-50.6877717971802

> <r_i_glide_einternal>
4.58969020843506

> <i_i_glide_confnum>
1

> <i_i_glide_posenum>
61

> <r_i_glide_eff_state_penalty>
0

> <s_user_duplicate_titles>
326183

> <s_m_subgroup_title>
dock_pv

> <s_m_subgroupid>
dock_pv1

> <b_m_subgroup_collapsed>
0

$$$$
160017
                    3D
 Schrodinger Suite 2021-1.
 44 48  0  0  1  0            999 V2000
   26.4601   -2.3193   27.8596 C   0  0  0  0  0  0
   27.5268   -3.1770   27.6260 C   0  0  0  0  0  0
   28.7670   -2.6685   27.2554 C   0  0  0  0  0  0
   28.9709   -1.2781   27.0852 C   0  0  0  0  0  0
   27.8814   -0.3981   27.3792 C   0  0  0  0  0  0
   26.6234   -0.9420   27.7419 C   0  0  0  0  0  0
   28.0916    0.9985   27.3237 C   0  0  0  0  0  0
   29.3475    1.4989   27.0036 C   0  0  0  0  0  0
   30.3915    0.6508   26.6640 C   0  0  0  0  0  0
   30.2281   -0.7282   26.6757 C   0  0  0  0  0  0
   31.4283   -1.5513   26.3536 C   0  0  0  0  0  0
   31.8010   -1.9698   25.0306 C   0  0  0  0  0  0
   31.3427   -1.7420   23.7259 C   0  0  0  0  0  0
   32.0026   -2.3781   22.6640 C   0  0  0  0  0  0
   33.0975   -3.2134   22.8671 C   0  0  0  0  0  0
   33.5808   -3.4483   24.1485 C   0  0  0  0  0  0
   32.9125   -2.8164   25.1967 C   0  0  0  0  0  0
   33.2600   -2.9028   26.4978 O   0  0  0  0  0  0
   32.4400   -2.0596   27.1897 C   0  0  0  0  0  0
   32.8509   -1.8763   28.5870 C   0  0  0  0  0  0
   33.6600   -2.6686   29.0641 O   0  0  0  0  0  0
   32.5153   -0.6531   29.3578 C   0  0  0  0  0  0
   33.5476    0.0158   30.0233 C   0  0  0  0  0  0
   33.2600    1.0580   30.8976 C   0  0  0  0  0  0
   31.9508    1.4830   31.0636 C   0  0  0  0  0  0
   30.9344    0.9163   30.3144 C   0  0  0  0  0  0
   31.2051   -0.2101   29.5437 C   0  0  0  0  0  0
   29.6959    1.4580   30.3390 F   0  0  0  0  0  0
   33.6988   -3.7981   21.7884 O   0  0  0  0  0  0
   25.4968   -2.7330   28.1186 H   0  0  0  0  0  0
   27.3874   -4.2448   27.7151 H   0  0  0  0  0  0
   29.5869   -3.3420   27.0640 H   0  0  0  0  0  0
   25.7912   -0.2798   27.9271 H   0  0  0  0  0  0
   27.2821    1.6719   27.5674 H   0  0  0  0  0  0
   29.5269    2.5616   27.0222 H   0  0  0  0  0  0
   31.3621    1.0580   26.4245 H   0  0  0  0  0  0
   30.4917   -1.1014   23.5484 H   0  0  0  0  0  0
   31.6599   -2.2268   21.6509 H   0  0  0  0  0  0
   34.4247   -4.0862   24.3460 H   0  0  0  0  0  0
   34.5761   -0.3024   29.9103 H   0  0  0  0  0  0
   34.0551    1.5452   31.4380 H   0  0  0  0  0  0
   31.7268    2.2893   31.7387 H   0  0  0  0  0  0
   30.3715   -0.7370   29.1217 H   0  0  0  0  0  0
   34.3490   -4.4676   22.0088 H   0  0  0  0  0  0
  1  6  1  0  0  0
  1  2  2  0  0  0
  1 30  1  0  0  0
  2  3  1  0  0  0
  2 31  1  0  0  0
  3  4  2  0  0  0
  3 32  1  0  0  0
  4 10  1  0  0  0
  4  5  1  0  0  0
  5  6  2  0  0  0
  5  7  1  0  0  0
  6 33  1  0  0  0
  7  8  2  0  0  0
  7 34  1  0  0  0
  8  9  1  0  0  0
  8 35  1  0  0  0
  9 10  2  0  0  0
  9 36  1  0  0  0
 10 11  1  0  0  0
 11 19  2  0  0  0
 11 12  1  0  0  0
 12 17  2  0  0  0
 12 13  1  0  0  0
 13 14  2  0  0  0
 13 37  1  0  0  0
 14 15  1  0  0  0
 14 38  1  0  0  0
 15 16  2  0  0  0
 15 29  1  0  0  0
 16 17  1  0  0  0
 16 39  1  0  0  0
 17 18  1  0  0  0
 18 19  1  0  0  0
 19 20  1  0  0  0
 20 21  2  0  0  0
 20 22  1  0  0  0
 22 27  1  0  0  0
 22 23  2  0  0  0
 23 24  1  0  0  0
 23 40  1  0  0  0
 24 25  2  0  0  0
 24 41  1  0  0  0
 25 26  1  0  0  0
 25 42  1  0  0  0
 26 27  2  0  0  0
 26 28  1  0  0  0
 27 43  1  0  0  0
 29 44  1  0  0  0
M  END
> <s_m_entry_id>
17178

> <s_m_entry_name>
ligand_docking-pose.105

> <s_m_Source_Path>
/home/csk/Desktop/cluster/DUD-E-result/esr1

> <s_m_Source_File>
ligand_docking-pose.sdf

> <i_m_Source_File_Index>
105

> <i_lp_mmshare_version>
53161

> <i_f3d_flags>
0

> <r_lp_tautomer_probability>
1

> <s_lp_Force_Field>
OPLS_2005

> <r_lp_Energy>
26.372903

> <b_lp_Chiralities_Consistent>
1

> <s_lp_Variant>
160017-1

> <s_i_glide_gridfile>
glide-grid_1sj0

> <i_i_glide_lignum>
89

> <i_i_glide_rotatable_bonds>
4

> <r_i_docking_score>
-9.85975353807971

> <r_i_glide_ligand_efficiency>
-0.339991501313094

> <r_i_glide_ligand_efficiency_sa>
-1.04456160890196

> <r_i_glide_ligand_efficiency_ln>
-2.257633538443

> <r_i_glide_gscore>
-9.85975353807971

> <r_i_glide_lipo>
-6.00466416139997

> <r_i_glide_hbond>
0

> <r_i_glide_metal>
0

> <r_i_glide_rewards>
-2.086532019196

> <r_i_glide_evdw>
-42.1502952575684

> <r_i_glide_ecoul>
-0.396755069494247

> <r_i_glide_erotb>
0.398470665818819

> <r_i_glide_esite>
0

> <r_i_glide_emodel>
-53.9695511948786

> <r_i_glide_energy>
-42.5470503270626

> <r_i_glide_einternal>
13.9002676010132

> <i_i_glide_confnum>
14

> <i_i_glide_posenum>
166

> <r_i_glide_eff_state_penalty>
0

> <s_user_duplicate_titles>
160017

> <s_m_subgroup_title>
dock_pv

> <s_m_subgroupid>
dock_pv1

> <b_m_subgroup_collapsed>
0

$$$$
158898
                    3D
 Schrodinger Suite 2021-1.
 45 49  0  0  1  0            999 V2000
   26.6221   -2.2673   27.8002 C   0  0  0  0  0  0
   27.6601   -3.1409   27.5076 C   0  0  0  0  0  0
   28.9111   -2.6494   27.1477 C   0  0  0  0  0  0
   29.1551   -1.2612   27.0348 C   0  0  0  0  0  0
   28.0969   -0.3698   27.3988 C   0  0  0  0  0  0
   26.8305   -0.8926   27.7625 C   0  0  0  0  0  0
   28.3400    1.0183   27.3987 C   0  0  0  0  0  0
   29.5964    1.5009   27.0641 C   0  0  0  0  0  0
   30.6168    0.6437   26.6642 C   0  0  0  0  0  0
   30.4153   -0.7327   26.6009 C   0  0  0  0  0  0
   31.5414   -1.6143   26.1423 C   0  0  0  0  0  0
   31.7965   -2.0441   24.7955 C   0  0  0  0  0  0
   31.2600   -1.7702   23.5356 C   0  0  0  0  0  0
   31.6901   -2.5420   22.4389 C   0  0  0  0  0  0
   32.6848   -3.5082   22.5630 C   0  0  0  0  0  0
   33.2989   -3.7377   23.7854 C   0  0  0  0  0  0
   32.8264   -3.0040   24.8757 C   0  0  0  0  0  0
   33.2600   -3.1313   26.1476 O   0  0  0  0  0  0
   32.5339   -2.2521   26.8946 C   0  0  0  0  0  0
   32.9548   -2.1602   28.2785 C   0  0  0  0  0  0
   33.6600   -3.0268   28.7865 O   0  0  0  0  0  0
   32.7038   -0.9421   29.0281 C   0  0  0  0  0  0
   31.4272   -0.6822   29.5210 C   0  0  0  0  0  0
   31.2600    0.3778   30.3888 C   0  0  0  0  0  0
   32.3690    1.0662   30.8145 C   0  0  0  0  0  0
   33.6260    0.8832   30.2642 C   0  0  0  0  0  0
   33.8011   -0.1418   29.3549 C   0  0  0  0  0  0
   32.1937    1.8799   31.8640 O   0  0  0  0  0  0
   33.0585   -4.2560   21.4817 O   0  0  0  0  0  0
   25.6514   -2.6646   28.0569 H   0  0  0  0  0  0
   27.4918   -4.2075   27.5481 H   0  0  0  0  0  0
   29.7086   -3.3417   26.9295 H   0  0  0  0  0  0
   26.0274   -0.2148   28.0088 H   0  0  0  0  0  0
   27.5511    1.7005   27.6822 H   0  0  0  0  0  0
   29.7605    2.5644   27.1027 H   0  0  0  0  0  0
   31.5811    1.0537   26.4009 H   0  0  0  0  0  0
   30.4661   -1.0426   23.4641 H   0  0  0  0  0  0
   31.2526   -2.4030   21.4624 H   0  0  0  0  0  0
   34.0600   -4.4924   23.8973 H   0  0  0  0  0  0
   30.5832   -1.3120   29.2817 H   0  0  0  0  0  0
   30.2998    0.6580   30.7935 H   0  0  0  0  0  0
   34.4611    1.4781   30.5973 H   0  0  0  0  0  0
   34.7930   -0.3521   28.9762 H   0  0  0  0  0  0
   31.2853    1.8959   32.1706 H   0  0  0  0  0  0
   32.3286   -4.5126   20.9045 H   0  0  0  0  0  0
  1  6  1  0  0  0
  1  2  2  0  0  0
  1 30  1  0  0  0
  2  3  1  0  0  0
  2 31  1  0  0  0
  3  4  2  0  0  0
  3 32  1  0  0  0
  4 10  1  0  0  0
  4  5  1  0  0  0
  5  6  2  0  0  0
  5  7  1  0  0  0
  6 33  1  0  0  0
  7  8  2  0  0  0
  7 34  1  0  0  0
  8  9  1  0  0  0
  8 35  1  0  0  0
  9 10  2  0  0  0
  9 36  1  0  0  0
 10 11  1  0  0  0
 11 19  2  0  0  0
 11 12  1  0  0  0
 12 17  2  0  0  0
 12 13  1  0  0  0
 13 14  2  0  0  0
 13 37  1  0  0  0
 14 15  1  0  0  0
 14 38  1  0  0  0
 15 16  2  0  0  0
 15 29  1  0  0  0
 16 17  1  0  0  0
 16 39  1  0  0  0
 17 18  1  0  0  0
 18 19  1  0  0  0
 19 20  1  0  0  0
 20 21  2  0  0  0
 20 22  1  0  0  0
 22 27  1  0  0  0
 22 23  2  0  0  0
 23 24  1  0  0  0
 23 40  1  0  0  0
 24 25  2  0  0  0
 24 41  1  0  0  0
 25 26  1  0  0  0
 25 28  1  0  0  0
 26 27  2  0  0  0
 26 42  1  0  0  0
 27 43  1  0  0  0
 28 44  1  0  0  0
 29 45  1  0  0  0
M  END
> <s_m_entry_id>
17179

> <s_m_entry_name>
ligand_docking-pose.106

> <s_m_Source_Path>
/home/csk/Desktop/cluster/DUD-E-result/esr1

> <s_m_Source_File>
ligand_docking-pose.sdf

> <i_m_Source_File_Index>
106

> <i_lp_mmshare_version>
53161

> <i_f3d_flags>
0

> <r_lp_tautomer_probability>
1

> <s_lp_Force_Field>
OPLS_2005

> <r_lp_Energy>
26.218065

> <b_lp_Chiralities_Consistent>
1

> <s_lp_Variant>
158898-1

> <s_i_glide_gridfile>
glide-grid_1sj0

> <i_i_glide_lignum>
91

> <i_i_glide_rotatable_bonds>
5

> <r_i_docking_score>
-9.85486312864135

> <r_i_glide_ligand_efficiency>
-0.339822866504874

> <r_i_glide_ligand_efficiency_sa>
-1.04404350934385

> <r_i_glide_ligand_efficiency_ln>
-2.2565137586917

> <r_i_glide_gscore>
-9.85486312864135

> <r_i_glide_lipo>
-6.00602503185381

> <r_i_glide_hbond>
-0.0525968534913328

> <r_i_glide_metal>
0

> <r_i_glide_rewards>
-1.9468577191642

> <r_i_glide_evdw>
-36.7787551879883

> <r_i_glide_ecoul>
-2.75108194351196

> <r_i_glide_erotb>
0.402216526794198

> <r_i_glide_esite>
0

> <r_i_glide_emodel>
-35.3683406821753

> <r_i_glide_energy>
-39.5298371315002

> <r_i_glide_einternal>
17.6969833374023

> <i_i_glide_confnum>
1

> <i_i_glide_posenum>
209

> <r_i_glide_eff_state_penalty>
0

> <s_user_duplicate_titles>
158898

> <s_m_subgroup_title>
dock_pv

> <s_m_subgroupid>
dock_pv1

> <b_m_subgroup_collapsed>
0

$$$$
224190
                    3D
 Schrodinger Suite 2021-1.
 36 37  0  0  1  0            999 V2000
   28.4949   -0.0630   27.8919 C   0  0  0  0  0  0
   27.1769    0.0668   27.4640 C   0  0  0  0  0  0
   26.4766   -1.0609   27.0500 C   0  0  0  0  0  0
   27.0858   -2.3147   27.0478 C   0  0  0  0  0  0
   28.4032   -2.4460   27.4740 C   0  0  0  0  0  0
   29.1053   -1.3221   27.9119 C   0  0  0  0  0  0
   30.5067   -1.4801   28.4860 C   0  0  0  0  0  0
   31.6172   -0.6939   27.7427 C   0  0  2  0  0  0
   31.9681   -1.3850   26.4151 C   0  0  0  0  0  0
   32.6618   -2.6016   26.3968 C   0  0  0  0  0  0
   32.9891   -3.2084   25.1861 C   0  0  0  0  0  0
   32.6112   -2.6061   23.9892 C   0  0  0  0  0  0
   31.9130   -1.4027   23.9976 C   0  0  0  0  0  0
   31.5849   -0.7966   25.2066 C   0  0  0  0  0  0
   32.9221   -3.1893   22.7919 O   0  0  0  0  0  0
   32.8699   -0.3750   28.6273 C   0  0  0  0  0  0
   32.5697    0.5574   29.8385 C   0  0  0  0  0  0
   31.9568   -0.0714   30.8417 F   0  0  0  0  0  0
   33.6905    1.0579   30.3515 F   0  0  0  0  0  0
   31.7921    1.5882   29.5024 F   0  0  0  0  0  0
   33.4404   -1.4965   29.0719 F   0  0  0  0  0  0
   33.7797    0.2355   27.8634 F   0  0  0  0  0  0
   25.1812   -0.9421   26.6239 O   0  0  0  0  0  0
   29.0255    0.8109   28.2395 H   0  0  0  0  0  0
   26.6949    1.0343   27.4587 H   0  0  0  0  0  0
   26.5426   -3.1875   26.7158 H   0  0  0  0  0  0
   28.8614   -3.4244   27.4815 H   0  0  0  0  0  0
   30.7689   -2.5326   28.5427 H   0  0  0  0  0  0
   30.4390   -1.1705   29.5211 H   0  0  0  0  0  0
   31.2096    0.2860   27.4844 H   0  0  0  0  0  0
   32.9530   -3.0860   27.3158 H   0  0  0  0  0  0
   33.5362   -4.1405   25.1816 H   0  0  0  0  0  0
   31.6340   -0.9392   23.0648 H   0  0  0  0  0  0
   31.0373    0.1323   25.1999 H   0  0  0  0  0  0
   33.3046   -4.0651   22.8740 H   0  0  0  0  0  0
   24.8668   -1.7878   26.2638 H   0  0  0  0  0  0
  1  6  1  0  0  0
  1  2  2  0  0  0
  1 24  1  0  0  0
  2  3  1  0  0  0
  2 25  1  0  0  0
  3  4  2  0  0  0
  3 23  1  0  0  0
  4  5  1  0  0  0
  4 26  1  0  0  0
  5  6  2  0  0  0
  5 27  1  0  0  0
  6  7  1  0  0  0
  7  8  1  0  0  0
  7 28  1  0  0  0
  7 29  1  0  0  0
  8  9  1  0  0  0
  8 16  1  0  0  0
  8 30  1  0  0  0
  9 14  1  0  0  0
  9 10  2  0  0  0
 10 11  1  0  0  0
 10 31  1  0  0  0
 11 12  2  0  0  0
 11 32  1  0  0  0
 12 13  1  0  0  0
 12 15  1  0  0  0
 13 14  2  0  0  0
 13 33  1  0  0  0
 14 34  1  0  0  0
 15 35  1  0  0  0
 16 17  1  0  0  0
 16 21  1  0  0  0
 16 22  1  0  0  0
 17 18  1  0  0  0
 17 19  1  0  0  0
 17 20  1  0  0  0
 23 36  1  0  0  0
M  END
> <s_m_entry_id>
17180

> <s_m_entry_name>
ligand_docking-pose.107

> <s_m_Source_Path>
/home/csk/Desktop/cluster/DUD-E-result/esr1

> <s_m_Source_File>
ligand_docking-pose.sdf

> <i_m_Source_File_Index>
107

> <i_lp_mmshare_version>
53161

> <i_f3d_flags>
0

> <r_lp_tautomer_probability>
0.99999999999473

> <s_lp_Force_Field>
OPLS_2005

> <r_lp_Energy>
8.303538

> <b_lp_Chiralities_Consistent>
1

> <s_lp_Variant>
224190-1

> <s_i_glide_gridfile>
glide-grid_1sj0

> <i_i_glide_lignum>
418

> <i_i_glide_rotatable_bonds>
7

> <r_i_docking_score>
-9.82841387557584

> <r_i_glide_ligand_efficiency>
-0.427322342416341

> <r_i_glide_ligand_efficiency_sa>
-1.21524789808052

> <r_i_glide_ligand_efficiency_ln>
-2.37659959424405

> <r_i_glide_gscore>
-9.82841387557584

> <r_i_glide_lipo>
-3.9835309712227

> <r_i_glide_hbond>
-0.185251888113901

> <r_i_glide_metal>
0

> <r_i_glide_rewards>
-3.78595290309855

> <r_i_glide_evdw>
-36.7716331481934

> <r_i_glide_ecoul>
-3.41815662384033

> <r_i_glide_erotb>
0.477627037845032

> <r_i_glide_esite>
0

> <r_i_glide_emodel>
-65.0001976202179

> <r_i_glide_energy>
-40.1897897720337

> <r_i_glide_einternal>
2.82806444168091

> <i_i_glide_confnum>
17

> <i_i_glide_posenum>
372

> <r_i_glide_eff_state_penalty>
0

> <s_user_duplicate_titles>
224190

> <s_m_subgroup_title>
dock_pv

> <s_m_subgroupid>
dock_pv1

> <b_m_subgroup_collapsed>
0

$$$$
53166
                    3D
 Schrodinger Suite 2021-1.
 62 66  0  0  1  0            999 V2000
   33.6838    0.0119   29.8995 C   0  0  0  0  0  0
   33.3047    0.9807   28.7649 C   0  0  2  0  0  0
   32.0429    1.8161   29.2101 C   0  0  0  0  0  0
   30.6517    1.1062   29.0968 C   0  0  0  0  0  0
   30.4259    0.3584   27.7490 C   0  0  2  0  0  0
   29.1288   -0.4619   27.6470 C   0  0  0  0  0  0
   27.8845    0.1408   27.8637 C   0  0  0  0  0  0
   26.7108   -0.6104   27.8655 C   0  0  0  0  0  0
   26.7694   -1.9815   27.6704 C   0  0  0  0  0  0
   27.9728   -2.5770   27.3262 C   0  0  0  0  0  0
   29.1522   -1.8313   27.2879 C   0  0  0  0  0  0
   30.4594   -2.5264   26.9481 C   0  0  0  0  0  0
   31.5556   -1.6139   26.4490 C   0  0  2  0  0  0
   31.6719   -0.5223   27.5178 C   0  0  1  0  0  0
   32.9666    0.2594   27.4576 C   0  0  1  0  0  0
   33.0632    1.3502   26.4002 C   0  0  0  0  0  0
   34.0637    2.3578   26.9213 C   0  0  0  0  0  0
   34.5391    1.8179   28.2632 C   0  0  2  0  0  0
   35.6595    0.9920   27.9545 O   0  0  0  0  0  0
   31.2777   -1.0813   24.7286 S   0  0  0  0  0  0
   32.1692   -2.1595   23.6257 C   0  0  0  0  0  0
   33.4889   -2.5340   23.8590 C   0  0  0  0  0  0
   34.2100   -3.1607   22.8441 C   0  0  0  0  0  0
   33.6136   -3.5184   21.6362 C   0  0  0  0  0  0
   32.2577   -3.2433   21.4600 C   0  0  0  0  0  0
   31.5677   -2.5427   22.4377 C   0  0  0  0  0  0
   34.4224   -4.1765   20.5870 C   0  0  0  0  0  0
   33.9174   -4.8438   19.5300 C   0  0  0  0  0  0
   34.7172   -5.4730   18.5185 C   0  0  0  0  0  0
   35.8534   -5.1276   18.1983 O   0  0  0  0  0  0
   34.0367   -6.5039   17.9430 O   0  0  0  0  0  0
   25.6602   -2.7514   27.8641 O   0  0  0  0  0  0
   32.4793   -2.1923   26.4324 H   0  0  0  0  0  0
   34.8624    2.6290   28.9109 H   0  0  0  0  0  0
   34.0588    0.5757   30.7483 H   0  0  0  0  0  0
   32.8380   -0.5690   30.2666 H   0  0  0  0  0  0
   34.4592   -0.6955   29.6010 H   0  0  0  0  0  0
   32.1912    2.2565   30.1962 H   0  0  0  0  0  0
   31.9521    2.6575   28.5349 H   0  0  0  0  0  0
   30.5597    0.4024   29.9235 H   0  0  0  0  0  0
   29.8785    1.8627   29.2321 H   0  0  0  0  0  0
   30.3242    1.0864   26.9471 H   0  0  0  0  0  0
   27.8288    1.1992   28.0708 H   0  0  0  0  0  0
   25.7634   -0.1440   28.0786 H   0  0  0  0  0  0
   28.0029   -3.6397   27.1308 H   0  0  0  0  0  0
   30.8109   -2.9417   27.8664 H   0  0  0  0  0  0
   30.3607   -3.3408   26.2642 H   0  0  0  0  0  0
   31.7843   -1.1038   28.4339 H   0  0  0  0  0  0
   33.7286   -0.4839   27.2568 H   0  0  0  0  0  0
   33.3731    0.9297   25.4641 H   0  0  0  0  0  0
   32.1205    1.8552   26.2643 H   0  0  0  0  0  0
   34.8608    2.5529   26.2124 H   0  0  0  0  0  0
   33.5745    3.3195   27.0727 H   0  0  0  0  0  0
   36.3791    1.1412   28.5842 H   0  0  0  0  0  0
   33.9908   -2.2379   24.7656 H   0  0  0  0  0  0
   35.2595   -3.3376   22.9848 H   0  0  0  0  0  0
   31.7372   -3.5130   20.5534 H   0  0  0  0  0  0
   30.5419   -2.2850   22.2643 H   0  0  0  0  0  0
   35.4956   -4.1008   20.6917 H   0  0  0  0  0  0
   32.8597   -4.9434   19.3951 H   0  0  0  0  0  0
   33.1986   -6.6558   18.3909 H   0  0  0  0  0  0
   25.3421   -3.1355   27.0201 H   0  0  0  0  0  0
  1  2  1  0  0  0
  1 35  1  0  0  0
  1 36  1  0  0  0
  1 37  1  0  0  0
  2 15  1  0  0  0
  2 18  1  0  0  0
  2  3  1  0  0  0
  3  4  1  0  0  0
  3 38  1  0  0  0
  3 39  1  0  0  0
  4  5  1  0  0  0
  4 40  1  0  0  0
  4 41  1  0  0  0
  5 14  1  0  0  0
  5  6  1  0  0  0
  5 42  1  0  0  0
  6 11  2  0  0  0
  6  7  1  0  0  0
  7  8  2  0  0  0
  7 43  1  0  0  0
  8  9  1  0  0  0
  8 44  1  0  0  0
  9 10  2  0  0  0
  9 32  1  0  0  0
 10 11  1  0  0  0
 10 45  1  0  0  0
 11 12  1  0  0  0
 12 13  1  0  0  0
 12 46  1  0  0  0
 12 47  1  0  0  0
 13 33  1  0  0  0
 13 14  1  0  0  0
 13 20  1  0  0  0
 14 15  1  0  0  0
 14 48  1  0  0  0
 15 16  1  0  0  0
 15 49  1  0  0  0
 16 17  1  0  0  0
 16 50  1  0  0  0
 16 51  1  0  0  0
 17 18  1  0  0  0
 17 52  1  0  0  0
 17 53  1  0  0  0
 18 34  1  0  0  0
 18 19  1  0  0  0
 19 54  1  0  0  0
 20 21  1  0  0  0
 21 26  1  0  0  0
 21 22  2  0  0  0
 22 23  1  0  0  0
 22 55  1  0  0  0
 23 24  2  0  0  0
 23 56  1  0  0  0
 24 25  1  0  0  0
 24 27  1  0  0  0
 25 26  2  0  0  0
 25 57  1  0  0  0
 26 58  1  0  0  0
 27 28  2  0  0  0
 27 59  1  0  0  0
 28 29  1  0  0  0
 28 60  1  0  0  0
 29 30  2  0  0  0
 29 31  1  0  0  0
 31 61  1  0  0  0
 32 62  1  0  0  0
M  END
> <s_m_entry_id>
17181

> <s_m_entry_name>
ligand_docking-pose.108

> <s_m_Source_Path>
/home/csk/Desktop/cluster/DUD-E-result/esr1

> <s_m_Source_File>
ligand_docking-pose.sdf

> <i_m_Source_File_Index>
108

> <i_lp_mmshare_version>
53161

> <i_f3d_flags>
0

> <r_lp_tautomer_probability>
0.999999999997365

> <s_lp_Force_Field>
OPLS_2005

> <r_lp_Energy>
55.34803

> <b_lp_Chiralities_Consistent>
1

> <s_lp_Variant>
53166-2

> <s_i_glide_gridfile>
glide-grid_1sj0

> <i_i_glide_lignum>
753

> <i_i_glide_rotatable_bonds>
7

> <r_i_docking_score>
-9.82785635067103

> <r_i_glide_ligand_efficiency>
-0.30712051095847

> <r_i_glide_ligand_efficiency_sa>
-0.975046843226553

> <r_i_glide_ligand_efficiency_ln>
-2.20072493416138

> <r_i_glide_gscore>
-9.82785635067103

> <r_i_glide_lipo>
-5.1553438152877

> <r_i_glide_hbond>
-0.456

> <r_i_glide_metal>
0

> <r_i_glide_rewards>
-1.23688159090909

> <r_i_glide_evdw>
-31.435037612915

> <r_i_glide_ecoul>
-11.8153839111328

> <r_i_glide_erotb>
0.395016266907064

> <r_i_glide_esite>
-0.0305877440656384

> <r_i_glide_emodel>
-56.5901945040667

> <r_i_glide_energy>
-43.2504215240479

> <r_i_glide_einternal>
9.03781890869141

> <i_i_glide_confnum>
1

> <i_i_glide_posenum>
21

> <r_i_glide_eff_state_penalty>
0

> <s_user_duplicate_titles>
53166

> <s_m_subgroup_title>
dock_pv

> <s_m_subgroupid>
dock_pv1

> <b_m_subgroup_collapsed>
0

$$$$
333997
                    3D
 Schrodinger Suite 2021-1.
 32 34  0  0  1  0            999 V2000
   32.6199   -3.0240   24.4633 C   0  0  0  0  0  0
   31.8918   -1.9382   23.9849 C   0  0  0  0  0  0
   31.4615   -0.9571   24.8735 C   0  0  0  0  0  0
   31.7992   -1.0390   26.2286 C   0  0  0  0  0  0
   32.5307   -2.1311   26.7022 C   0  0  0  0  0  0
   32.9245   -3.1345   25.8212 C   0  0  0  0  0  0
   31.3829    0.0338   27.1672 C   0  0  0  0  0  0
   30.1631    0.1794   27.8475 C   0  0  0  0  0  0
   30.1530    1.2570   28.6039 N   0  0  0  0  0  0
   31.4011    1.8578   28.4527 O   0  0  0  0  0  0
   32.1222    1.1399   27.5558 C   0  0  0  0  0  0
   33.4941    1.6622   27.1751 C   0  0  0  0  0  0
   34.4563    0.9832   27.7948 F   0  0  0  0  0  0
   33.6599    1.5527   25.8644 F   0  0  0  0  0  0
   33.6602    2.9520   27.4647 F   0  0  0  0  0  0
   28.9713   -0.7193   27.7943 C   0  0  0  0  0  0
   27.6858   -0.1747   27.6844 C   0  0  0  0  0  0
   26.5737   -1.0079   27.6860 C   0  0  0  0  0  0
   26.7496   -2.3840   27.7974 C   0  0  0  0  0  0
   28.0226   -2.9394   27.8602 C   0  0  0  0  0  0
   29.1362   -2.1073   27.8631 C   0  0  0  0  0  0
   25.6602   -3.2025   27.8641 O   0  0  0  0  0  0
   32.9399   -3.7956   23.7789 H   0  0  0  0  0  0
   31.6417   -1.8762   22.9324 H   0  0  0  0  0  0
   30.8662   -0.1409   24.4984 H   0  0  0  0  0  0
   32.7873   -2.2019   27.7510 H   0  0  0  0  0  0
   33.4721   -3.9933   26.1880 H   0  0  0  0  0  0
   27.5441    0.8928   27.6090 H   0  0  0  0  0  0
   25.5842   -0.5813   27.6197 H   0  0  0  0  0  0
   28.1489   -4.0102   27.9274 H   0  0  0  0  0  0
   30.1198   -2.5488   27.9361 H   0  0  0  0  0  0
   25.2600   -3.3426   26.9719 H   0  0  0  0  0  0
  1  6  1  0  0  0
  1  2  2  0  0  0
  1 23  1  0  0  0
  2  3  1  0  0  0
  2 24  1  0  0  0
  3  4  2  0  0  0
  3 25  1  0  0  0
  4  5  1  0  0  0
  4  7  1  0  0  0
  5  6  2  0  0  0
  5 26  1  0  0  0
  6 27  1  0  0  0
  7 11  2  0  0  0
  7  8  1  0  0  0
  8  9  2  0  0  0
  8 16  1  0  0  0
  9 10  1  0  0  0
 10 11  1  0  0  0
 11 12  1  0  0  0
 12 13  1  0  0  0
 12 14  1  0  0  0
 12 15  1  0  0  0
 16 21  1  0  0  0
 16 17  2  0  0  0
 17 18  1  0  0  0
 17 28  1  0  0  0
 18 19  2  0  0  0
 18 29  1  0  0  0
 19 20  1  0  0  0
 19 22  1  0  0  0
 20 21  2  0  0  0
 20 30  1  0  0  0
 21 31  1  0  0  0
 22 32  1  0  0  0
M  END
> <s_m_entry_id>
17182

> <s_m_entry_name>
ligand_docking-pose.109

> <s_m_Source_Path>
/home/csk/Desktop/cluster/DUD-E-result/esr1

> <s_m_Source_File>
ligand_docking-pose.sdf

> <i_m_Source_File_Index>
109

> <i_lp_mmshare_version>
53161

> <i_f3d_flags>
0

> <r_lp_tautomer_probability>
0.999999999997365

> <s_lp_Force_Field>
OPLS_2005

> <r_lp_Energy>
16.862063

> <b_lp_Chiralities_Consistent>
1

> <s_lp_Variant>
333997-1

> <s_i_glide_gridfile>
glide-grid_1sj0

> <i_i_glide_lignum>
360

> <i_i_glide_rotatable_bonds>
4

> <r_i_docking_score>
-9.82566118905848

> <r_i_glide_ligand_efficiency>
-0.446620963139022

> <r_i_glide_ligand_efficiency_sa>
-1.2514495033213

> <r_i_glide_ligand_efficiency_ln>
-2.40174999430589

> <r_i_glide_gscore>
-9.82566118905848

> <r_i_glide_lipo>
-4.04502767886349

> <r_i_glide_hbond>
-0.16

> <r_i_glide_metal>
0

> <r_i_glide_rewards>
-3.05445571302429

> <r_i_glide_evdw>
-35.3038711547852

> <r_i_glide_ecoul>
-7.98061800003052

> <r_i_glide_erotb>
0.396108460573128

> <r_i_glide_esite>
0

> <r_i_glide_emodel>
-65.4838749996287

> <r_i_glide_energy>
-43.2844891548157

> <r_i_glide_einternal>
8.09469127655029

> <i_i_glide_confnum>
2

> <i_i_glide_posenum>
307

> <r_i_glide_eff_state_penalty>
0

> <s_user_duplicate_titles>
333997

> <s_m_subgroup_title>
dock_pv

> <s_m_subgroupid>
dock_pv1

> <b_m_subgroup_collapsed>
0

$$$$
67817
                    3D
 Schrodinger Suite 2021-1.
 56 59  0  0  1  0            999 V2000
   32.0831    1.2705   30.7209 C   0  0  0  0  0  0
   32.1097    1.2770   29.1823 C   0  0  0  0  0  0
   30.8623    0.6542   28.5743 C   0  0  0  0  0  0
   30.7128   -0.5839   27.9474 C   0  0  0  0  0  0
   29.3428   -0.8426   27.5973 C   0  0  0  0  0  0
   28.7519   -2.0092   27.0661 C   0  0  0  0  0  0
   27.3895   -2.0363   26.7692 C   0  0  0  0  0  0
   26.5922   -0.9157   26.9693 C   0  0  0  0  0  0
   27.1346    0.2609   27.4725 C   0  0  0  0  0  0
   28.4967    0.2775   27.8160 C   0  0  0  0  0  0
   29.3797    1.5873   28.5548 S   0  0  0  0  0  0
   25.2592   -0.9551   26.6622 O   0  0  0  0  0  0
   31.8132   -1.5028   27.6616 C   0  0  0  0  0  0
   32.5399   -1.8956   28.5755 O   0  0  0  0  0  0
   32.0321   -1.8980   26.2301 C   0  0  0  0  0  0
   31.4679   -1.1575   25.1820 C   0  0  0  0  0  0
   31.6970   -1.5208   23.8637 C   0  0  0  0  0  0
   32.4955   -2.6143   23.5553 C   0  0  0  0  0  0
   33.0947   -3.3377   24.5930 C   0  0  0  0  0  0
   32.8596   -2.9838   25.9211 C   0  0  0  0  0  0
   32.6321   -2.8931   22.2122 O   0  0  0  0  0  0
   33.3827   -4.0273   21.7854 C   0  0  0  0  0  0
   33.5129   -3.9943   20.2469 C   0  0  0  0  0  0
   34.0572   -2.7374   19.7080 N   0  0  0  0  0  0
   35.4162   -2.4249   20.1795 C   0  0  0  0  0  0
   35.8914   -1.0543   19.6531 C   0  0  0  0  0  0
   35.8030   -0.9583   18.1214 C   0  0  0  0  0  0
   34.4025   -1.3684   17.6442 C   0  0  0  0  0  0
   33.9516   -2.7183   18.2413 C   0  0  0  0  0  0
   33.0008    1.6904   31.1326 H   0  0  0  0  0  0
   31.2495    1.8553   31.1087 H   0  0  0  0  0  0
   31.9850    0.2544   31.1061 H   0  0  0  0  0  0
   33.0105    0.7573   28.8533 H   0  0  0  0  0  0
   32.2297    2.2972   28.8229 H   0  0  0  0  0  0
   29.3503   -2.8934   26.9026 H   0  0  0  0  0  0
   26.9507   -2.9427   26.3693 H   0  0  0  0  0  0
   26.5031    1.1257   27.6255 H   0  0  0  0  0  0
   25.0044   -1.8058   26.2644 H   0  0  0  0  0  0
   30.8543   -0.2853   25.3639 H   0  0  0  0  0  0
   31.2619   -0.9427   23.0657 H   0  0  0  0  0  0
   33.7364   -4.1785   24.3872 H   0  0  0  0  0  0
   33.3148   -3.5685   26.7075 H   0  0  0  0  0  0
   34.3718   -4.0582   22.2454 H   0  0  0  0  0  0
   32.8603   -4.9393   22.0818 H   0  0  0  0  0  0
   34.1162   -4.8407   19.9108 H   0  0  0  0  0  0
   32.5140   -4.1422   19.8338 H   0  0  0  0  0  0
   35.4297   -2.3942   21.2696 H   0  0  0  0  0  0
   36.0993   -3.2253   19.8850 H   0  0  0  0  0  0
   35.3192   -0.2595   20.1331 H   0  0  0  0  0  0
   36.9228   -0.8942   19.9682 H   0  0  0  0  0  0
   36.5528   -1.6130   17.6734 H   0  0  0  0  0  0
   36.0337    0.0542   17.7881 H   0  0  0  0  0  0
   34.4037   -1.4466   16.5569 H   0  0  0  0  0  0
   33.6609   -0.6016   17.8682 H   0  0  0  0  0  0
   34.5199   -3.5485   17.8159 H   0  0  0  0  0  0
   32.9071   -2.8876   17.9675 H   0  0  0  0  0  0
  1  2  1  0  0  0
  1 30  1  0  0  0
  1 31  1  0  0  0
  1 32  1  0  0  0
  2  3  1  0  0  0
  2 33  1  0  0  0
  2 34  1  0  0  0
  3 11  1  0  0  0
  3  4  2  0  0  0
  4  5  1  0  0  0
  4 13  1  0  0  0
  5 10  2  0  0  0
  5  6  1  0  0  0
  6  7  2  0  0  0
  6 35  1  0  0  0
  7  8  1  0  0  0
  7 36  1  0  0  0
  8  9  2  0  0  0
  8 12  1  0  0  0
  9 10  1  0  0  0
  9 37  1  0  0  0
 10 11  1  0  0  0
 12 38  1  0  0  0
 13 14  2  0  0  0
 13 15  1  0  0  0
 15 20  1  0  0  0
 15 16  2  0  0  0
 16 17  1  0  0  0
 16 39  1  0  0  0
 17 18  2  0  0  0
 17 40  1  0  0  0
 18 19  1  0  0  0
 18 21  1  0  0  0
 19 20  2  0  0  0
 19 41  1  0  0  0
 20 42  1  0  0  0
 21 22  1  0  0  0
 22 23  1  0  0  0
 22 43  1  0  0  0
 22 44  1  0  0  0
 23 24  1  0  0  0
 23 45  1  0  0  0
 23 46  1  0  0  0
 24 29  1  0  0  0
 24 25  1  0  0  0
 25 26  1  0  0  0
 25 47  1  0  0  0
 25 48  1  0  0  0
 26 27  1  0  0  0
 26 49  1  0  0  0
 26 50  1  0  0  0
 27 28  1  0  0  0
 27 51  1  0  0  0
 27 52  1  0  0  0
 28 29  1  0  0  0
 28 53  1  0  0  0
 28 54  1  0  0  0
 29 55  1  0  0  0
 29 56  1  0  0  0
M  END
> <s_m_entry_id>
17183

> <s_m_entry_name>
ligand_docking-pose.110

> <s_m_Source_Path>
/home/csk/Desktop/cluster/DUD-E-result/esr1

> <s_m_Source_File>
ligand_docking-pose.sdf

> <i_m_Source_File_Index>
110

> <i_lp_mmshare_version>
53161

> <i_f3d_flags>
0

> <r_lp_tautomer_probability>
1

> <s_lp_Force_Field>
OPLS_2005

> <r_lp_Energy>
32.830193

> <b_lp_Chiralities_Consistent>
1

> <s_lp_Variant>
67817-1

> <s_i_glide_gridfile>
glide-grid_1sj0

> <i_i_glide_lignum>
1130

> <i_i_glide_rotatable_bonds>
8

> <r_i_docking_score>
-9.81977848532827

> <r_i_glide_ligand_efficiency>
-0.338613051218216

> <r_i_glide_ligand_efficiency_sa>
-1.04032657348685

> <r_i_glide_ligand_efficiency_ln>
-2.24848026504279

> <r_i_glide_gscore>
-9.81977848532827

> <r_i_glide_lipo>
-5.11191140518305

> <r_i_glide_hbond>
-0.171281879607199

> <r_i_glide_metal>
0

> <r_i_glide_rewards>
-1.78852309116916

> <r_i_glide_evdw>
-51.3682136535645

> <r_i_glide_ecoul>
-3.93713188171387

> <r_i_glide_erotb>
0.410918355566437

> <r_i_glide_esite>
0

> <r_i_glide_emodel>
-84.7042109400871

> <r_i_glide_energy>
-55.3053455352783

> <r_i_glide_einternal>
8.60511684417725

> <i_i_glide_confnum>
10

> <i_i_glide_posenum>
13

> <r_i_glide_eff_state_penalty>
0

> <s_user_duplicate_titles>
67817

> <s_m_subgroup_title>
dock_pv

> <s_m_subgroupid>
dock_pv1

> <b_m_subgroup_collapsed>
0

$$$$
356871
                    3D
 Schrodinger Suite 2021-1.
 45 49  0  0  1  0            999 V2000
   31.7166    1.7811   30.1577 C   0  0  0  0  0  0
   32.2101    0.6699   29.2392 C   0  0  0  0  0  0
   31.3922    0.0227   28.3741 C   0  0  0  0  0  0
   29.9909    0.2952   28.0341 C   0  0  0  0  0  0
   29.2148    1.4399   28.2102 C   0  0  0  0  0  0
   27.8684    1.4586   27.8640 C   0  0  0  0  0  0
   27.3189    0.2665   27.4032 C   0  0  0  0  0  0
   28.0862   -0.9010   27.1996 C   0  0  0  0  0  0
   29.4509   -0.8671   27.4950 C   0  0  0  0  0  0
   30.4727   -1.9633   27.4518 C   0  0  0  0  0  0
   31.8068   -1.1996   27.5358 C   0  0  2  0  0  0
   32.8906   -1.9482   28.3588 C   0  0  0  0  0  0
   34.0625   -1.0224   28.7581 C   0  0  0  0  0  0
   33.6169    0.2839   29.4196 C   0  0  0  0  0  0
   34.4604    1.0582   29.8639 O   0  0  0  0  0  0
   32.2974   -0.7112   26.1280 C   0  0  0  0  0  0
   32.3786   -1.7505   25.0012 C   0  0  0  0  0  0
   33.3125   -2.7899   25.0362 C   0  0  0  0  0  0
   33.3952   -3.7037   23.9869 C   0  0  0  0  0  0
   32.5843   -3.5758   22.8684 C   0  0  0  0  0  0
   31.6600   -2.5426   22.8181 C   0  0  0  0  0  0
   31.5301   -1.6553   23.8904 C   0  0  0  0  0  0
   30.5509   -0.7248   23.8641 F   0  0  0  0  0  0
   27.1464   -1.8578   26.7285 C   0  0  0  0  0  0
   25.9482   -1.3421   26.6641 N   0  0  0  0  0  0
   26.0350   -0.0778   27.0649 N   0  0  0  0  0  0
   25.2193    0.5220   27.0544 H   0  0  0  0  0  0
   32.3408    1.9029   31.0447 H   0  0  0  0  0  0
   31.6603    2.7190   29.6099 H   0  0  0  0  0  0
   30.7196    1.5477   30.5316 H   0  0  0  0  0  0
   29.6437    2.3450   28.6092 H   0  0  0  0  0  0
   27.2604    2.3270   28.0273 H   0  0  0  0  0  0
   30.3987   -2.6025   26.5721 H   0  0  0  0  0  0
   30.3173   -2.5999   28.3199 H   0  0  0  0  0  0
   32.4459   -2.3288   29.2769 H   0  0  0  0  0  0
   33.2531   -2.8341   27.8434 H   0  0  0  0  0  0
   34.5797   -0.6894   27.8635 H   0  0  0  0  0  0
   34.7912   -1.5182   29.4006 H   0  0  0  0  0  0
   33.2587   -0.2104   26.2119 H   0  0  0  0  0  0
   31.6437    0.0936   25.7879 H   0  0  0  0  0  0
   33.9961   -2.8928   25.8615 H   0  0  0  0  0  0
   34.0604   -4.5419   24.0465 H   0  0  0  0  0  0
   32.6433   -4.2947   22.0624 H   0  0  0  0  0  0
   30.9947   -2.4983   21.9698 H   0  0  0  0  0  0
   27.3157   -2.8876   26.4489 H   0  0  0  0  0  0
  1  2  1  0  0  0
  1 28  1  0  0  0
  1 29  1  0  0  0
  1 30  1  0  0  0
  2 14  1  0  0  0
  2  3  2  0  0  0
  3 11  1  0  0  0
  3  4  1  0  0  0
  4  9  2  0  0  0
  4  5  1  0  0  0
  5  6  2  0  0  0
  5 31  1  0  0  0
  6  7  1  0  0  0
  6 32  1  0  0  0
  7 26  1  0  0  0
  7  8  2  0  0  0
  8  9  1  0  0  0
  8 24  1  0  0  0
  9 10  1  0  0  0
 10 11  1  0  0  0
 10 33  1  0  0  0
 10 34  1  0  0  0
 11 12  1  0  0  0
 11 16  1  0  0  0
 12 13  1  0  0  0
 12 35  1  0  0  0
 12 36  1  0  0  0
 13 14  1  0  0  0
 13 37  1  0  0  0
 13 38  1  0  0  0
 14 15  2  0  0  0
 16 17  1  0  0  0
 16 39  1  0  0  0
 16 40  1  0  0  0
 17 22  1  0  0  0
 17 18  2  0  0  0
 18 19  1  0  0  0
 18 41  1  0  0  0
 19 20  2  0  0  0
 19 42  1  0  0  0
 20 21  1  0  0  0
 20 43  1  0  0  0
 21 22  2  0  0  0
 21 44  1  0  0  0
 22 23  1  0  0  0
 24 25  2  0  0  0
 24 45  1  0  0  0
 25 26  1  0  0  0
 26 27  1  0  0  0
M  END
> <s_m_entry_id>
17184

> <s_m_entry_name>
ligand_docking-pose.111

> <s_m_Source_Path>
/home/csk/Desktop/cluster/DUD-E-result/esr1

> <s_m_Source_File>
ligand_docking-pose.sdf

> <i_m_Source_File_Index>
111

> <i_lp_mmshare_version>
53161

> <i_f3d_flags>
0

> <r_lp_tautomer_probability>
1

> <s_lp_Force_Field>
OPLS_2005

> <r_lp_Energy>
40.613909

> <b_lp_Chiralities_Consistent>
1

> <s_lp_Variant>
356871-1

> <s_i_glide_gridfile>
glide-grid_1sj0

> <i_i_glide_lignum>
852

> <i_i_glide_rotatable_bonds>
2

> <r_i_docking_score>
-9.81736688919073

> <r_i_glide_ligand_efficiency>
-0.377591034199644

> <r_i_glide_ligand_efficiency_sa>
-1.11861195306747

> <r_i_glide_ligand_efficiency_ln>
-2.30557640051824

> <r_i_glide_gscore>
-9.81736688919073

> <r_i_glide_lipo>
-5.14683110921416

> <r_i_glide_hbond>
-0.290643590490704

> <r_i_glide_metal>
0

> <r_i_glide_rewards>
-2.49996426437906

> <r_i_glide_evdw>
-37.8724632263184

> <r_i_glide_ecoul>
-2.02125525474548

> <r_i_glide_erotb>
0.316883524420928

> <r_i_glide_esite>
0

> <r_i_glide_emodel>
-43.8018484680912

> <r_i_glide_energy>
-39.8937184810638

> <r_i_glide_einternal>
2.03413319587708

> <i_i_glide_confnum>
6

> <i_i_glide_posenum>
364

> <r_i_glide_eff_state_penalty>
0

> <s_user_duplicate_titles>
356871

> <s_m_subgroup_title>
dock_pv

> <s_m_subgroupid>
dock_pv1

> <b_m_subgroup_collapsed>
0

$$$$
113349
                    3D
 Schrodinger Suite 2021-1.
 56 59  0  0  1  0            999 V2000
   34.3843    1.6957   27.8250 C   0  0  0  0  0  0
   33.2649    0.7302   28.3196 C   0  0  2  0  0  0
   32.9169   -0.2831   27.1832 C   0  0  0  0  0  0
   31.5006   -0.8791   27.0733 C   0  0  1  0  0  0
   30.5121   -0.2627   28.0875 C   0  0  2  0  0  0
   29.0627   -0.6555   27.8325 C   0  0  0  0  0  0
   28.7245   -2.0149   27.7412 C   0  0  0  0  0  0
   27.4258   -2.4085   27.4640 C   0  0  0  0  0  0
   26.4599   -1.4276   27.3287 C   0  0  0  0  0  0
   26.7538   -0.0892   27.4640 C   0  0  0  0  0  0
   28.0501    0.3208   27.7084 C   0  0  0  0  0  0
   28.3309    1.8024   27.8528 C   0  0  0  0  0  0
   29.5276    1.9955   28.7683 C   0  0  0  0  0  0
   30.7334    1.2722   28.1476 C   0  0  1  0  0  0
   32.0605    1.5727   28.8732 C   0  0  1  0  0  0
   32.0183    1.3335   30.4041 C   0  0  0  0  0  0
   33.3422    0.6883   30.7782 C   0  0  0  0  0  0
   33.7545   -0.0915   29.5330 C   0  0  2  0  0  0
   35.0921   -0.5420   29.4640 O   0  0  0  0  0  0
   25.1859   -1.7420   27.0640 O   0  0  0  0  0  0
   31.0023   -1.0452   25.6016 C   0  0  0  0  0  0
   32.0072   -1.6307   24.5907 C   0  0  0  0  0  0
   32.5035   -3.0513   24.9190 C   0  0  0  0  0  0
   33.5544   -3.5625   23.9216 C   0  0  0  0  0  0
   32.7695   -3.7420   22.1017 Br  0  0  0  0  0  0
   31.6215   -1.9036   27.4298 H   0  0  0  0  0  0
   33.1733   -1.0158   29.5814 H   0  0  0  0  0  0
   35.2123    1.1508   27.3688 H   0  0  0  0  0  0
   34.0144    2.4004   27.0791 H   0  0  0  0  0  0
   34.8099    2.2719   28.6465 H   0  0  0  0  0  0
   32.9615    0.3728   26.3123 H   0  0  0  0  0  0
   33.6611   -1.0568   27.0640 H   0  0  0  0  0  0
   30.7214   -0.6898   29.0686 H   0  0  0  0  0  0
   29.4834   -2.7758   27.8527 H   0  0  0  0  0  0
   27.1742   -3.4544   27.3613 H   0  0  0  0  0  0
   25.9677    0.6433   27.3572 H   0  0  0  0  0  0
   28.5247    2.2308   26.8698 H   0  0  0  0  0  0
   27.4598    2.3107   28.2639 H   0  0  0  0  0  0
   29.7300    3.0580   28.8468 H   0  0  0  0  0  0
   29.3279    1.6678   29.7894 H   0  0  0  0  0  0
   30.8319    1.6376   27.1222 H   0  0  0  0  0  0
   32.2497    2.6332   28.6972 H   0  0  0  0  0  0
   31.8634    2.2580   30.9571 H   0  0  0  0  0  0
   31.2030    0.6738   30.6999 H   0  0  0  0  0  0
   34.0659    1.4654   31.0075 H   0  0  0  0  0  0
   33.2600    0.0539   31.6604 H   0  0  0  0  0  0
   35.2600   -1.1152   30.2177 H   0  0  0  0  0  0
   25.0464   -2.5168   26.4742 H   0  0  0  0  0  0
   30.1104   -1.6681   25.5636 H   0  0  0  0  0  0
   30.6810   -0.0703   25.2344 H   0  0  0  0  0  0
   31.5346   -1.6323   23.6076 H   0  0  0  0  0  0
   32.8599   -0.9632   24.4977 H   0  0  0  0  0  0
   32.9483   -3.0681   25.9137 H   0  0  0  0  0  0
   31.6600   -3.7420   24.9563 H   0  0  0  0  0  0
   34.4121   -2.8928   23.8547 H   0  0  0  0  0  0
   33.9255   -4.5420   24.2129 H   0  0  0  0  0  0
  1  2  1  0  0  0
  1 28  1  0  0  0
  1 29  1  0  0  0
  1 30  1  0  0  0
  2 15  1  0  0  0
  2 18  1  0  0  0
  2  3  1  0  0  0
  3  4  1  0  0  0
  3 31  1  0  0  0
  3 32  1  0  0  0
  4 26  1  0  0  0
  4  5  1  0  0  0
  4 21  1  0  0  0
  5 14  1  0  0  0
  5  6  1  0  0  0
  5 33  1  0  0  0
  6 11  2  0  0  0
  6  7  1  0  0  0
  7  8  2  0  0  0
  7 34  1  0  0  0
  8  9  1  0  0  0
  8 35  1  0  0  0
  9 10  2  0  0  0
  9 20  1  0  0  0
 10 11  1  0  0  0
 10 36  1  0  0  0
 11 12  1  0  0  0
 12 13  1  0  0  0
 12 37  1  0  0  0
 12 38  1  0  0  0
 13 14  1  0  0  0
 13 39  1  0  0  0
 13 40  1  0  0  0
 14 15  1  0  0  0
 14 41  1  0  0  0
 15 16  1  0  0  0
 15 42  1  0  0  0
 16 17  1  0  0  0
 16 43  1  0  0  0
 16 44  1  0  0  0
 17 18  1  0  0  0
 17 45  1  0  0  0
 17 46  1  0  0  0
 18 27  1  0  0  0
 18 19  1  0  0  0
 19 47  1  0  0  0
 20 48  1  0  0  0
 21 22  1  0  0  0
 21 49  1  0  0  0
 21 50  1  0  0  0
 22 23  1  0  0  0
 22 51  1  0  0  0
 22 52  1  0  0  0
 23 24  1  0  0  0
 23 53  1  0  0  0
 23 54  1  0  0  0
 24 25  1  0  0  0
 24 55  1  0  0  0
 24 56  1  0  0  0
M  END
> <s_m_entry_id>
17185

> <s_m_entry_name>
ligand_docking-pose.112

> <s_m_Source_Path>
/home/csk/Desktop/cluster/DUD-E-result/esr1

> <s_m_Source_File>
ligand_docking-pose.sdf

> <i_m_Source_File_Index>
112

> <i_lp_mmshare_version>
53161

> <i_f3d_flags>
0

> <r_lp_tautomer_probability>
0.999999999997365

> <s_lp_Force_Field>
OPLS_2005

> <r_lp_Energy>
51.57417

> <b_lp_Chiralities_Consistent>
1

> <s_lp_Variant>
113349-2

> <s_i_glide_gridfile>
glide-grid_1sj0

> <i_i_glide_lignum>
827

> <i_i_glide_rotatable_bonds>
6

> <r_i_docking_score>
-9.81122312202946

> <r_i_glide_ligand_efficiency>
-0.392448924881179

> <r_i_glide_ligand_efficiency_sa>
-1.14752761646389

> <r_i_glide_ligand_efficiency_ln>
-2.3255538985521

> <r_i_glide_gscore>
-9.81122312202946

> <r_i_glide_lipo>
-5.60660455334601

> <r_i_glide_hbond>
-0.229902048334318

> <r_i_glide_metal>
0

> <r_i_glide_rewards>
-1.53147040909091

> <r_i_glide_evdw>
-33.0295753479004

> <r_i_glide_ecoul>
-6.93785524368286

> <r_i_glide_erotb>
0.24891094268922

> <r_i_glide_esite>
0

> <r_i_glide_emodel>
-56.9039085605688

> <r_i_glide_energy>
-39.9674305915833

> <r_i_glide_einternal>
1.94805681705475

> <i_i_glide_confnum>
5

> <i_i_glide_posenum>
230

> <r_i_glide_eff_state_penalty>
0

> <s_user_duplicate_titles>
113349

> <s_m_subgroup_title>
dock_pv

> <s_m_subgroupid>
dock_pv1

> <b_m_subgroup_collapsed>
0

$$$$
319156
                    3D
 Schrodinger Suite 2021-1.
 36 38  0  0  1  0            999 V2000
   32.8761   -2.9235   25.1086 C   0  0  0  0  0  0
   31.5370   -2.5055   25.7269 C   0  0  0  0  0  0
   31.6254   -2.1420   27.4960 S   0  0  0  0  0  0
   30.3177   -0.9795   27.8138 C   0  0  0  0  0  0
   30.5496    0.2826   28.1874 C   0  0  0  0  0  0
   29.3407    1.0700   28.2280 C   0  0  0  0  0  0
   29.2600    2.2580   28.5295 O   0  0  0  0  0  0
   28.3128    0.1260   27.7751 C   0  0  0  0  0  0
   28.8676   -1.1492   27.6808 C   0  0  0  0  0  0
   28.0195   -2.2393   27.4639 C   0  0  0  0  0  0
   26.6702   -2.0285   27.2283 C   0  0  0  0  0  0
   26.1581   -0.7379   27.1597 C   0  0  0  0  0  0
   26.9712    0.3506   27.4640 C   0  0  0  0  0  0
   24.8599   -0.5420   26.7943 O   0  0  0  0  0  0
   28.4602   -3.5250   27.5165 O   0  0  0  0  0  0
   31.8952    0.8385   28.2557 C   0  0  0  0  0  0
   32.7702    0.6584   29.3281 C   0  0  0  0  0  0
   34.0878    1.0914   29.1932 C   0  0  0  0  0  0
   34.4681    1.7474   28.0194 C   0  0  0  0  0  0
   33.6035    1.9199   26.9585 C   0  0  0  0  0  0
   32.3236    1.4357   27.0830 C   0  0  0  0  0  0
   35.7054    2.2580   27.8643 O   0  0  0  0  0  0
   32.7629   -3.1465   24.0472 H   0  0  0  0  0  0
   33.6271   -2.1417   25.2051 H   0  0  0  0  0  0
   33.2684   -3.8184   25.5926 H   0  0  0  0  0  0
   30.8600   -3.3420   25.6111 H   0  0  0  0  0  0
   31.1168   -1.6515   25.1943 H   0  0  0  0  0  0
   26.0398   -2.8852   27.0640 H   0  0  0  0  0  0
   26.5556    1.3485   27.4730 H   0  0  0  0  0  0
   24.6462    0.3910   26.6642 H   0  0  0  0  0  0
   29.4171   -3.6067   27.5050 H   0  0  0  0  0  0
   32.4492    0.1487   30.2249 H   0  0  0  0  0  0
   34.7922    0.9545   29.9989 H   0  0  0  0  0  0
   33.9309    2.3941   26.0445 H   0  0  0  0  0  0
   31.6421    1.4580   26.2640 H   0  0  0  0  0  0
   36.3658    1.8761   28.4584 H   0  0  0  0  0  0
  1  2  1  0  0  0
  1 23  1  0  0  0
  1 24  1  0  0  0
  1 25  1  0  0  0
  2  3  1  0  0  0
  2 26  1  0  0  0
  2 27  1  0  0  0
  3  4  1  0  0  0
  4  9  1  0  0  0
  4  5  2  0  0  0
  5  6  1  0  0  0
  5 16  1  0  0  0
  6  7  2  0  0  0
  6  8  1  0  0  0
  8 13  2  0  0  0
  8  9  1  0  0  0
  9 10  2  0  0  0
 10 11  1  0  0  0
 10 15  1  0  0  0
 11 12  2  0  0  0
 11 28  1  0  0  0
 12 13  1  0  0  0
 12 14  1  0  0  0
 13 29  1  0  0  0
 14 30  1  0  0  0
 15 31  1  0  0  0
 16 21  1  0  0  0
 16 17  2  0  0  0
 17 18  1  0  0  0
 17 32  1  0  0  0
 18 19  2  0  0  0
 18 33  1  0  0  0
 19 20  1  0  0  0
 19 22  1  0  0  0
 20 21  2  0  0  0
 20 34  1  0  0  0
 21 35  1  0  0  0
 22 36  1  0  0  0
M  END
> <s_m_entry_id>
17186

> <s_m_entry_name>
ligand_docking-pose.113

> <s_m_Source_Path>
/home/csk/Desktop/cluster/DUD-E-result/esr1

> <s_m_Source_File>
ligand_docking-pose.sdf

> <i_m_Source_File_Index>
113

> <i_lp_mmshare_version>
53161

> <i_f3d_flags>
0

> <r_lp_tautomer_probability>
1

> <s_lp_Force_Field>
OPLS_2005

> <r_lp_Energy>
26.667872

> <b_lp_Chiralities_Consistent>
1

> <s_lp_Variant>
319156-1

> <s_i_glide_gridfile>
glide-grid_1sj0

> <i_i_glide_lignum>
1667

> <i_i_glide_rotatable_bonds>
6

> <r_i_docking_score>
-9.78854266669974

> <r_i_glide_ligand_efficiency>
-0.444933757577261

> <r_i_glide_ligand_efficiency_sa>
-1.24672188698322

> <r_i_glide_ligand_efficiency_ln>
-2.39267687351041

> <r_i_glide_gscore>
-9.78854266669974

> <r_i_glide_lipo>
-3.97279649669794

> <r_i_glide_hbond>
-0.705053997102243

> <r_i_glide_metal>
0

> <r_i_glide_rewards>
-2.36601128878957

> <r_i_glide_evdw>
-36.3776931762695

> <r_i_glide_ecoul>
-8.67986106872559

> <r_i_glide_erotb>
0.376182935012322

> <r_i_glide_esite>
0

> <r_i_glide_emodel>
-53.760242132433

> <r_i_glide_energy>
-45.0575542449951

> <r_i_glide_einternal>
3.03092765808105

> <i_i_glide_confnum>
5

> <i_i_glide_posenum>
166

> <r_i_glide_eff_state_penalty>
0

> <s_user_duplicate_titles>
319156

> <s_m_subgroup_title>
dock_pv

> <s_m_subgroupid>
dock_pv1

> <b_m_subgroup_collapsed>
0

$$$$
160012
                    3D
 Schrodinger Suite 2021-1.
 44 48  0  0  1  0            999 V2000
   26.4600   -2.2215   27.7165 C   0  0  0  0  0  0
   27.5000   -3.1052   27.4651 C   0  0  0  0  0  0
   28.7629   -2.6267   27.1381 C   0  0  0  0  0  0
   29.0145   -1.2372   27.0240 C   0  0  0  0  0  0
   27.9484   -0.3347   27.3338 C   0  0  0  0  0  0
   26.6692   -0.8479   27.6573 C   0  0  0  0  0  0
   28.1972    1.0544   27.3267 C   0  0  0  0  0  0
   29.4698    1.5294   27.0340 C   0  0  0  0  0  0
   30.4938    0.6595   26.6796 C   0  0  0  0  0  0
   30.2922   -0.7117   26.6481 C   0  0  0  0  0  0
   31.4586   -1.5663   26.2869 C   0  0  0  0  0  0
   31.7613   -2.0061   24.9548 C   0  0  0  0  0  0
   31.2601   -1.7601   23.6666 C   0  0  0  0  0  0
   31.7401   -2.5419   22.6027 C   0  0  0  0  0  0
   32.7426   -3.4909   22.7814 C   0  0  0  0  0  0
   33.3134   -3.6921   24.0304 C   0  0  0  0  0  0
   32.8046   -2.9417   25.0935 C   0  0  0  0  0  0
   33.2225   -3.0124   26.3831 O   0  0  0  0  0  0
   32.4599   -2.1298   27.0978 C   0  0  0  0  0  0
   32.8700   -1.9675   28.5005 C   0  0  0  0  0  0
   33.6592   -2.7631   29.0077 O   0  0  0  0  0  0
   32.5277   -0.7427   29.2616 C   0  0  0  0  0  0
   31.2042   -0.3989   29.5327 C   0  0  0  0  0  0
   30.9174    0.7083   30.3230 C   0  0  0  0  0  0
   31.9544    1.3566   30.9566 C   0  0  0  0  0  0
   33.2745    1.0473   30.6863 C   0  0  0  0  0  0
   33.5699   -0.0012   29.8285 C   0  0  0  0  0  0
   31.6624    2.2537   31.9000 F   0  0  0  0  0  0
   33.1640   -4.2513   21.7279 O   0  0  0  0  0  0
   25.4814   -2.6145   27.9480 H   0  0  0  0  0  0
   27.3231   -4.1701   27.5168 H   0  0  0  0  0  0
   29.5612   -3.3337   26.9646 H   0  0  0  0  0  0
   25.8553   -0.1674   27.8635 H   0  0  0  0  0  0
   27.4011    1.7421   27.5713 H   0  0  0  0  0  0
   29.6600    2.5918   27.0609 H   0  0  0  0  0  0
   31.4701    1.0578   26.4502 H   0  0  0  0  0  0
   30.4631   -1.0482   23.5117 H   0  0  0  0  0  0
   31.3207   -2.4249   21.6143 H   0  0  0  0  0  0
   34.0601   -4.4491   24.1836 H   0  0  0  0  0  0
   30.3879   -1.0013   29.1713 H   0  0  0  0  0  0
   29.9107    1.0569   30.5158 H   0  0  0  0  0  0
   34.0600    1.5971   31.1743 H   0  0  0  0  0  0
   34.6054   -0.2650   29.6580 H   0  0  0  0  0  0
   32.4804   -4.4344   21.0736 H   0  0  0  0  0  0
  1  6  1  0  0  0
  1  2  2  0  0  0
  1 30  1  0  0  0
  2  3  1  0  0  0
  2 31  1  0  0  0
  3  4  2  0  0  0
  3 32  1  0  0  0
  4 10  1  0  0  0
  4  5  1  0  0  0
  5  6  2  0  0  0
  5  7  1  0  0  0
  6 33  1  0  0  0
  7  8  2  0  0  0
  7 34  1  0  0  0
  8  9  1  0  0  0
  8 35  1  0  0  0
  9 10  2  0  0  0
  9 36  1  0  0  0
 10 11  1  0  0  0
 11 19  2  0  0  0
 11 12  1  0  0  0
 12 17  2  0  0  0
 12 13  1  0  0  0
 13 14  2  0  0  0
 13 37  1  0  0  0
 14 15  1  0  0  0
 14 38  1  0  0  0
 15 16  2  0  0  0
 15 29  1  0  0  0
 16 17  1  0  0  0
 16 39  1  0  0  0
 17 18  1  0  0  0
 18 19  1  0  0  0
 19 20  1  0  0  0
 20 21  2  0  0  0
 20 22  1  0  0  0
 22 27  1  0  0  0
 22 23  2  0  0  0
 23 24  1  0  0  0
 23 40  1  0  0  0
 24 25  2  0  0  0
 24 41  1  0  0  0
 25 26  1  0  0  0
 25 28  1  0  0  0
 26 27  2  0  0  0
 26 42  1  0  0  0
 27 43  1  0  0  0
 29 44  1  0  0  0
M  END
> <s_m_entry_id>
17187

> <s_m_entry_name>
ligand_docking-pose.114

> <s_m_Source_Path>
/home/csk/Desktop/cluster/DUD-E-result/esr1

> <s_m_Source_File>
ligand_docking-pose.sdf

> <i_m_Source_File_Index>
114

> <i_lp_mmshare_version>
53161

> <i_f3d_flags>
0

> <r_lp_tautomer_probability>
1

> <s_lp_Force_Field>
OPLS_2005

> <r_lp_Energy>
26.803242

> <b_lp_Chiralities_Consistent>
1

> <s_lp_Variant>
160012-1

> <s_i_glide_gridfile>
glide-grid_1sj0

> <i_i_glide_lignum>
88

> <i_i_glide_rotatable_bonds>
4

> <r_i_docking_score>
-9.77531228394161

> <r_i_glide_ligand_efficiency>
-0.337079733929021

> <r_i_glide_ligand_efficiency_sa>
-1.03561573698543

> <r_i_glide_ligand_efficiency_ln>
-2.23829863249083

> <r_i_glide_gscore>
-9.77531228394161

> <r_i_glide_lipo>
-5.92885425426807

> <r_i_glide_hbond>
0

> <r_i_glide_metal>
0

> <r_i_glide_rewards>
-2.06786099844417

> <r_i_glide_evdw>
-36.2035789489746

> <r_i_glide_ecoul>
-2.44592499732971

> <r_i_glide_erotb>
0.398470665818819

> <r_i_glide_esite>
0

> <r_i_glide_emodel>
-47.8923597209201

> <r_i_glide_energy>
-38.6495039463043

> <r_i_glide_einternal>
7.74293947219849

> <i_i_glide_confnum>
14

> <i_i_glide_posenum>
266

> <r_i_glide_eff_state_penalty>
0

> <s_user_duplicate_titles>
160012

> <s_m_subgroup_title>
dock_pv

> <s_m_subgroupid>
dock_pv1

> <b_m_subgroup_collapsed>
0

$$$$
11617
                    3D
 Schrodinger Suite 2021-1.
 67 69  0  0  1  0            999 V2000
   32.4523   -3.5673   18.8871 C   0  0  0  0  0  0
   33.3972   -2.3576   19.0621 C   0  0  0  0  0  0
   33.4224   -1.5714   17.7343 C   0  0  0  0  0  0
   34.7601   -2.7438   19.4973 N   0  0  0  0  0  0
   34.8606   -3.8315   20.4868 C   0  0  0  0  0  0
   34.5235   -3.5241   21.9686 C   0  0  0  0  0  0
   33.3033   -2.8166   22.1548 O   0  0  0  0  0  0
   32.8651   -2.5470   23.4392 C   0  0  0  0  0  0
   31.9492   -1.5118   23.5485 C   0  0  0  0  0  0
   31.4329   -1.1309   24.7774 C   0  0  0  0  0  0
   31.8212   -1.7926   25.9440 C   0  0  0  0  0  0
   32.7353   -2.8519   25.8468 C   0  0  0  0  0  0
   33.2623   -3.2223   24.6045 C   0  0  0  0  0  0
   31.2345   -1.3415   27.2364 C   0  0  0  0  0  0
   31.9540   -0.9732   28.3326 C   0  0  0  0  0  0
   33.4875   -0.9873   28.4294 C   0  0  0  0  0  0
   34.0524    0.3546   28.9401 C   0  0  0  0  0  0
   33.4083    0.7886   30.2646 C   0  0  0  0  0  0
   31.8851    0.8583   30.1128 C   0  0  0  0  0  0
   31.2966   -0.4829   29.6305 C   0  0  0  0  0  0
   29.7491   -1.3248   27.2433 C   0  0  0  0  0  0
   29.0428   -2.5270   27.3467 C   0  0  0  0  0  0
   27.6546   -2.5350   27.2391 C   0  0  0  0  0  0
   26.9716   -1.3327   27.0779 C   0  0  0  0  0  0
   27.6587   -0.1215   27.0635 C   0  0  0  0  0  0
   29.0500   -0.1181   27.1190 C   0  0  0  0  0  0
   25.6160   -1.3421   26.8997 O   0  0  0  0  0  0
   35.8335   -1.7349   19.6522 C   0  0  0  0  0  0
   35.3965   -0.3202   20.0823 C   0  0  0  0  0  0
   36.7351   -1.7288   18.4072 C   0  0  0  0  0  0
   31.4780   -3.2580   18.5080 H   0  0  0  0  0  0
   32.8582   -4.3021   18.1920 H   0  0  0  0  0  0
   32.2585   -4.0697   19.8348 H   0  0  0  0  0  0
   32.9616   -1.7421   19.8414 H   0  0  0  0  0  0
   32.4118   -1.3025   17.4294 H   0  0  0  0  0  0
   33.9751   -0.6400   17.7955 H   0  0  0  0  0  0
   33.8594   -2.1646   16.9314 H   0  0  0  0  0  0
   35.9019   -4.1420   20.4456 H   0  0  0  0  0  0
   34.3215   -4.7183   20.1549 H   0  0  0  0  0  0
   35.3385   -2.9597   22.4260 H   0  0  0  0  0  0
   34.4602   -4.4898   22.4719 H   0  0  0  0  0  0
   31.6603   -0.9788   22.6642 H   0  0  0  0  0  0
   30.7316   -0.3101   24.8167 H   0  0  0  0  0  0
   33.0379   -3.3904   26.7331 H   0  0  0  0  0  0
   33.9601   -4.0452   24.5650 H   0  0  0  0  0  0
   33.8073   -1.7974   29.0875 H   0  0  0  0  0  0
   33.9454   -1.1894   27.4661 H   0  0  0  0  0  0
   35.1342    0.2758   29.0653 H   0  0  0  0  0  0
   33.8924    1.1275   28.1857 H   0  0  0  0  0  0
   33.8087    1.7500   30.5879 H   0  0  0  0  0  0
   33.6599    0.0762   31.0509 H   0  0  0  0  0  0
   31.6256    1.6486   29.4064 H   0  0  0  0  0  0
   31.4292    1.1419   31.0623 H   0  0  0  0  0  0
   30.2351   -0.3273   29.4643 H   0  0  0  0  0  0
   31.3768   -1.2411   30.4095 H   0  0  0  0  0  0
   29.5757   -3.4568   27.4643 H   0  0  0  0  0  0
   27.1165   -3.4721   27.2593 H   0  0  0  0  0  0
   27.1164    0.8060   26.9533 H   0  0  0  0  0  0
   29.5866    0.8178   27.0545 H   0  0  0  0  0  0
   25.3056   -2.1880   26.5297 H   0  0  0  0  0  0
   36.4851   -2.0589   20.4656 H   0  0  0  0  0  0
   36.1709    0.1482   20.6890 H   0  0  0  0  0  0
   35.2606    0.3422   19.2293 H   0  0  0  0  0  0
   34.4760   -0.3262   20.6636 H   0  0  0  0  0  0
   37.6535   -1.1734   18.5941 H   0  0  0  0  0  0
   37.0179   -2.7411   18.1165 H   0  0  0  0  0  0
   36.2442   -1.2668   17.5511 H   0  0  0  0  0  0
  1  2  1  0  0  0
  1 31  1  0  0  0
  1 32  1  0  0  0
  1 33  1  0  0  0
  2  3  1  0  0  0
  2  4  1  0  0  0
  2 34  1  0  0  0
  3 35  1  0  0  0
  3 36  1  0  0  0
  3 37  1  0  0  0
  4  5  1  0  0  0
  4 28  1  0  0  0
  5  6  1  0  0  0
  5 38  1  0  0  0
  5 39  1  0  0  0
  6  7  1  0  0  0
  6 40  1  0  0  0
  6 41  1  0  0  0
  7  8  1  0  0  0
  8 13  1  0  0  0
  8  9  2  0  0  0
  9 10  1  0  0  0
  9 42  1  0  0  0
 10 11  2  0  0  0
 10 43  1  0  0  0
 11 12  1  0  0  0
 11 14  1  0  0  0
 12 13  2  0  0  0
 12 44  1  0  0  0
 13 45  1  0  0  0
 14 15  2  3  0  0
 14 21  1  0  0  0
 15 20  1  0  0  0
 15 16  1  0  0  0
 16 17  1  0  0  0
 16 46  1  0  0  0
 16 47  1  0  0  0
 17 18  1  0  0  0
 17 48  1  0  0  0
 17 49  1  0  0  0
 18 19  1  0  0  0
 18 50  1  0  0  0
 18 51  1  0  0  0
 19 20  1  0  0  0
 19 52  1  0  0  0
 19 53  1  0  0  0
 20 54  1  0  0  0
 20 55  1  0  0  0
 21 26  1  0  0  0
 21 22  2  0  0  0
 22 23  1  0  0  0
 22 56  1  0  0  0
 23 24  2  0  0  0
 23 57  1  0  0  0
 24 25  1  0  0  0
 24 27  1  0  0  0
 25 26  2  0  0  0
 25 58  1  0  0  0
 26 59  1  0  0  0
 27 60  1  0  0  0
 28 29  1  0  0  0
 28 30  1  0  0  0
 28 61  1  0  0  0
 29 62  1  0  0  0
 29 63  1  0  0  0
 29 64  1  0  0  0
 30 65  1  0  0  0
 30 66  1  0  0  0
 30 67  1  0  0  0
M  END
> <s_m_entry_id>
17188

> <s_m_entry_name>
ligand_docking-pose.115

> <s_m_Source_Path>
/home/csk/Desktop/cluster/DUD-E-result/esr1

> <s_m_Source_File>
ligand_docking-pose.sdf

> <i_m_Source_File_Index>
115

> <i_lp_mmshare_version>
53161

> <i_f3d_flags>
0

> <r_lp_tautomer_probability>
1

> <s_lp_Force_Field>
OPLS_2005

> <r_lp_Energy>
44.11354

> <b_lp_Chiralities_Consistent>
1

> <s_lp_Variant>
11617-1

> <s_i_glide_gridfile>
glide-grid_1sj0

> <i_i_glide_lignum>
1545

> <i_i_glide_rotatable_bonds>
9

> <r_i_docking_score>
-9.77297427566683

> <r_i_glide_ligand_efficiency>
-0.325765809188894

> <r_i_glide_ligand_efficiency_sa>
-1.0122301104925

> <r_i_glide_ligand_efficiency_ln>
-2.22052624051502

> <r_i_glide_gscore>
-9.77297427566683

> <r_i_glide_lipo>
-5.79539717605762

> <r_i_glide_hbond>
-0.16

> <r_i_glide_metal>
0

> <r_i_glide_rewards>
-1.4986636718435

> <r_i_glide_evdw>
-44.3984527587891

> <r_i_glide_ecoul>
-3.97575926780701

> <r_i_glide_erotb>
0.497373100344793

> <r_i_glide_esite>
0

> <r_i_glide_emodel>
-67.8895805135964

> <r_i_glide_energy>
-48.3742120265961

> <r_i_glide_einternal>
7.61250400543213

> <i_i_glide_confnum>
4

> <i_i_glide_posenum>
55

> <r_i_glide_eff_state_penalty>
0

> <s_user_duplicate_titles>
11617

> <s_m_subgroup_title>
dock_pv

> <s_m_subgroupid>
dock_pv1

> <b_m_subgroup_collapsed>
0

$$$$
164133
                    3D
 Schrodinger Suite 2021-1.
 67 71  0  0  1  0            999 V2000
   36.0605    1.8497   27.4691 C   0  0  0  0  0  0
   34.7121    1.4616   27.9098 C   0  0  0  0  0  0
   33.6532    2.1612   27.3540 C   0  0  0  0  0  0
   32.3830    1.7750   27.6798 C   0  0  0  0  0  0
   32.1778    0.7282   28.5629 C   0  0  0  0  0  0
   33.2468    0.0294   29.1245 C   0  0  0  0  0  0
   34.5379    0.4038   28.7962 C   0  0  0  0  0  0
   30.8871    0.3214   28.7476 N   0  0  0  0  0  0
   29.9315    1.3277   29.2498 C   0  0  0  0  0  0
   28.8826    1.6970   28.2109 C   0  0  0  0  0  0
   28.1805    0.4510   27.7402 C   0  0  0  0  0  0
   26.8198    0.4825   27.4642 C   0  0  0  0  0  0
   26.1595   -0.6387   26.9801 C   0  0  0  0  0  0
   26.8781   -1.8064   26.7527 C   0  0  0  0  0  0
   28.2221   -1.8599   27.0670 C   0  0  0  0  0  0
   28.8968   -0.7510   27.5920 C   0  0  0  0  0  0
   30.3711   -0.8840   28.0384 C   0  0  2  0  0  0
   30.3741   -1.9969   29.0879 C   0  0  0  0  0  0
   31.2364   -1.3485   26.8120 C   0  0  0  0  0  0
   32.2210   -2.3466   26.9313 C   0  0  0  0  0  0
   32.8520   -2.8742   25.8116 C   0  0  0  0  0  0
   32.5472   -2.4021   24.5424 C   0  0  0  0  0  0
   31.6393   -1.3411   24.4120 C   0  0  0  0  0  0
   30.9939   -0.8239   25.5349 C   0  0  0  0  0  0
   33.1729   -3.0495   23.4951 O   0  0  0  0  0  0
   32.8537   -2.6891   22.1564 C   0  0  0  0  0  0
   33.3411   -3.7897   21.1976 C   0  0  0  0  0  0
   33.3278   -3.3432   19.8009 N   0  0  0  0  0  0
   32.0015   -3.0500   19.2704 C   0  0  0  0  0  0
   32.1773   -3.0041   17.7550 C   0  0  0  0  0  0
   33.3896   -3.9024   17.4978 C   0  0  0  0  0  0
   33.8086   -4.3741   18.8926 C   0  0  0  0  0  0
   24.8340   -0.5421   26.6638 O   0  0  0  0  0  0
   35.9364    2.2581   26.5033 H   0  0  0  0  0  0
   36.4596    2.5986   28.1555 H   0  0  0  0  0  0
   36.7149    0.9916   27.3487 H   0  0  0  0  0  0
   33.8066    2.9677   26.6521 H   0  0  0  0  0  0
   31.5471    2.2580   27.2146 H   0  0  0  0  0  0
   33.0855   -0.7988   29.7967 H   0  0  0  0  0  0
   35.3855   -0.1282   29.2055 H   0  0  0  0  0  0
   29.4740    1.0581   30.1974 H   0  0  0  0  0  0
   30.4741    2.2416   29.4976 H   0  0  0  0  0  0
   28.1765    2.4050   28.6435 H   0  0  0  0  0  0
   29.3389    2.1995   27.3580 H   0  0  0  0  0  0
   26.2809    1.4076   27.5929 H   0  0  0  0  0  0
   26.4569   -2.6925   26.3171 H   0  0  0  0  0  0
   28.7461   -2.7898   26.9065 H   0  0  0  0  0  0
   30.0582   -2.9419   28.6645 H   0  0  0  0  0  0
   31.3354   -2.1418   29.5688 H   0  0  0  0  0  0
   29.6758   -1.7584   29.8636 H   0  0  0  0  0  0
   32.4931   -2.7686   27.8842 H   0  0  0  0  0  0
   33.5705   -3.6725   25.9227 H   0  0  0  0  0  0
   31.4001   -0.9207   23.4491 H   0  0  0  0  0  0
   30.2671   -0.0356   25.4049 H   0  0  0  0  0  0
   33.3482   -1.7448   21.9340 H   0  0  0  0  0  0
   31.7784   -2.5610   22.0256 H   0  0  0  0  0  0
   32.7250   -4.6833   21.3169 H   0  0  0  0  0  0
   34.3588   -4.0741   21.4715 H   0  0  0  0  0  0
   31.6599   -2.1008   19.6716 H   0  0  0  0  0  0
   31.2430   -3.7629   19.5912 H   0  0  0  0  0  0
   32.3550   -1.9802   17.4210 H   0  0  0  0  0  0
   31.2834   -3.3674   17.2459 H   0  0  0  0  0  0
   33.1341   -4.7511   16.8613 H   0  0  0  0  0  0
   34.1962   -3.3545   17.0096 H   0  0  0  0  0  0
   33.4121   -5.3639   19.1346 H   0  0  0  0  0  0
   34.8915   -4.4637   19.0008 H   0  0  0  0  0  0
   24.5389    0.3775   26.6655 H   0  0  0  0  0  0
  1  2  1  0  0  0
  1 34  1  0  0  0
  1 35  1  0  0  0
  1 36  1  0  0  0
  2  7  1  0  0  0
  2  3  2  0  0  0
  3  4  1  0  0  0
  3 37  1  0  0  0
  4  5  2  0  0  0
  4 38  1  0  0  0
  5  6  1  0  0  0
  5  8  1  0  0  0
  6  7  2  0  0  0
  6 39  1  0  0  0
  7 40  1  0  0  0
  8 17  1  0  0  0
  8  9  1  0  0  0
  9 10  1  0  0  0
  9 41  1  0  0  0
  9 42  1  0  0  0
 10 11  1  0  0  0
 10 43  1  0  0  0
 10 44  1  0  0  0
 11 16  2  0  0  0
 11 12  1  0  0  0
 12 13  2  0  0  0
 12 45  1  0  0  0
 13 14  1  0  0  0
 13 33  1  0  0  0
 14 15  2  0  0  0
 14 46  1  0  0  0
 15 16  1  0  0  0
 15 47  1  0  0  0
 16 17  1  0  0  0
 17 18  1  0  0  0
 17 19  1  0  0  0
 18 48  1  0  0  0
 18 49  1  0  0  0
 18 50  1  0  0  0
 19 24  1  0  0  0
 19 20  2  0  0  0
 20 21  1  0  0  0
 20 51  1  0  0  0
 21 22  2  0  0  0
 21 52  1  0  0  0
 22 23  1  0  0  0
 22 25  1  0  0  0
 23 24  2  0  0  0
 23 53  1  0  0  0
 24 54  1  0  0  0
 25 26  1  0  0  0
 26 27  1  0  0  0
 26 55  1  0  0  0
 26 56  1  0  0  0
 27 28  1  0  0  0
 27 57  1  0  0  0
 27 58  1  0  0  0
 28 32  1  0  0  0
 28 29  1  0  0  0
 29 30  1  0  0  0
 29 59  1  0  0  0
 29 60  1  0  0  0
 30 31  1  0  0  0
 30 61  1  0  0  0
 30 62  1  0  0  0
 31 32  1  0  0  0
 31 63  1  0  0  0
 31 64  1  0  0  0
 32 65  1  0  0  0
 32 66  1  0  0  0
 33 67  1  0  0  0
M  END
> <s_m_entry_id>
17189

> <s_m_entry_name>
ligand_docking-pose.116

> <s_m_Source_Path>
/home/csk/Desktop/cluster/DUD-E-result/esr1

> <s_m_Source_File>
ligand_docking-pose.sdf

> <i_m_Source_File_Index>
116

> <i_lp_mmshare_version>
53161

> <i_f3d_flags>
0

> <r_lp_tautomer_probability>
0.999999999997365

> <s_lp_Force_Field>
OPLS_2005

> <r_lp_Energy>
58.797282

> <b_lp_Chiralities_Consistent>
1

> <s_lp_Variant>
164133-2

> <s_i_glide_gridfile>
glide-grid_1sj0

> <i_i_glide_lignum>
1004

> <i_i_glide_rotatable_bonds>
7

> <r_i_docking_score>
-9.7675695868823

> <r_i_glide_ligand_efficiency>
-0.295986957178252

> <r_i_glide_ligand_efficiency_sa>
-0.949388325273732

> <r_i_glide_ligand_efficiency_ln>
-2.17225690235395

> <r_i_glide_gscore>
-9.7675695868823

> <r_i_glide_lipo>
-5.77130605597765

> <r_i_glide_hbond>
-0.377716180071578

> <r_i_glide_metal>
0

> <r_i_glide_rewards>
-1.53734125524493

> <r_i_glide_evdw>
-39.323314666748

> <r_i_glide_ecoul>
-4.16762590408325

> <r_i_glide_erotb>
0.510103523361742

> <r_i_glide_esite>
0

> <r_i_glide_emodel>
-78.4002383626443

> <r_i_glide_energy>
-43.4909405708313

> <r_i_glide_einternal>
7.49513387680054

> <i_i_glide_confnum>
2

> <i_i_glide_posenum>
5

> <r_i_glide_eff_state_penalty>
0

> <s_user_duplicate_titles>
164133

> <s_m_subgroup_title>
dock_pv

> <s_m_subgroupid>
dock_pv1

> <b_m_subgroup_collapsed>
0

$$$$
53067
                    3D
 Schrodinger Suite 2021-1.
 56 60  0  0  1  0            999 V2000
   32.8019   -0.2828   30.7752 C   0  0  0  0  0  0
   32.9454    0.6962   29.5834 C   0  0  2  0  0  0
   31.8690    1.8278   29.7587 C   0  0  0  0  0  0
   30.4127    1.3923   29.4580 C   0  0  0  0  0  0
   30.2953    0.6775   28.0939 C   0  0  2  0  0  0
   28.8902    0.1996   27.7157 C   0  0  0  0  0  0
   27.8218    1.0794   27.8025 C   0  0  0  0  0  0
   26.5513    0.6589   27.4643 C   0  0  0  0  0  0
   26.2900   -0.6145   27.0130 C   0  0  0  0  0  0
   27.3481   -1.4913   26.8565 C   0  0  0  0  0  0
   28.6510   -1.0863   27.1764 C   0  0  0  0  0  0
   29.7594   -2.1021   27.1298 C   0  0  1  0  0  0
   31.1384   -1.4726   26.9498 C   0  0  2  0  0  0
   31.3323   -0.4639   28.0652 C   0  0  1  0  0  0
   32.7702    0.0354   28.2041 C   0  0  1  0  0  0
   33.3233    1.0838   27.2053 C   0  0  0  0  0  0
   34.4721    1.7644   27.9569 C   0  0  0  0  0  0
   34.4027    1.2055   29.4000 C   0  0  2  0  0  0
   35.2947    0.1116   29.4640 O   0  0  0  0  0  0
   31.2998   -0.6686   25.3359 S   0  0  0  0  0  0
   31.9866   -1.8378   24.2375 C   0  0  0  0  0  0
   33.2592   -2.3519   24.4352 C   0  0  0  0  0  0
   33.8578   -3.0581   23.4019 C   0  0  0  0  0  0
   33.1612   -3.3173   22.2253 C   0  0  0  0  0  0
   31.8371   -2.9152   22.0903 C   0  0  0  0  0  0
   31.2680   -2.1422   23.1009 C   0  0  0  0  0  0
   34.0483   -4.1430   20.7644 Br  0  0  0  0  0  0
   29.6599   -2.9416   28.2445 O   0  0  0  0  0  0
   25.0116   -0.9436   26.6563 O   0  0  0  0  0  0
   31.9042   -2.2486   26.9982 H   0  0  0  0  0  0
   34.7001    1.9088   30.1690 H   0  0  0  0  0  0
   33.2612    0.1336   31.6712 H   0  0  0  0  0  0
   31.7674   -0.5030   31.0341 H   0  0  0  0  0  0
   33.2753   -1.2418   30.5733 H   0  0  0  0  0  0
   31.9455    2.2570   30.7571 H   0  0  0  0  0  0
   32.0617    2.6411   29.0640 H   0  0  0  0  0  0
   30.0598    0.7477   30.2565 H   0  0  0  0  0  0
   29.7735    2.2665   29.4650 H   0  0  0  0  0  0
   30.5319    1.3985   27.3124 H   0  0  0  0  0  0
   27.9655    2.0976   28.1281 H   0  0  0  0  0  0
   25.7614    1.3659   27.4638 H   0  0  0  0  0  0
   27.1612   -2.4909   26.4899 H   0  0  0  0  0  0
   29.6584   -2.7091   26.2645 H   0  0  0  0  0  0
   31.1545   -1.0631   28.9589 H   0  0  0  0  0  0
   33.4081   -0.8495   28.1356 H   0  0  0  0  0  0
   33.6592    0.6572   26.2662 H   0  0  0  0  0  0
   32.5795    1.8270   26.9250 H   0  0  0  0  0  0
   35.4400    1.5925   27.4813 H   0  0  0  0  0  0
   34.3144    2.8417   27.9258 H   0  0  0  0  0  0
   36.1838    0.4401   29.2753 H   0  0  0  0  0  0
   33.8063   -2.1430   25.3388 H   0  0  0  0  0  0
   34.8829   -3.3410   23.5017 H   0  0  0  0  0  0
   31.2876   -3.1306   21.1852 H   0  0  0  0  0  0
   30.2791   -1.7394   23.0470 H   0  0  0  0  0  0
   29.6517   -3.8496   27.9244 H   0  0  0  0  0  0
   24.9291   -1.8308   26.2647 H   0  0  0  0  0  0
  1  2  1  0  0  0
  1 32  1  0  0  0
  1 33  1  0  0  0
  1 34  1  0  0  0
  2 15  1  0  0  0
  2 18  1  0  0  0
  2  3  1  0  0  0
  3  4  1  0  0  0
  3 35  1  0  0  0
  3 36  1  0  0  0
  4  5  1  0  0  0
  4 37  1  0  0  0
  4 38  1  0  0  0
  5 14  1  0  0  0
  5  6  1  0  0  0
  5 39  1  0  0  0
  6 11  2  0  0  0
  6  7  1  0  0  0
  7  8  2  0  0  0
  7 40  1  0  0  0
  8  9  1  0  0  0
  8 41  1  0  0  0
  9 10  2  0  0  0
  9 29  1  0  0  0
 10 11  1  0  0  0
 10 42  1  0  0  0
 11 12  1  0  0  0
 12 13  1  0  0  0
 12 28  1  0  0  0
 12 43  1  0  0  0
 13 30  1  0  0  0
 13 14  1  0  0  0
 13 20  1  0  0  0
 14 15  1  0  0  0
 14 44  1  0  0  0
 15 16  1  0  0  0
 15 45  1  0  0  0
 16 17  1  0  0  0
 16 46  1  0  0  0
 16 47  1  0  0  0
 17 18  1  0  0  0
 17 48  1  0  0  0
 17 49  1  0  0  0
 18 31  1  0  0  0
 18 19  1  0  0  0
 19 50  1  0  0  0
 20 21  1  0  0  0
 21 26  1  0  0  0
 21 22  2  0  0  0
 22 23  1  0  0  0
 22 51  1  0  0  0
 23 24  2  0  0  0
 23 52  1  0  0  0
 24 25  1  0  0  0
 24 27  1  0  0  0
 25 26  2  0  0  0
 25 53  1  0  0  0
 26 54  1  0  0  0
 28 55  1  0  0  0
 29 56  1  0  0  0
M  END
> <s_m_entry_id>
17190

> <s_m_entry_name>
ligand_docking-pose.117

> <s_m_Source_Path>
/home/csk/Desktop/cluster/DUD-E-result/esr1

> <s_m_Source_File>
ligand_docking-pose.sdf

> <i_m_Source_File_Index>
117

> <i_lp_mmshare_version>
53161

> <i_f3d_flags>
0

> <r_lp_tautomer_probability>
0.999999999997365

> <s_lp_Force_Field>
OPLS_2005

> <r_lp_Energy>
53.21575

> <b_lp_Chiralities_Consistent>
1

> <s_lp_Variant>
53067-3

> <s_i_glide_gridfile>
glide-grid_1sj0

> <i_i_glide_lignum>
742

> <i_i_glide_rotatable_bonds>
5

> <r_i_docking_score>
-9.76520222536083

> <r_i_glide_ligand_efficiency>
-0.336731111219339

> <r_i_glide_ligand_efficiency_sa>
-1.03454465756986

> <r_i_glide_ligand_efficiency_ln>
-2.23598368544479

> <r_i_glide_gscore>
-9.76520222536083

> <r_i_glide_lipo>
-5.82340127225966

> <r_i_glide_hbond>
-0.714035433750914

> <r_i_glide_metal>
0

> <r_i_glide_rewards>
-1.06745877272727

> <r_i_glide_evdw>
-26.5884952545166

> <r_i_glide_ecoul>
-6.37502431869507

> <r_i_glide_erotb>
0.125371663907107

> <r_i_glide_esite>
0

> <r_i_glide_emodel>
-49.3791265961581

> <r_i_glide_energy>
-32.9635195732117

> <r_i_glide_einternal>
3.38453650474548

> <i_i_glide_confnum>
1

> <i_i_glide_posenum>
24

> <r_i_glide_eff_state_penalty>
0

> <s_user_duplicate_titles>
53067

> <s_m_subgroup_title>
dock_pv

> <s_m_subgroupid>
dock_pv1

> <b_m_subgroup_collapsed>
0

$$$$
150287
                    3D
 Schrodinger Suite 2021-1.
 60 63  0  0  1  0            999 V2000
   34.9160    0.5239   29.6998 C   0  0  0  0  0  0
   34.7696    0.3111   28.1907 C   0  0  0  0  0  0
   33.4065    0.0649   27.8642 O   0  0  0  0  0  0
   32.5156    1.0788   27.8434 C   0  0  0  0  0  0
   32.8607    2.2581   27.8641 O   0  0  0  0  0  0
   31.1835    0.6328   27.8883 N   0  0  0  0  0  0
   30.2587    1.4916   28.6475 C   0  0  0  0  0  0
   29.0139    1.6398   27.7741 C   0  0  0  0  0  0
   28.4037    0.2845   27.4934 C   0  0  0  0  0  0
   27.0275    0.1748   27.3043 C   0  0  0  0  0  0
   26.4494   -1.0406   26.9743 C   0  0  0  0  0  0
   27.2359   -2.1889   26.9182 C   0  0  0  0  0  0
   28.6052   -2.0967   27.1571 C   0  0  0  0  0  0
   29.2241   -0.8620   27.4065 C   0  0  0  0  0  0
   30.7599   -0.7694   27.5874 C   0  0  1  0  0  0
   31.4671   -1.4614   26.4091 C   0  0  0  0  0  0
   32.3269   -2.5345   26.6466 C   0  0  0  0  0  0
   32.9848   -3.1470   25.5842 C   0  0  0  0  0  0
   32.7774   -2.7218   24.2729 C   0  0  0  0  0  0
   31.8900   -1.6624   24.0340 C   0  0  0  0  0  0
   31.2466   -1.0332   25.0961 C   0  0  0  0  0  0
   33.5034   -3.3868   23.3026 O   0  0  0  0  0  0
   33.1293   -3.3146   21.9265 C   0  0  0  0  0  0
   34.3409   -3.7329   21.0633 C   0  0  0  0  0  0
   35.2845   -2.6264   20.8423 N   0  0  0  0  0  0
   36.5599   -3.0501   20.2853 C   0  0  0  0  0  0
   37.2332   -1.7592   19.8185 C   0  0  0  0  0  0
   36.0601   -0.8385   19.4807 C   0  0  0  0  0  0
   34.8337   -1.6678   19.8398 C   0  0  0  0  0  0
   25.1191   -1.0737   26.6644 O   0  0  0  0  0  0
   35.9709    0.5690   29.9548 H   0  0  0  0  0  0
   34.4537    1.4565   30.0250 H   0  0  0  0  0  0
   34.4572   -0.2927   30.2583 H   0  0  0  0  0  0
   35.3660   -0.5417   27.8833 H   0  0  0  0  0  0
   35.1601    1.1686   27.6354 H   0  0  0  0  0  0
   30.6666    2.4887   28.8282 H   0  0  0  0  0  0
   30.0403    1.0927   29.6373 H   0  0  0  0  0  0
   29.2614    2.1612   26.8452 H   0  0  0  0  0  0
   28.2830    2.2605   28.2912 H   0  0  0  0  0  0
   26.4073    1.0581   27.3463 H   0  0  0  0  0  0
   26.7929   -3.1457   26.6719 H   0  0  0  0  0  0
   29.2034   -2.9945   27.0985 H   0  0  0  0  0  0
   31.0055   -1.3451   28.4813 H   0  0  0  0  0  0
   32.5074   -2.8801   27.6526 H   0  0  0  0  0  0
   33.6600   -3.9660   25.7744 H   0  0  0  0  0  0
   31.6979   -1.2908   23.0464 H   0  0  0  0  0  0
   30.5752   -0.2083   24.9037 H   0  0  0  0  0  0
   32.3051   -4.0086   21.7639 H   0  0  0  0  0  0
   32.7843   -2.3300   21.6187 H   0  0  0  0  0  0
   34.8599   -4.5401   21.5804 H   0  0  0  0  0  0
   34.0055   -4.1524   20.1125 H   0  0  0  0  0  0
   37.1321   -3.5508   21.0638 H   0  0  0  0  0  0
   36.4433   -3.7890   19.4890 H   0  0  0  0  0  0
   37.8559   -1.3417   20.6082 H   0  0  0  0  0  0
   37.8759   -1.9403   18.9568 H   0  0  0  0  0  0
   36.0506   -0.5550   18.4265 H   0  0  0  0  0  0
   36.0746    0.0773   20.0707 H   0  0  0  0  0  0
   34.3697   -2.1452   18.9705 H   0  0  0  0  0  0
   34.0602   -1.0409   20.2641 H   0  0  0  0  0  0
   24.8631   -1.9241   26.2626 H   0  0  0  0  0  0
  1  2  1  0  0  0
  1 31  1  0  0  0
  1 32  1  0  0  0
  1 33  1  0  0  0
  2  3  1  0  0  0
  2 34  1  0  0  0
  2 35  1  0  0  0
  3  4  1  0  0  0
  4  5  2  0  0  0
  4  6  1  0  0  0
  6 15  1  0  0  0
  6  7  1  0  0  0
  7  8  1  0  0  0
  7 36  1  0  0  0
  7 37  1  0  0  0
  8  9  1  0  0  0
  8 38  1  0  0  0
  8 39  1  0  0  0
  9 14  2  0  0  0
  9 10  1  0  0  0
 10 11  2  0  0  0
 10 40  1  0  0  0
 11 12  1  0  0  0
 11 30  1  0  0  0
 12 13  2  0  0  0
 12 41  1  0  0  0
 13 14  1  0  0  0
 13 42  1  0  0  0
 14 15  1  0  0  0
 15 16  1  0  0  0
 15 43  1  0  0  0
 16 21  1  0  0  0
 16 17  2  0  0  0
 17 18  1  0  0  0
 17 44  1  0  0  0
 18 19  2  0  0  0
 18 45  1  0  0  0
 19 20  1  0  0  0
 19 22  1  0  0  0
 20 21  2  0  0  0
 20 46  1  0  0  0
 21 47  1  0  0  0
 22 23  1  0  0  0
 23 24  1  0  0  0
 23 48  1  0  0  0
 23 49  1  0  0  0
 24 25  1  0  0  0
 24 50  1  0  0  0
 24 51  1  0  0  0
 25 29  1  0  0  0
 25 26  1  0  0  0
 26 27  1  0  0  0
 26 52  1  0  0  0
 26 53  1  0  0  0
 27 28  1  0  0  0
 27 54  1  0  0  0
 27 55  1  0  0  0
 28 29  1  0  0  0
 28 56  1  0  0  0
 28 57  1  0  0  0
 29 58  1  0  0  0
 29 59  1  0  0  0
 30 60  1  0  0  0
M  END
> <s_m_entry_id>
17191

> <s_m_entry_name>
ligand_docking-pose.118

> <s_m_Source_Path>
/home/csk/Desktop/cluster/DUD-E-result/esr1

> <s_m_Source_File>
ligand_docking-pose.sdf

> <i_m_Source_File_Index>
118

> <i_lp_mmshare_version>
53161

> <i_f3d_flags>
0

> <r_lp_tautomer_probability>
0.999999999997365

> <s_lp_Force_Field>
OPLS_2005

> <r_lp_Energy>
44.68779

> <b_lp_Chiralities_Consistent>
1

> <s_lp_Variant>
150287-1

> <s_i_glide_gridfile>
glide-grid_1sj0

> <i_i_glide_lignum>
1656

> <i_i_glide_rotatable_bonds>
9

> <r_i_docking_score>
-9.75494903052323

> <r_i_glide_ligand_efficiency>
-0.325164967684108

> <r_i_glide_ligand_efficiency_sa>
-1.01036315624001

> <r_i_glide_ligand_efficiency_ln>
-2.21643070841762

> <r_i_glide_gscore>
-9.75494903052323

> <r_i_glide_lipo>
-4.77861998226238

> <r_i_glide_hbond>
-0.219353883162095

> <r_i_glide_metal>
0

> <r_i_glide_rewards>
-2.02008665845168

> <r_i_glide_evdw>
-47.5618171691895

> <r_i_glide_ecoul>
-5.66541957855225

> <r_i_glide_erotb>
0.49101528859523

> <r_i_glide_esite>
0

> <r_i_glide_emodel>
-74.7903057902768

> <r_i_glide_energy>
-53.2272367477417

> <r_i_glide_einternal>
17.1781730651855

> <i_i_glide_confnum>
11

> <i_i_glide_posenum>
39

> <r_i_glide_eff_state_penalty>
0

> <s_user_duplicate_titles>
150287

> <s_m_subgroup_title>
dock_pv

> <s_m_subgroupid>
dock_pv1

> <b_m_subgroup_collapsed>
0

$$$$
318791
                    3D
 Schrodinger Suite 2021-1.
 38 41  0  0  1  0            999 V2000
   31.6600   -1.9890   23.6433 C   0  0  0  0  0  0
   30.6181   -1.1409   24.0203 C   0  0  0  0  0  0
   30.5827   -0.5706   25.2768 C   0  0  0  0  0  0
   31.6085   -0.8471   26.1663 C   0  0  0  0  0  0
   32.6299   -1.7388   25.8161 C   0  0  0  0  0  0
   32.6644   -2.3061   24.5483 C   0  0  0  0  0  0
   31.6328   -0.2228   27.4861 C   0  0  0  0  0  0
   30.6790   -0.2265   28.4332 C   0  0  0  0  0  0
   31.2454    0.3951   29.6522 C   0  0  0  0  0  0
   30.7242    0.6580   30.7278 O   0  0  0  0  0  0
   32.6227    0.6582   29.3109 C   0  0  0  0  0  0
   32.7614    0.5358   27.9500 C   0  0  0  0  0  0
   33.8733    1.0520   27.3095 C   0  0  0  0  0  0
   34.9302    1.4744   28.0883 C   0  0  0  0  0  0
   34.8600    1.4454   29.4794 C   0  0  0  0  0  0
   33.6812    1.0580   30.1095 C   0  0  0  0  0  0
   36.0600    1.8580   27.4640 O   0  0  0  0  0  0
   29.3613   -0.8832   28.2620 C   0  0  0  0  0  0
   29.2786   -2.2681   28.0657 C   0  0  0  0  0  0
   28.0463   -2.8870   27.8640 C   0  0  0  0  0  0
   26.8867   -2.1170   27.8640 C   0  0  0  0  0  0
   26.9625   -0.7318   27.9671 C   0  0  0  0  0  0
   28.1985   -0.1183   28.1683 C   0  0  0  0  0  0
   25.6600   -2.7233   27.8640 O   0  0  0  0  0  0
   31.6633   -2.4339   22.6585 H   0  0  0  0  0  0
   29.7896   -0.9424   23.3709 H   0  0  0  0  0  0
   29.7702    0.0886   25.5476 H   0  0  0  0  0  0
   33.4084   -1.9815   26.5249 H   0  0  0  0  0  0
   33.4585   -2.9843   24.2711 H   0  0  0  0  0  0
   33.9666    1.0580   26.2336 H   0  0  0  0  0  0
   35.7011    1.7593   30.0749 H   0  0  0  0  0  0
   33.5944    1.1226   31.1848 H   0  0  0  0  0  0
   36.8240    1.7686   28.0556 H   0  0  0  0  0  0
   30.1714   -2.8725   28.0691 H   0  0  0  0  0  0
   27.9907   -3.9609   27.7590 H   0  0  0  0  0  0
   26.0602   -0.1395   27.9440 H   0  0  0  0  0  0
   28.2475    0.9568   28.2640 H   0  0  0  0  0  0
   25.3968   -3.0813   26.9917 H   0  0  0  0  0  0
  1  6  1  0  0  0
  1  2  2  0  0  0
  1 25  1  0  0  0
  2  3  1  0  0  0
  2 26  1  0  0  0
  3  4  2  0  0  0
  3 27  1  0  0  0
  4  5  1  0  0  0
  4  7  1  0  0  0
  5  6  2  0  0  0
  5 28  1  0  0  0
  6 29  1  0  0  0
  7 12  1  0  0  0
  7  8  2  0  0  0
  8  9  1  0  0  0
  8 18  1  0  0  0
  9 10  2  0  0  0
  9 11  1  0  0  0
 11 16  2  0  0  0
 11 12  1  0  0  0
 12 13  2  0  0  0
 13 14  1  0  0  0
 13 30  1  0  0  0
 14 15  2  0  0  0
 14 17  1  0  0  0
 15 16  1  0  0  0
 15 31  1  0  0  0
 16 32  1  0  0  0
 17 33  1  0  0  0
 18 23  1  0  0  0
 18 19  2  0  0  0
 19 20  1  0  0  0
 19 34  1  0  0  0
 20 21  2  0  0  0
 20 35  1  0  0  0
 21 22  1  0  0  0
 21 24  1  0  0  0
 22 23  2  0  0  0
 22 36  1  0  0  0
 23 37  1  0  0  0
 24 38  1  0  0  0
M  END
> <s_m_entry_id>
17192

> <s_m_entry_name>
ligand_docking-pose.119

> <s_m_Source_Path>
/home/csk/Desktop/cluster/DUD-E-result/esr1

> <s_m_Source_File>
ligand_docking-pose.sdf

> <i_m_Source_File_Index>
119

> <i_lp_mmshare_version>
53161

> <i_f3d_flags>
0

> <r_lp_tautomer_probability>
1

> <s_lp_Force_Field>
OPLS_2005

> <r_lp_Energy>
30.471138

> <b_lp_Chiralities_Consistent>
1

> <s_lp_Variant>
318791-1

> <s_i_glide_gridfile>
glide-grid_1sj0

> <i_i_glide_lignum>
348

> <i_i_glide_rotatable_bonds>
4

> <r_i_docking_score>
-9.74622437727746

> <r_i_glide_ligand_efficiency>
-0.406092682386561

> <r_i_glide_ligand_efficiency_sa>
-1.1713739921131

> <r_i_glide_ligand_efficiency_ln>
-2.33271871857759

> <r_i_glide_gscore>
-9.74622437727746

> <r_i_glide_lipo>
-4.42871120918767

> <r_i_glide_hbond>
-0.456

> <r_i_glide_metal>
0

> <r_i_glide_rewards>
-2.46620426841486

> <r_i_glide_evdw>
-22.7798328399658

> <r_i_glide_ecoul>
-10.8836517333984

> <r_i_glide_erotb>
0.376230502333131

> <r_i_glide_esite>
0

> <r_i_glide_emodel>
-32.7213151409267

> <r_i_glide_energy>
-33.6634845733643

> <r_i_glide_einternal>
8.27433586120605

> <i_i_glide_confnum>
3

> <i_i_glide_posenum>
27

> <r_i_glide_eff_state_penalty>
0

> <s_user_duplicate_titles>
318791

> <s_m_subgroup_title>
dock_pv

> <s_m_subgroupid>
dock_pv1

> <b_m_subgroup_collapsed>
0

$$$$
356824
                    3D
 Schrodinger Suite 2021-1.
 45 49  0  0  1  0            999 V2000
   31.7125    1.7565   30.1665 C   0  0  0  0  0  0
   32.2112    0.6595   29.2356 C   0  0  0  0  0  0
   31.3979    0.0213   28.3587 C   0  0  0  0  0  0
   29.9965    0.2956   28.0204 C   0  0  0  0  0  0
   29.2195    1.4386   28.2058 C   0  0  0  0  0  0
   27.8719    1.4582   27.8640 C   0  0  0  0  0  0
   27.3226    0.2670   27.4000 C   0  0  0  0  0  0
   28.0908   -0.8989   27.1883 C   0  0  0  0  0  0
   29.4570   -0.8644   27.4764 C   0  0  0  0  0  0
   30.4810   -1.9586   27.4199 C   0  0  0  0  0  0
   31.8147   -1.1938   27.5109 C   0  0  2  0  0  0
   32.8962   -1.9455   28.3364 C   0  0  0  0  0  0
   34.0664   -1.0221   28.7484 C   0  0  0  0  0  0
   33.6182    0.2792   29.4167 C   0  0  0  0  0  0
   34.4580    1.0570   29.8639 O   0  0  0  0  0  0
   32.3010   -0.6990   26.1007 C   0  0  0  0  0  0
   32.3899   -1.7401   24.9768 C   0  0  0  0  0  0
   33.3067   -2.7907   25.0342 C   0  0  0  0  0  0
   33.3865   -3.7107   23.9948 C   0  0  0  0  0  0
   32.5667   -3.5876   22.8839 C   0  0  0  0  0  0
   31.6600   -2.5420   22.8076 C   0  0  0  0  0  0
   31.5645   -1.6212   23.8538 C   0  0  0  0  0  0
   27.1505   -1.8557   26.7186 C   0  0  0  0  0  0
   25.9510   -1.3420   26.6639 N   0  0  0  0  0  0
   26.0383   -0.0778   27.0655 N   0  0  0  0  0  0
   25.2220    0.5212   27.0618 H   0  0  0  0  0  0
   32.3357    1.8798   31.0542 H   0  0  0  0  0  0
   31.6612    2.6915   29.6191 H   0  0  0  0  0  0
   30.7140    1.5182   30.5347 H   0  0  0  0  0  0
   29.6483    2.3417   28.6097 H   0  0  0  0  0  0
   27.2628    2.3252   28.0343 H   0  0  0  0  0  0
   30.4075   -2.5849   26.5311 H   0  0  0  0  0  0
   30.3282   -2.6106   28.2763 H   0  0  0  0  0  0
   32.4469   -2.3299   29.2507 H   0  0  0  0  0  0
   33.2602   -2.8321   27.8244 H   0  0  0  0  0  0
   34.5861   -0.6808   27.8605 H   0  0  0  0  0  0
   34.7915   -1.5230   29.3910 H   0  0  0  0  0  0
   33.2575   -0.1868   26.1851 H   0  0  0  0  0  0
   31.6303    0.0896   25.7540 H   0  0  0  0  0  0
   33.9854   -2.8921   25.8628 H   0  0  0  0  0  0
   34.0601   -4.5419   24.0569 H   0  0  0  0  0  0
   32.6187   -4.3170   22.0869 H   0  0  0  0  0  0
   31.0111   -2.4946   21.9469 H   0  0  0  0  0  0
   30.8418   -0.8208   23.7897 H   0  0  0  0  0  0
   27.3207   -2.8848   26.4360 H   0  0  0  0  0  0
  1  2  1  0  0  0
  1 27  1  0  0  0
  1 28  1  0  0  0
  1 29  1  0  0  0
  2 14  1  0  0  0
  2  3  2  0  0  0
  3 11  1  0  0  0
  3  4  1  0  0  0
  4  9  2  0  0  0
  4  5  1  0  0  0
  5  6  2  0  0  0
  5 30  1  0  0  0
  6  7  1  0  0  0
  6 31  1  0  0  0
  7 25  1  0  0  0
  7  8  2  0  0  0
  8  9  1  0  0  0
  8 23  1  0  0  0
  9 10  1  0  0  0
 10 11  1  0  0  0
 10 32  1  0  0  0
 10 33  1  0  0  0
 11 12  1  0  0  0
 11 16  1  0  0  0
 12 13  1  0  0  0
 12 34  1  0  0  0
 12 35  1  0  0  0
 13 14  1  0  0  0
 13 36  1  0  0  0
 13 37  1  0  0  0
 14 15  2  0  0  0
 16 17  1  0  0  0
 16 38  1  0  0  0
 16 39  1  0  0  0
 17 22  1  0  0  0
 17 18  2  0  0  0
 18 19  1  0  0  0
 18 40  1  0  0  0
 19 20  2  0  0  0
 19 41  1  0  0  0
 20 21  1  0  0  0
 20 42  1  0  0  0
 21 22  2  0  0  0
 21 43  1  0  0  0
 22 44  1  0  0  0
 23 24  2  0  0  0
 23 45  1  0  0  0
 24 25  1  0  0  0
 25 26  1  0  0  0
M  END
> <s_m_entry_id>
17193

> <s_m_entry_name>
ligand_docking-pose.120

> <s_m_Source_Path>
/home/csk/Desktop/cluster/DUD-E-result/esr1

> <s_m_Source_File>
ligand_docking-pose.sdf

> <i_m_Source_File_Index>
120

> <i_lp_mmshare_version>
53161

> <i_f3d_flags>
0

> <r_lp_tautomer_probability>
1

> <s_lp_Force_Field>
OPLS_2005

> <r_lp_Energy>
40.666597

> <b_lp_Chiralities_Consistent>
1

> <s_lp_Variant>
356824-1

> <s_i_glide_gridfile>
glide-grid_1sj0

> <i_i_glide_lignum>
846

> <i_i_glide_rotatable_bonds>
2

> <r_i_docking_score>
-9.73683438892385

> <r_i_glide_ligand_efficiency>
-0.389473375556954

> <r_i_glide_ligand_efficiency_sa>
-1.13882705746826

> <r_i_glide_ligand_efficiency_ln>
-2.30792153955563

> <r_i_glide_gscore>
-9.73683438892385

> <r_i_glide_lipo>
-5.15635252988234

> <r_i_glide_hbond>
-0.288705203440867

> <r_i_glide_metal>
0

> <r_i_glide_rewards>
-2.46757164370268

> <r_i_glide_evdw>
-38.3225784301758

> <r_i_glide_ecoul>
-1.70903301239014

> <r_i_glide_erotb>
0.348278861469338

> <r_i_glide_esite>
0

> <r_i_glide_emodel>
-46.8592457915814

> <r_i_glide_energy>
-40.0316114425659

> <r_i_glide_einternal>
1.48206412792206

> <i_i_glide_confnum>
6

> <i_i_glide_posenum>
93

> <r_i_glide_eff_state_penalty>
0

> <s_user_duplicate_titles>
356824

> <s_m_subgroup_title>
dock_pv

> <s_m_subgroupid>
dock_pv1

> <b_m_subgroup_collapsed>
0

$$$$
338460
                    3D
 Schrodinger Suite 2021-1.
 59 61  0  0  1  0            999 V2000
   36.4437   -3.1827   19.9346 C   0  0  0  0  0  0
   35.1886   -2.6629   20.4708 N   0  0  0  0  0  0
   34.5922   -1.7798   19.4650 C   0  0  0  0  0  0
   34.2854   -3.7705   20.8233 C   0  0  0  0  0  0
   33.1295   -3.3501   21.7561 C   0  0  0  0  0  0
   33.6496   -3.2085   23.0784 O   0  0  0  0  0  0
   32.8964   -2.6006   24.0611 C   0  0  0  0  0  0
   33.2107   -2.9432   25.3678 C   0  0  0  0  0  0
   32.5307   -2.3703   26.4445 C   0  0  0  0  0  0
   31.5262   -1.4223   26.2122 C   0  0  0  0  0  0
   31.2087   -1.0774   24.8944 C   0  0  0  0  0  0
   31.8933   -1.6529   23.8281 C   0  0  0  0  0  0
   30.7575   -0.8024   27.3292 C   0  0  0  0  0  0
   31.2668    0.1717   28.1375 C   0  0  0  0  0  0
   30.5017    0.9057   29.2564 C   0  0  0  0  0  0
   31.0264    0.7072   30.6976 C   0  0  0  0  0  0
   32.2025    1.4552   30.9306 O   0  0  0  0  0  0
   32.6540    0.6246   27.9756 C   0  0  0  0  0  0
   33.6817   -0.0248   28.6598 C   0  0  0  0  0  0
   34.9869    0.4390   28.5415 C   0  0  0  0  0  0
   35.2518    1.5478   27.7392 C   0  0  0  0  0  0
   34.2257    2.2040   27.0660 C   0  0  0  0  0  0
   32.9236    1.7434   27.1894 C   0  0  0  0  0  0
   29.3856   -1.3406   27.4632 C   0  0  0  0  0  0
   28.2447   -0.5450   27.2816 C   0  0  0  0  0  0
   26.9770   -1.1095   27.4151 C   0  0  0  0  0  0
   26.8628   -2.4682   27.7112 C   0  0  0  0  0  0
   27.9805   -3.2677   27.8646 C   0  0  0  0  0  0
   29.2365   -2.7000   27.7463 C   0  0  0  0  0  0
   25.6443   -3.0491   27.8641 O   0  0  0  0  0  0
   37.1019   -2.3680   19.6281 H   0  0  0  0  0  0
   36.9819   -3.7414   20.6982 H   0  0  0  0  0  0
   36.2793   -3.8392   19.0773 H   0  0  0  0  0  0
   35.2642   -0.9545   19.2325 H   0  0  0  0  0  0
   34.3842   -2.3176   18.5390 H   0  0  0  0  0  0
   33.6631   -1.3417   19.8150 H   0  0  0  0  0  0
   34.8511   -4.5414   21.3479 H   0  0  0  0  0  0
   33.8906   -4.2456   19.9240 H   0  0  0  0  0  0
   32.3696   -4.1301   21.7716 H   0  0  0  0  0  0
   32.6482   -2.4544   21.3758 H   0  0  0  0  0  0
   33.9898   -3.6745   25.4995 H   0  0  0  0  0  0
   32.7777   -2.6631   27.4555 H   0  0  0  0  0  0
   30.4383   -0.3475   24.6977 H   0  0  0  0  0  0
   31.6586   -1.3361   22.8287 H   0  0  0  0  0  0
   30.4985    1.9709   29.0210 H   0  0  0  0  0  0
   29.4486    0.6403   29.2435 H   0  0  0  0  0  0
   30.2857    1.0568   31.4221 H   0  0  0  0  0  0
   31.2151   -0.3467   30.9117 H   0  0  0  0  0  0
   32.8690    1.1822   30.2893 H   0  0  0  0  0  0
   33.4733   -0.8875   29.2773 H   0  0  0  0  0  0
   35.7941   -0.0683   29.0500 H   0  0  0  0  0  0
   36.2667    1.8970   27.6124 H   0  0  0  0  0  0
   34.4425    3.0540   26.4388 H   0  0  0  0  0  0
   32.1262    2.2507   26.6693 H   0  0  0  0  0  0
   28.3361    0.5070   27.0441 H   0  0  0  0  0  0
   26.0930   -0.4998   27.2888 H   0  0  0  0  0  0
   27.8800   -4.3230   28.0841 H   0  0  0  0  0  0
   30.0894   -3.3418   27.8595 H   0  0  0  0  0  0
   25.2600   -3.3105   26.9949 H   0  0  0  0  0  0
  1  2  1  0  0  0
  1 31  1  0  0  0
  1 32  1  0  0  0
  1 33  1  0  0  0
  2  3  1  0  0  0
  2  4  1  0  0  0
  3 34  1  0  0  0
  3 35  1  0  0  0
  3 36  1  0  0  0
  4  5  1  0  0  0
  4 37  1  0  0  0
  4 38  1  0  0  0
  5  6  1  0  0  0
  5 39  1  0  0  0
  5 40  1  0  0  0
  6  7  1  0  0  0
  7 12  1  0  0  0
  7  8  2  0  0  0
  8  9  1  0  0  0
  8 41  1  0  0  0
  9 10  2  0  0  0
  9 42  1  0  0  0
 10 11  1  0  0  0
 10 13  1  0  0  0
 11 12  2  0  0  0
 11 43  1  0  0  0
 12 44  1  0  0  0
 13 14  2  0  0  0
 13 24  1  0  0  0
 14 15  1  0  0  0
 14 18  1  0  0  0
 15 16  1  0  0  0
 15 45  1  0  0  0
 15 46  1  0  0  0
 16 17  1  0  0  0
 16 47  1  0  0  0
 16 48  1  0  0  0
 17 49  1  0  0  0
 18 23  1  0  0  0
 18 19  2  0  0  0
 19 20  1  0  0  0
 19 50  1  0  0  0
 20 21  2  0  0  0
 20 51  1  0  0  0
 21 22  1  0  0  0
 21 52  1  0  0  0
 22 23  2  0  0  0
 22 53  1  0  0  0
 23 54  1  0  0  0
 24 29  1  0  0  0
 24 25  2  0  0  0
 25 26  1  0  0  0
 25 55  1  0  0  0
 26 27  2  0  0  0
 26 56  1  0  0  0
 27 28  1  0  0  0
 27 30  1  0  0  0
 28 29  2  0  0  0
 28 57  1  0  0  0
 29 58  1  0  0  0
 30 59  1  0  0  0
M  END
> <s_m_entry_id>
17194

> <s_m_entry_name>
ligand_docking-pose.121

> <s_m_Source_Path>
/home/csk/Desktop/cluster/DUD-E-result/esr1

> <s_m_Source_File>
ligand_docking-pose.sdf

> <i_m_Source_File_Index>
121

> <i_lp_mmshare_version>
53161

> <i_f3d_flags>
0

> <r_lp_tautomer_probability>
1

> <s_lp_Force_Field>
OPLS_2005

> <r_lp_Energy>
37.474745

> <b_lp_Chiralities_Consistent>
1

> <s_lp_Variant>
338460-1

> <s_i_glide_gridfile>
glide-grid_1sj0

> <i_i_glide_lignum>
1732

> <i_i_glide_rotatable_bonds>
11

> <r_i_docking_score>
-9.70775951955589

> <r_i_glide_ligand_efficiency>
-0.323591983985196

> <r_i_glide_ligand_efficiency_sa>
-1.00547553016496

> <r_i_glide_ligand_efficiency_ln>
-2.20570873735494

> <r_i_glide_gscore>
-9.70775951955589

> <r_i_glide_lipo>
-5.3766260161909

> <r_i_glide_hbond>
-0.16

> <r_i_glide_metal>
0

> <r_i_glide_rewards>
-1.49001471213716

> <r_i_glide_evdw>
-48.2836990356445

> <r_i_glide_ecoul>
-8.21081638336182

> <r_i_glide_erotb>
0.964688618058669

> <r_i_glide_esite>
0

> <r_i_glide_emodel>
-81.6402217879378

> <r_i_glide_energy>
-56.4945154190063

> <r_i_glide_einternal>
13.5192451477051

> <i_i_glide_confnum>
25

> <i_i_glide_posenum>
372

> <r_i_glide_eff_state_penalty>
0

> <s_user_duplicate_titles>
338460

> <s_m_subgroup_title>
dock_pv

> <s_m_subgroupid>
dock_pv1

> <b_m_subgroup_collapsed>
0

$$$$
339334
                    3D
 Schrodinger Suite 2021-1.
 62 64  0  0  1  0            999 V2000
   33.1839   -3.0101   19.0756 C   0  0  0  0  0  0
   34.4597   -2.9421   19.7898 N   0  0  0  0  0  0
   35.2534   -1.8299   19.2741 C   0  0  0  0  0  0
   34.2944   -2.8066   21.2418 C   0  0  0  0  0  0
   33.5262   -3.9791   21.8939 C   0  0  0  0  0  0
   33.6577   -3.9691   23.3174 O   0  0  0  0  0  0
   32.8957   -3.1161   24.0945 C   0  0  0  0  0  0
   33.0088   -3.2771   25.4744 C   0  0  0  0  0  0
   32.2743   -2.4817   26.3494 C   0  0  0  0  0  0
   31.4155   -1.5014   25.8477 C   0  0  0  0  0  0
   31.2870   -1.3422   24.4651 C   0  0  0  0  0  0
   32.0222   -2.1420   23.5927 C   0  0  0  0  0  0
   30.6218   -0.6369   26.7516 C   0  0  0  0  0  0
   31.1654    0.3659   27.4991 C   0  0  0  0  0  0
   30.2843    1.2841   28.3589 C   0  0  0  0  0  0
   30.7782    1.7470   29.6873 C   0  0  0  0  0  0
   31.1810    0.6061   30.6141 C   0  0  0  0  0  0
   32.3462    1.0638   31.3187 C   0  0  0  0  0  0
   33.2600    1.4580   31.8640 N   0  0  0  0  0  0
   32.6114    0.6690   27.5498 C   0  0  0  0  0  0
   33.4845   -0.0770   28.3528 C   0  0  0  0  0  0
   34.8134    0.3180   28.4939 C   0  0  0  0  0  0
   35.2600    1.4550   27.8241 C   0  0  0  0  0  0
   34.4018    2.1940   27.0317 C   0  0  0  0  0  0
   33.0870    1.8014   26.8917 C   0  0  0  0  0  0
   29.1552   -0.8908   26.7801 C   0  0  0  0  0  0
   28.6459   -2.1637   27.0640 C   0  0  0  0  0  0
   27.2683   -2.3461   27.1687 C   0  0  0  0  0  0
   26.4403   -1.2263   27.1446 C   0  0  0  0  0  0
   26.9500    0.0493   27.0640 C   0  0  0  0  0  0
   28.2659    0.1875   26.6675 C   0  0  0  0  0  0
   25.0956   -1.3420   27.0640 O   0  0  0  0  0  0
   33.3451   -3.0623   17.9978 H   0  0  0  0  0  0
   32.6250   -3.9061   19.3495 H   0  0  0  0  0  0
   32.5563   -2.1419   19.2819 H   0  0  0  0  0  0
   35.4302   -1.9448   18.2036 H   0  0  0  0  0  0
   34.7578   -0.8707   19.4346 H   0  0  0  0  0  0
   36.2298   -1.7929   19.7596 H   0  0  0  0  0  0
   33.8035   -1.8615   21.4651 H   0  0  0  0  0  0
   35.2816   -2.7541   21.7041 H   0  0  0  0  0  0
   33.9469   -4.9205   21.5372 H   0  0  0  0  0  0
   32.4740   -3.9992   21.6052 H   0  0  0  0  0  0
   33.6600   -4.0435   25.8643 H   0  0  0  0  0  0
   32.3701   -2.6337   27.4140 H   0  0  0  0  0  0
   30.6145   -0.5977   24.0637 H   0  0  0  0  0  0
   31.8862   -2.0028   22.5328 H   0  0  0  0  0  0
   30.0290    2.1657   27.7690 H   0  0  0  0  0  0
   29.3586    0.8015   28.6585 H   0  0  0  0  0  0
   31.5764    2.4788   29.5359 H   0  0  0  0  0  0
   29.9257    2.2580   30.1198 H   0  0  0  0  0  0
   30.4600    0.4099   31.3936 H   0  0  0  0  0  0
   31.4032   -0.3313   30.1077 H   0  0  0  0  0  0
   33.1379   -0.9506   28.8836 H   0  0  0  0  0  0
   35.4954   -0.2533   29.1072 H   0  0  0  0  0  0
   36.2881    1.7705   27.8640 H   0  0  0  0  0  0
   34.7553    3.0579   26.5012 H   0  0  0  0  0  0
   32.4600    2.4004   26.2640 H   0  0  0  0  0  0
   29.3065   -3.0158   27.1446 H   0  0  0  0  0  0
   26.8520   -3.3393   27.2582 H   0  0  0  0  0  0
   26.2900    0.9036   27.0638 H   0  0  0  0  0  0
   28.6160    1.1739   26.4038 H   0  0  0  0  0  0
   24.8601   -2.1768   26.6110 H   0  0  0  0  0  0
  1  2  1  0  0  0
  1 33  1  0  0  0
  1 34  1  0  0  0
  1 35  1  0  0  0
  2  3  1  0  0  0
  2  4  1  0  0  0
  3 36  1  0  0  0
  3 37  1  0  0  0
  3 38  1  0  0  0
  4  5  1  0  0  0
  4 39  1  0  0  0
  4 40  1  0  0  0
  5  6  1  0  0  0
  5 41  1  0  0  0
  5 42  1  0  0  0
  6  7  1  0  0  0
  7 12  1  0  0  0
  7  8  2  0  0  0
  8  9  1  0  0  0
  8 43  1  0  0  0
  9 10  2  0  0  0
  9 44  1  0  0  0
 10 11  1  0  0  0
 10 13  1  0  0  0
 11 12  2  0  0  0
 11 45  1  0  0  0
 12 46  1  0  0  0
 13 14  2  0  0  0
 13 26  1  0  0  0
 14 15  1  0  0  0
 14 20  1  0  0  0
 15 16  1  0  0  0
 15 47  1  0  0  0
 15 48  1  0  0  0
 16 17  1  0  0  0
 16 49  1  0  0  0
 16 50  1  0  0  0
 17 18  1  0  0  0
 17 51  1  0  0  0
 17 52  1  0  0  0
 18 19  3  0  0  0
 20 25  1  0  0  0
 20 21  2  0  0  0
 21 22  1  0  0  0
 21 53  1  0  0  0
 22 23  2  0  0  0
 22 54  1  0  0  0
 23 24  1  0  0  0
 23 55  1  0  0  0
 24 25  2  0  0  0
 24 56  1  0  0  0
 25 57  1  0  0  0
 26 31  1  0  0  0
 26 27  2  0  0  0
 27 28  1  0  0  0
 27 58  1  0  0  0
 28 29  2  0  0  0
 28 59  1  0  0  0
 29 30  1  0  0  0
 29 32  1  0  0  0
 30 31  2  0  0  0
 30 60  1  0  0  0
 31 61  1  0  0  0
 32 62  1  0  0  0
M  END
> <s_m_entry_id>
17195

> <s_m_entry_name>
ligand_docking-pose.122

> <s_m_Source_Path>
/home/csk/Desktop/cluster/DUD-E-result/esr1

> <s_m_Source_File>
ligand_docking-pose.sdf

> <i_m_Source_File_Index>
122

> <i_lp_mmshare_version>
53161

> <i_f3d_flags>
0

> <r_lp_tautomer_probability>
1

> <s_lp_Force_Field>
OPLS_2005

> <r_lp_Energy>
37.978798

> <b_lp_Chiralities_Consistent>
1

> <s_lp_Variant>
339334-1

> <s_i_glide_gridfile>
glide-grid_1sj0

> <i_i_glide_lignum>
1723

> <i_i_glide_rotatable_bonds>
11

> <r_i_docking_score>
-9.70423505721288

> <r_i_glide_ligand_efficiency>
-0.303257345537903

> <r_i_glide_ligand_efficiency_sa>
-0.962782057535651

> <r_i_glide_ligand_efficiency_ln>
-2.17304275676691

> <r_i_glide_gscore>
-9.70423505721288

> <r_i_glide_lipo>
-5.61176861709628

> <r_i_glide_hbond>
-0.254136923948295

> <r_i_glide_metal>
0

> <r_i_glide_rewards>
-1.85062397908815

> <r_i_glide_evdw>
-36.292594909668

> <r_i_glide_ecoul>
-5.22626543045044

> <r_i_glide_erotb>
0.610864022970802

> <r_i_glide_esite>
0

> <r_i_glide_emodel>
-38.7949427784374

> <r_i_glide_energy>
-41.5188603401184

> <r_i_glide_einternal>
19.592113494873

> <i_i_glide_confnum>
6

> <i_i_glide_posenum>
10

> <r_i_glide_eff_state_penalty>
0

> <s_user_duplicate_titles>
339334

> <s_m_subgroup_title>
dock_pv

> <s_m_subgroupid>
dock_pv1

> <b_m_subgroup_collapsed>
0

$$$$
393993
                    3D
 Schrodinger Suite 2021-1.
 31 33  0  0  1  0            999 V2000
   32.0921    0.1695   30.5082 C   0  0  0  0  0  0
   32.6408    0.6528   29.1712 C   0  0  0  0  0  0
   33.9399    1.1636   29.1118 C   0  0  0  0  0  0
   34.4344    1.6799   27.9145 C   0  0  0  0  0  0
   33.6830    1.6239   26.7506 C   0  0  0  0  0  0
   32.4293    1.0394   26.7817 C   0  0  0  0  0  0
   31.8785    0.6028   27.9870 C   0  0  0  0  0  0
   30.6032    0.0244   27.9398 N   0  0  0  0  0  0
   29.4362    0.7114   27.8324 C   0  0  0  0  0  0
   29.2891    1.9290   27.8252 O   0  0  0  0  0  0
   28.3769   -0.3186   27.7320 C   0  0  0  0  0  0
   26.9981   -0.1960   27.5720 C   0  0  0  0  0  0
   26.2272   -1.3600   27.5829 C   0  0  0  0  0  0
   26.8341   -2.6096   27.7647 C   0  0  0  0  0  0
   28.2239   -2.7167   27.8640 C   0  0  0  0  0  0
   28.9750   -1.5430   27.8459 C   0  0  0  0  0  0
   30.4367   -1.3163   27.9145 C   0  0  0  0  0  0
   31.3407   -2.1420   27.9338 O   0  0  0  0  0  0
   26.0601   -3.7284   27.8640 O   0  0  0  0  0  0
   35.6600    2.2580   27.8640 O   0  0  0  0  0  0
   31.1031    0.5937   30.6851 H   0  0  0  0  0  0
   31.9939   -0.9164   30.5104 H   0  0  0  0  0  0
   32.7260    0.4676   31.3444 H   0  0  0  0  0  0
   34.5464    1.2138   30.0036 H   0  0  0  0  0  0
   34.0869    1.9946   25.8203 H   0  0  0  0  0  0
   31.8888    0.9001   25.8640 H   0  0  0  0  0  0
   26.5225    0.7691   27.4633 H   0  0  0  0  0  0
   25.1583   -1.2852   27.4705 H   0  0  0  0  0  0
   28.6889   -3.6871   27.9682 H   0  0  0  0  0  0
   25.3732   -3.7420   27.1741 H   0  0  0  0  0  0
   36.3125    1.8610   28.4566 H   0  0  0  0  0  0
  1  2  1  0  0  0
  1 21  1  0  0  0
  1 22  1  0  0  0
  1 23  1  0  0  0
  2  7  1  0  0  0
  2  3  2  0  0  0
  3  4  1  0  0  0
  3 24  1  0  0  0
  4  5  2  0  0  0
  4 20  1  0  0  0
  5  6  1  0  0  0
  5 25  1  0  0  0
  6  7  2  0  0  0
  6 26  1  0  0  0
  7  8  1  0  0  0
  8 17  1  0  0  0
  8  9  1  0  0  0
  9 10  2  0  0  0
  9 11  1  0  0  0
 11 16  2  0  0  0
 11 12  1  0  0  0
 12 13  2  0  0  0
 12 27  1  0  0  0
 13 14  1  0  0  0
 13 28  1  0  0  0
 14 15  2  0  0  0
 14 19  1  0  0  0
 15 16  1  0  0  0
 15 29  1  0  0  0
 16 17  1  0  0  0
 17 18  2  0  0  0
 19 30  1  0  0  0
 20 31  1  0  0  0
M  END
> <s_m_entry_id>
17196

> <s_m_entry_name>
ligand_docking-pose.123

> <s_m_Source_Path>
/home/csk/Desktop/cluster/DUD-E-result/esr1

> <s_m_Source_File>
ligand_docking-pose.sdf

> <i_m_Source_File_Index>
123

> <i_lp_mmshare_version>
53161

> <i_f3d_flags>
0

> <r_lp_tautomer_probability>
0.99999999999473

> <s_lp_Force_Field>
OPLS_2005

> <r_lp_Energy>
45.629205

> <b_lp_Chiralities_Consistent>
1

> <s_lp_Variant>
393993-1

> <s_i_glide_gridfile>
glide-grid_1sj0

> <i_i_glide_lignum>
1007

> <i_i_glide_rotatable_bonds>
3

> <r_i_docking_score>
-9.68936719754587

> <r_i_glide_ligand_efficiency>
-0.484468359877294

> <r_i_glide_ligand_efficiency_sa>
-1.31504944942059

> <r_i_glide_ligand_efficiency_ln>
-2.42492903282724

> <r_i_glide_gscore>
-9.68936719754587

> <r_i_glide_lipo>
-2.906490764534

> <r_i_glide_hbond>
-0.456

> <r_i_glide_metal>
0

> <r_i_glide_rewards>
-3.36416912884509

> <r_i_glide_evdw>
-34.3690605163574

> <r_i_glide_ecoul>
-9.93785858154297

> <r_i_glide_erotb>
0.246424508882524

> <r_i_glide_esite>
0

> <r_i_glide_emodel>
-64.3097187379062

> <r_i_glide_energy>
-44.3069190979004

> <r_i_glide_einternal>
4.06336545944214

> <i_i_glide_confnum>
4

> <i_i_glide_posenum>
68

> <r_i_glide_eff_state_penalty>
0

> <s_user_duplicate_titles>
393993

> <s_m_subgroup_title>
dock_pv

> <s_m_subgroupid>
dock_pv1

> <b_m_subgroup_collapsed>
0

$$$$
223365
                    3D
 Schrodinger Suite 2021-1.
 35 36  0  0  1  0            999 V2000
   31.6395   -1.0602   24.4625 C   0  0  0  0  0  0
   31.9726   -2.0516   23.5420 C   0  0  0  0  0  0
   32.7088   -3.1568   23.9566 C   0  0  0  0  0  0
   33.1106   -3.2766   25.2837 C   0  0  0  0  0  0
   32.7906   -2.2836   26.2026 C   0  0  0  0  0  0
   32.0601   -1.1652   25.7913 C   0  0  0  0  0  0
   31.7835   -0.0350   26.7746 C   0  0  0  0  0  0
   30.9854   -0.4619   28.0350 C   0  0  2  0  0  0
   29.4922   -0.6792   27.7108 C   0  0  0  0  0  0
   29.0226   -1.9862   27.5179 C   0  0  0  0  0  0
   27.6909   -2.2181   27.1704 C   0  0  0  0  0  0
   26.8200   -1.1414   27.0216 C   0  0  0  0  0  0
   27.2724    0.1610   27.2070 C   0  0  0  0  0  0
   28.6071    0.3947   27.5255 C   0  0  0  0  0  0
   25.5138   -1.3420   26.6640 O   0  0  0  0  0  0
   31.2500    0.5001   29.2304 C   0  0  0  0  0  0
   30.4550    1.3860   29.5519 O   0  0  0  0  0  0
   32.5844    0.3492   29.9858 C   0  0  0  0  0  0
   32.8596   -0.9417   30.1637 F   0  0  0  0  0  0
   33.5639    0.9136   29.2789 F   0  0  0  0  0  0
   32.5147    0.9490   31.1764 F   0  0  0  0  0  0
   33.0355   -4.1417   23.0639 O   0  0  0  0  0  0
   31.0717   -0.2009   24.1394 H   0  0  0  0  0  0
   31.6595   -1.9616   22.5127 H   0  0  0  0  0  0
   33.6664   -4.1418   25.6010 H   0  0  0  0  0  0
   33.1324   -2.3752   27.2225 H   0  0  0  0  0  0
   31.2561    0.7729   26.2664 H   0  0  0  0  0  0
   32.7590    0.3814   27.0283 H   0  0  0  0  0  0
   31.3664   -1.4267   28.3653 H   0  0  0  0  0  0
   29.6911   -2.8285   27.6175 H   0  0  0  0  0  0
   27.3425   -3.2281   27.0069 H   0  0  0  0  0  0
   26.5925    0.9919   27.0718 H   0  0  0  0  0  0
   28.9436    1.4160   27.6206 H   0  0  0  0  0  0
   25.2995   -2.2284   26.3109 H   0  0  0  0  0  0
   32.6296   -4.0425   22.1995 H   0  0  0  0  0  0
  1  6  1  0  0  0
  1  2  2  0  0  0
  1 23  1  0  0  0
  2  3  1  0  0  0
  2 24  1  0  0  0
  3  4  2  0  0  0
  3 22  1  0  0  0
  4  5  1  0  0  0
  4 25  1  0  0  0
  5  6  2  0  0  0
  5 26  1  0  0  0
  6  7  1  0  0  0
  7  8  1  0  0  0
  7 27  1  0  0  0
  7 28  1  0  0  0
  8  9  1  0  0  0
  8 16  1  0  0  0
  8 29  1  0  0  0
  9 14  1  0  0  0
  9 10  2  0  0  0
 10 11  1  0  0  0
 10 30  1  0  0  0
 11 12  2  0  0  0
 11 31  1  0  0  0
 12 13  1  0  0  0
 12 15  1  0  0  0
 13 14  2  0  0  0
 13 32  1  0  0  0
 14 33  1  0  0  0
 15 34  1  0  0  0
 16 17  2  0  0  0
 16 18  1  0  0  0
 18 19  1  0  0  0
 18 20  1  0  0  0
 18 21  1  0  0  0
 22 35  1  0  0  0
M  END
> <s_m_entry_id>
17197

> <s_m_entry_name>
ligand_docking-pose.124

> <s_m_Source_Path>
/home/csk/Desktop/cluster/DUD-E-result/esr1

> <s_m_Source_File>
ligand_docking-pose.sdf

> <i_m_Source_File_Index>
124

> <i_lp_mmshare_version>
53161

> <i_f3d_flags>
0

> <r_lp_tautomer_probability>
0.999900004994481

> <s_lp_Force_Field>
OPLS_2005

> <r_lp_Energy>
15.076125

> <b_lp_Chiralities_Consistent>
1

> <s_lp_Variant>
223365-1

> <s_i_glide_gridfile>
glide-grid_1sj0

> <i_i_glide_lignum>
422

> <i_i_glide_rotatable_bonds>
7

> <r_i_docking_score>
-9.67508800304983

> <r_i_glide_ligand_efficiency>
-0.439776727411356

> <r_i_glide_ligand_efficiency_sa>
-1.23227168564386

> <r_i_glide_ligand_efficiency_ln>
-2.36494441535497

> <r_i_glide_gscore>
-9.67508800304983

> <r_i_glide_lipo>
-3.8865774483866

> <r_i_glide_hbond>
-0.16

> <r_i_glide_metal>
0

> <r_i_glide_rewards>
-3.48504158678951

> <r_i_glide_evdw>
-36.0297698974609

> <r_i_glide_ecoul>
-5.87263345718384

> <r_i_glide_erotb>
0.538914545576908

> <r_i_glide_esite>
0

> <r_i_glide_emodel>
-68.5203933789357

> <r_i_glide_energy>
-41.9024033546448

> <r_i_glide_einternal>
1.28351140022278

> <i_i_glide_confnum>
26

> <i_i_glide_posenum>
371

> <r_i_glide_eff_state_penalty>
0

> <s_user_duplicate_titles>
223365

> <s_m_subgroup_title>
dock_pv

> <s_m_subgroupid>
dock_pv1

> <b_m_subgroup_collapsed>
0

$$$$
74931
                    3D
 Schrodinger Suite 2021-1.
 44 47  0  0  1  0            999 V2000
   32.8852    0.2590   30.0716 C   0  0  0  0  0  0
   33.3044   -0.0030   28.5865 C   0  0  1  0  0  0
   33.2242   -1.4933   28.2236 C   0  0  0  0  0  0
   31.7776   -1.9899   28.2043 C   0  0  0  0  0  0
   30.7570   -1.0955   27.4526 C   0  0  1  0  0  0
   29.2981   -1.5575   27.6050 C   0  0  0  0  0  0
   28.9999   -2.9169   27.7841 C   0  0  0  0  0  0
   27.6994   -3.3781   27.8680 C   0  0  0  0  0  0
   26.6612   -2.4706   27.8190 C   0  0  0  0  0  0
   26.9139   -1.1123   27.6447 C   0  0  0  0  0  0
   28.2258   -0.6330   27.5352 C   0  0  0  0  0  0
   28.4780    0.8723   27.4013 C   0  0  0  0  0  0
   29.9065    1.1881   26.9229 C   0  0  0  0  0  0
   30.9406    0.4185   27.7549 C   0  0  2  0  0  0
   32.4538    0.7498   27.5344 C   0  0  1  0  0  0
   33.0104    2.1776   27.5467 C   0  0  0  0  0  0
   34.5229    2.0196   27.8696 C   0  0  0  0  0  0
   34.7037    0.5657   28.3253 C   0  0  1  0  0  0
   35.6578    0.2586   29.3075 O   0  0  0  0  0  0
   25.3949   -2.9385   27.9573 O   0  0  0  0  0  0
   30.9672   -1.2384   26.3899 H   0  0  0  0  0  0
   30.6826    0.6090   28.7956 H   0  0  0  0  0  0
   32.7051    0.3733   26.5379 H   0  0  0  0  0  0
   35.1144    0.0627   27.4643 H   0  0  0  0  0  0
   31.9354   -0.1977   30.3430 H   0  0  0  0  0  0
   33.6132   -0.1498   30.7704 H   0  0  0  0  0  0
   32.8089    1.3253   30.2863 H   0  0  0  0  0  0
   33.6581   -1.6684   27.2372 H   0  0  0  0  0  0
   33.8262   -2.0863   28.9151 H   0  0  0  0  0  0
   31.4381   -2.1419   29.2291 H   0  0  0  0  0  0
   31.8376   -2.9417   27.6814 H   0  0  0  0  0  0
   29.7777   -3.6567   27.8449 H   0  0  0  0  0  0
   27.5038   -4.4328   27.9953 H   0  0  0  0  0  0
   26.0834   -0.4221   27.6095 H   0  0  0  0  0  0
   27.7486    1.3244   26.7275 H   0  0  0  0  0  0
   28.3222    1.3356   28.3755 H   0  0  0  0  0  0
   30.0717    2.2573   27.0152 H   0  0  0  0  0  0
   30.0376    0.9731   25.8646 H   0  0  0  0  0  0
   32.4815    2.7736   28.2889 H   0  0  0  0  0  0
   32.8677    2.6611   26.5797 H   0  0  0  0  0  0
   34.8593    2.6880   28.6623 H   0  0  0  0  0  0
   35.1472    2.2368   27.0013 H   0  0  0  0  0  0
   36.5197    0.6501   29.0647 H   0  0  0  0  0  0
   25.0769   -3.3415   27.1267 H   0  0  0  0  0  0
  1  2  1  0  0  0
  1 25  1  0  0  0
  1 26  1  0  0  0
  1 27  1  0  0  0
  2 15  1  0  0  0
  2 18  1  0  0  0
  2  3  1  0  0  0
  3  4  1  0  0  0
  3 28  1  0  0  0
  3 29  1  0  0  0
  4  5  1  0  0  0
  4 30  1  0  0  0
  4 31  1  0  0  0
  5 21  1  0  0  0
  5 14  1  0  0  0
  5  6  1  0  0  0
  6 11  2  0  0  0
  6  7  1  0  0  0
  7  8  2  0  0  0
  7 32  1  0  0  0
  8  9  1  0  0  0
  8 33  1  0  0  0
  9 10  2  0  0  0
  9 20  1  0  0  0
 10 11  1  0  0  0
 10 34  1  0  0  0
 11 12  1  0  0  0
 12 13  1  0  0  0
 12 35  1  0  0  0
 12 36  1  0  0  0
 13 14  1  0  0  0
 13 37  1  0  0  0
 13 38  1  0  0  0
 14 22  1  0  0  0
 14 15  1  0  0  0
 15 23  1  0  0  0
 15 16  1  0  0  0
 16 17  1  0  0  0
 16 39  1  0  0  0
 16 40  1  0  0  0
 17 18  1  0  0  0
 17 41  1  0  0  0
 17 42  1  0  0  0
 18 24  1  0  0  0
 18 19  1  0  0  0
 19 43  1  0  0  0
 20 44  1  0  0  0
M  END
> <s_m_entry_id>
17198

> <s_m_entry_name>
ligand_docking-pose.125

> <s_m_Source_Path>
/home/csk/Desktop/cluster/DUD-E-result/esr1

> <s_m_Source_File>
ligand_docking-pose.sdf

> <i_m_Source_File_Index>
125

> <i_lp_mmshare_version>
53161

> <i_f3d_flags>
0

> <r_lp_tautomer_probability>
0.999999999997365

> <s_lp_Force_Field>
OPLS_2005

> <r_lp_Energy>
46.690502

> <b_lp_Chiralities_Consistent>
1

> <s_lp_Variant>
74931-1

> <s_i_glide_gridfile>
glide-grid_1sj0

> <i_i_glide_lignum>
810

> <i_i_glide_rotatable_bonds>
2

> <r_i_docking_score>
-9.67164967673119

> <r_i_glide_ligand_efficiency>
-0.48358248383656

> <r_i_glide_ligand_efficiency_sa>
-1.3126448118919

> <r_i_glide_ligand_efficiency_ln>
-2.42049492173027

> <r_i_glide_gscore>
-9.67164967673119

> <r_i_glide_lipo>
-4.05023360134306

> <r_i_glide_hbond>
-0.456

> <r_i_glide_metal>
0

> <r_i_glide_rewards>
-2.45194118181818

> <r_i_glide_evdw>
-20.3867092132568

> <r_i_glide_ecoul>
-11.2942628860474

> <r_i_glide_erotb>
0

> <r_i_glide_esite>
0

> <r_i_glide_emodel>
-39.7151268639722

> <r_i_glide_energy>
-31.6809720993042

> <r_i_glide_einternal>
3.20728635787964

> <i_i_glide_confnum>
1

> <i_i_glide_posenum>
262

> <r_i_glide_eff_state_penalty>
0

> <s_user_duplicate_titles>
74931

> <s_m_subgroup_title>
dock_pv

> <s_m_subgroupid>
dock_pv1

> <b_m_subgroup_collapsed>
0

$$$$
160073
                    3D
 Schrodinger Suite 2021-1.
 48 52  0  0  1  0            999 V2000
   26.7037   -3.5677   28.0904 C   0  0  0  0  0  0
   28.0750   -3.7450   28.0869 C   0  0  0  0  0  0
   28.9388   -2.6749   27.8644 C   0  0  0  0  0  0
   28.4210   -1.3690   27.6607 C   0  0  0  0  0  0
   27.0028   -1.1960   27.6650 C   0  0  0  0  0  0
   26.1642   -2.3120   27.8636 C   0  0  0  0  0  0
   26.4615    0.0872   27.4646 C   0  0  0  0  0  0
   27.2922    1.1846   27.3020 C   0  0  0  0  0  0
   28.6665    1.0319   27.2829 C   0  0  0  0  0  0
   29.2435   -0.2255   27.4451 C   0  0  0  0  0  0
   30.7108   -0.2555   27.2787 C   0  0  0  0  0  0
   31.6837    0.1982   28.2227 C   0  0  0  0  0  0
   31.6909    0.6655   29.5483 C   0  0  0  0  0  0
   32.9151    1.0563   30.1023 C   0  0  0  0  0  0
   34.0893    1.0280   29.3458 C   0  0  0  0  0  0
   34.1137    0.5824   28.0416 C   0  0  0  0  0  0
   32.9032    0.1555   27.5185 C   0  0  0  0  0  0
   32.7444   -0.3431   26.2749 O   0  0  0  0  0  0
   31.4338   -0.6714   26.1568 C   0  0  0  0  0  0
   31.0165   -1.2444   24.8804 C   0  0  0  0  0  0
   29.9094   -0.9420   24.4608 O   0  0  0  0  0  0
   31.9585   -2.0816   24.0629 C   0  0  0  0  0  0
   33.1562   -2.5568   24.5873 C   0  0  0  0  0  0
   34.0850   -3.1283   23.7437 C   0  0  0  0  0  0
   33.8447   -3.3020   22.3842 C   0  0  0  0  0  0
   32.5819   -2.9919   21.8909 C   0  0  0  0  0  0
   31.6599   -2.3925   22.7301 C   0  0  0  0  0  0
   34.8925   -3.7434   21.6070 O   0  0  0  0  0  0
   34.7848   -3.7388   20.1832 C   0  0  0  0  0  0
   34.5762   -2.5165   19.6897 F   0  0  0  0  0  0
   33.8864   -4.6099   19.7265 F   0  0  0  0  0  0
   35.2600    1.4580   29.8640 O   0  0  0  0  0  0
   26.0508   -4.4077   28.2633 H   0  0  0  0  0  0
   28.4604   -4.7370   28.2465 H   0  0  0  0  0  0
   30.0063   -2.8374   27.8544 H   0  0  0  0  0  0
   25.0967   -2.1931   27.8224 H   0  0  0  0  0  0
   25.3897    0.2154   27.4468 H   0  0  0  0  0  0
   26.8618    2.1589   27.1448 H   0  0  0  0  0  0
   29.2865    1.8994   27.1071 H   0  0  0  0  0  0
   30.7780    0.7187   30.1232 H   0  0  0  0  0  0
   32.9547    1.4183   31.1198 H   0  0  0  0  0  0
   35.0247    0.5628   27.4639 H   0  0  0  0  0  0
   33.4317   -2.4405   25.6235 H   0  0  0  0  0  0
   35.0450   -3.3420   24.1701 H   0  0  0  0  0  0
   32.3131   -3.1582   20.8586 H   0  0  0  0  0  0
   30.7085   -2.1422   22.2962 H   0  0  0  0  0  0
   35.7403   -4.0665   19.7734 H   0  0  0  0  0  0
   36.0205    1.3683   29.2783 H   0  0  0  0  0  0
  1  6  1  0  0  0
  1  2  2  0  0  0
  1 33  1  0  0  0
  2  3  1  0  0  0
  2 34  1  0  0  0
  3  4  2  0  0  0
  3 35  1  0  0  0
  4 10  1  0  0  0
  4  5  1  0  0  0
  5  6  2  0  0  0
  5  7  1  0  0  0
  6 36  1  0  0  0
  7  8  2  0  0  0
  7 37  1  0  0  0
  8  9  1  0  0  0
  8 38  1  0  0  0
  9 10  2  0  0  0
  9 39  1  0  0  0
 10 11  1  0  0  0
 11 19  2  0  0  0
 11 12  1  0  0  0
 12 17  2  0  0  0
 12 13  1  0  0  0
 13 14  2  0  0  0
 13 40  1  0  0  0
 14 15  1  0  0  0
 14 41  1  0  0  0
 15 16  2  0  0  0
 15 32  1  0  0  0
 16 17  1  0  0  0
 16 42  1  0  0  0
 17 18  1  0  0  0
 18 19  1  0  0  0
 19 20  1  0  0  0
 20 21  2  0  0  0
 20 22  1  0  0  0
 22 27  1  0  0  0
 22 23  2  0  0  0
 23 24  1  0  0  0
 23 43  1  0  0  0
 24 25  2  0  0  0
 24 44  1  0  0  0
 25 26  1  0  0  0
 25 28  1  0  0  0
 26 27  2  0  0  0
 26 45  1  0  0  0
 27 46  1  0  0  0
 28 29  1  0  0  0
 29 30  1  0  0  0
 29 31  1  0  0  0
 29 47  1  0  0  0
 32 48  1  0  0  0
M  END
> <s_m_entry_id>
17199

> <s_m_entry_name>
ligand_docking-pose.126

> <s_m_Source_Path>
/home/csk/Desktop/cluster/DUD-E-result/esr1

> <s_m_Source_File>
ligand_docking-pose.sdf

> <i_m_Source_File_Index>
126

> <i_lp_mmshare_version>
53161

> <i_f3d_flags>
0

> <r_lp_tautomer_probability>
1

> <s_lp_Force_Field>
OPLS_2005

> <r_lp_Energy>
26.779561

> <b_lp_Chiralities_Consistent>
1

> <s_lp_Variant>
160073-1

> <s_i_glide_gridfile>
glide-grid_1sj0

> <i_i_glide_lignum>
90

> <i_i_glide_rotatable_bonds>
6

> <r_i_docking_score>
-9.65926384054885

> <r_i_glide_ligand_efficiency>
-0.301851995017151

> <r_i_glide_ligand_efficiency_sa>
-0.958320347750757

> <r_i_glide_ligand_efficiency_ln>
-2.16297247548676

> <r_i_glide_gscore>
-9.65926384054885

> <r_i_glide_lipo>
-5.21686328881086

> <r_i_glide_hbond>
-0.30028889047889

> <r_i_glide_metal>
0

> <r_i_glide_rewards>
-1.87512695542328

> <r_i_glide_evdw>
-38.5739364624023

> <r_i_glide_ecoul>
-4.69300365447998

> <r_i_glide_erotb>
0.4292901706868

> <r_i_glide_esite>
-0.0636275052305091

> <r_i_glide_emodel>
-61.2240076700601

> <r_i_glide_energy>
-43.2669401168823

> <r_i_glide_einternal>
5.38498210906982

> <i_i_glide_confnum>
31

> <i_i_glide_posenum>
80

> <r_i_glide_eff_state_penalty>
0

> <s_user_duplicate_titles>
160073

> <s_m_subgroup_title>
dock_pv

> <s_m_subgroupid>
dock_pv1

> <b_m_subgroup_collapsed>
0

$$$$
339327
                    3D
 Schrodinger Suite 2021-1.
 58 60  0  0  1  0            999 V2000
   34.3017   -4.9182   18.5744 C   0  0  0  0  0  0
   33.7659   -3.7949   19.3382 N   0  0  0  0  0  0
   32.5100   -3.3584   18.7261 C   0  0  0  0  0  0
   33.5885   -4.2140   20.7347 C   0  0  0  0  0  0
   33.1359   -3.0676   21.6524 C   0  0  0  0  0  0
   33.4699   -3.3835   23.0029 O   0  0  0  0  0  0
   32.8484   -2.7097   24.0359 C   0  0  0  0  0  0
   33.1774   -3.1195   25.3244 C   0  0  0  0  0  0
   32.5635   -2.5381   26.4286 C   0  0  0  0  0  0
   31.6010   -1.5385   26.2509 C   0  0  0  0  0  0
   31.2807   -1.1072   24.9641 C   0  0  0  0  0  0
   31.9154   -1.6765   23.8630 C   0  0  0  0  0  0
   30.8893   -0.9975   27.4358 C   0  0  0  0  0  0
   31.4897   -0.1687   28.3311 C   0  0  0  0  0  0
   30.8489    0.2648   29.6586 C   0  0  0  0  0  0
   31.4190    1.4824   30.4115 C   0  0  0  0  0  0
   32.8467    1.0580   31.3844 Cl  0  0  0  0  0  0
   32.8160    0.3786   28.0450 C   0  0  0  0  0  0
   33.9524   -0.1409   28.6631 C   0  0  0  0  0  0
   35.1776    0.4662   28.4424 C   0  0  0  0  0  0
   35.2602    1.5837   27.6129 C   0  0  0  0  0  0
   34.1320    2.0861   26.9764 C   0  0  0  0  0  0
   32.9051    1.4773   27.1907 C   0  0  0  0  0  0
   29.4954   -1.4744   27.5641 C   0  0  0  0  0  0
   29.2567   -2.8474   27.5868 C   0  0  0  0  0  0
   27.9710   -3.3425   27.7277 C   0  0  0  0  0  0
   26.9151   -2.4507   27.8373 C   0  0  0  0  0  0
   27.1215   -1.0748   27.7874 C   0  0  0  0  0  0
   28.4160   -0.5849   27.6351 C   0  0  0  0  0  0
   25.6591   -2.9458   27.9897 O   0  0  0  0  0  0
   34.4720   -4.6378   17.5342 H   0  0  0  0  0  0
   35.2597   -5.2432   18.9828 H   0  0  0  0  0  0
   33.6229   -5.7752   18.5857 H   0  0  0  0  0  0
   32.6634   -3.0845   17.6809 H   0  0  0  0  0  0
   31.7506   -4.1423   18.7565 H   0  0  0  0  0  0
   32.1094   -2.4786   19.2282 H   0  0  0  0  0  0
   34.5312   -4.6060   21.1163 H   0  0  0  0  0  0
   32.8663   -5.0286   20.7997 H   0  0  0  0  0  0
   32.0611   -2.9378   21.5212 H   0  0  0  0  0  0
   33.6379   -2.1393   21.3795 H   0  0  0  0  0  0
   33.8974   -3.9113   25.4573 H   0  0  0  0  0  0
   32.8153   -2.8835   27.4198 H   0  0  0  0  0  0
   30.5394   -0.3364   24.8142 H   0  0  0  0  0  0
   31.6607   -1.3150   22.8827 H   0  0  0  0  0  0
   29.8112    0.5175   29.4633 H   0  0  0  0  0  0
   30.8598   -0.5996   30.3247 H   0  0  0  0  0  0
   31.6738    2.3006   29.7394 H   0  0  0  0  0  0
   30.6830    1.8577   31.1204 H   0  0  0  0  0  0
   33.8835   -0.9936   29.3258 H   0  0  0  0  0  0
   36.0600    0.0700   28.9191 H   0  0  0  0  0  0
   36.2198    2.0459   27.4379 H   0  0  0  0  0  0
   34.2073    2.9332   26.3119 H   0  0  0  0  0  0
   32.0248    1.8585   26.6963 H   0  0  0  0  0  0
   30.0779   -3.5316   27.4716 H   0  0  0  0  0  0
   27.7982   -4.4089   27.7430 H   0  0  0  0  0  0
   26.2873   -0.3936   27.8573 H   0  0  0  0  0  0
   28.5734    0.4820   27.5755 H   0  0  0  0  0  0
   25.3117   -3.3410   27.1706 H   0  0  0  0  0  0
  1  2  1  0  0  0
  1 31  1  0  0  0
  1 32  1  0  0  0
  1 33  1  0  0  0
  2  3  1  0  0  0
  2  4  1  0  0  0
  3 34  1  0  0  0
  3 35  1  0  0  0
  3 36  1  0  0  0
  4  5  1  0  0  0
  4 37  1  0  0  0
  4 38  1  0  0  0
  5  6  1  0  0  0
  5 39  1  0  0  0
  5 40  1  0  0  0
  6  7  1  0  0  0
  7 12  1  0  0  0
  7  8  2  0  0  0
  8  9  1  0  0  0
  8 41  1  0  0  0
  9 10  2  0  0  0
  9 42  1  0  0  0
 10 11  1  0  0  0
 10 13  1  0  0  0
 11 12  2  0  0  0
 11 43  1  0  0  0
 12 44  1  0  0  0
 13 14  2  0  0  0
 13 24  1  0  0  0
 14 15  1  0  0  0
 14 18  1  0  0  0
 15 16  1  0  0  0
 15 45  1  0  0  0
 15 46  1  0  0  0
 16 17  1  0  0  0
 16 47  1  0  0  0
 16 48  1  0  0  0
 18 23  1  0  0  0
 18 19  2  0  0  0
 19 20  1  0  0  0
 19 49  1  0  0  0
 20 21  2  0  0  0
 20 50  1  0  0  0
 21 22  1  0  0  0
 21 51  1  0  0  0
 22 23  2  0  0  0
 22 52  1  0  0  0
 23 53  1  0  0  0
 24 29  1  0  0  0
 24 25  2  0  0  0
 25 26  1  0  0  0
 25 54  1  0  0  0
 26 27  2  0  0  0
 26 55  1  0  0  0
 27 28  1  0  0  0
 27 30  1  0  0  0
 28 29  2  0  0  0
 28 56  1  0  0  0
 29 57  1  0  0  0
 30 58  1  0  0  0
M  END
> <s_m_entry_id>
17200

> <s_m_entry_name>
ligand_docking-pose.127

> <s_m_Source_Path>
/home/csk/Desktop/cluster/DUD-E-result/esr1

> <s_m_Source_File>
ligand_docking-pose.sdf

> <i_m_Source_File_Index>
127

> <i_lp_mmshare_version>
53161

> <i_f3d_flags>
0

> <r_lp_tautomer_probability>
1

> <s_lp_Force_Field>
OPLS_2005

> <r_lp_Energy>
35.327526

> <b_lp_Chiralities_Consistent>
1

> <s_lp_Variant>
339327-1

> <s_i_glide_gridfile>
glide-grid_1sj0

> <i_i_glide_lignum>
1725

> <i_i_glide_rotatable_bonds>
10

> <r_i_docking_score>
-9.65823577965396

> <r_i_glide_ligand_efficiency>
-0.321941192655132

> <r_i_glide_ligand_efficiency_sa>
-1.00034613768945

> <r_i_glide_ligand_efficiency_ln>
-2.19445640404485

> <r_i_glide_gscore>
-9.65823577965396

> <r_i_glide_lipo>
-5.42503239891266

> <r_i_glide_hbond>
-0.16

> <r_i_glide_metal>
0

> <r_i_glide_rewards>
-1.43208842383049

> <r_i_glide_evdw>
-48.1671371459961

> <r_i_glide_ecoul>
-6.7429084777832

> <r_i_glide_erotb>
0.778678172056473

> <r_i_glide_esite>
0

> <r_i_glide_emodel>
-80.8685972610105

> <r_i_glide_energy>
-54.9100456237793

> <r_i_glide_einternal>
13.3298273086548

> <i_i_glide_confnum>
21

> <i_i_glide_posenum>
98

> <r_i_glide_eff_state_penalty>
0

> <s_user_duplicate_titles>
339327

> <s_m_subgroup_title>
dock_pv

> <s_m_subgroupid>
dock_pv1

> <b_m_subgroup_collapsed>
0

$$$$
5474
                    3D
 Schrodinger Suite 2021-1.
 65 70  0  0  1  0            999 V2000
   32.5249    1.0456   27.6461 C   0  0  0  0  0  0
   33.8857    0.9788   27.9252 C   0  0  0  0  0  0
   34.3341    0.0438   28.8511 C   0  0  0  0  0  0
   33.4512   -0.7585   29.5556 C   0  0  0  0  0  0
   32.0982   -0.6681   29.3103 C   0  0  0  0  0  0
   31.6429    0.1957   28.3207 C   0  0  0  0  0  0
   30.2782    0.0123   27.8604 C   0  0  0  0  0  0
   29.2173    0.7024   28.2933 C   0  0  0  0  0  0
   28.0485    0.1081   27.6639 C   0  0  0  0  0  0
   26.7127    0.4563   27.7278 C   0  0  0  0  0  0
   25.7697   -0.3298   27.0673 C   0  0  0  0  0  0
   26.1796   -1.3419   26.2637 C   0  0  0  0  0  0
   27.4876   -1.7404   26.2190 C   0  0  0  0  0  0
   28.4365   -0.9823   26.9004 C   0  0  0  0  0  0
   29.9173   -0.9651   26.7526 C   0  0  1  0  0  0
   30.2450   -0.3759   25.3793 C   0  0  0  0  0  0
   31.3426   -1.2058   24.8415 C   0  0  0  0  0  0
   32.0236   -1.0289   23.6549 C   0  0  0  0  0  0
   32.8593   -2.0296   23.1966 C   0  0  0  0  0  0
   33.0224   -3.1957   23.9370 C   0  0  0  0  0  0
   32.4528   -3.2880   25.2078 C   0  0  0  0  0  0
   31.5643   -2.3180   25.6373 C   0  0  0  0  0  0
   30.6195   -2.3374   26.8100 C   0  0  0  0  0  0
   33.6610   -4.2983   23.4592 O   0  0  0  0  0  0
   34.3124   -4.2867   22.1848 C   0  0  0  0  0  0
   33.4114   -4.3934   20.9272 C   0  0  0  0  0  0
   33.1871   -3.1352   20.1875 N   0  0  0  0  0  0
   34.4003   -2.5647   19.5728 C   0  0  0  0  0  0
   34.9502   -3.4075   18.3982 C   0  0  0  0  0  0
   33.8750   -3.6302   17.3200 C   0  0  0  0  0  0
   32.5896   -4.1771   17.9595 C   0  0  0  0  0  0
   32.1384   -3.3161   19.1686 C   0  0  0  0  0  0
   24.4323   -0.1421   27.0639 O   0  0  0  0  0  0
   35.6600   -0.1421   29.0651 O   0  0  0  0  0  0
   32.1728    1.7034   26.8656 H   0  0  0  0  0  0
   34.5863    1.5962   27.3832 H   0  0  0  0  0  0
   33.8196   -1.4824   30.2633 H   0  0  0  0  0  0
   31.4186   -1.3351   29.8207 H   0  0  0  0  0  0
   29.1896    1.5070   29.0147 H   0  0  0  0  0  0
   26.4596    1.3520   28.2643 H   0  0  0  0  0  0
   25.4518   -1.7419   25.5973 H   0  0  0  0  0  0
   27.6718   -2.5425   25.5340 H   0  0  0  0  0  0
   30.5219    0.6580   25.4698 H   0  0  0  0  0  0
   29.4032   -0.4342   24.6896 H   0  0  0  0  0  0
   31.8718   -0.1446   23.0635 H   0  0  0  0  0  0
   33.3454   -1.8900   22.2516 H   0  0  0  0  0  0
   32.6249   -4.1462   25.8266 H   0  0  0  0  0  0
   29.8940   -3.1351   26.6682 H   0  0  0  0  0  0
   31.1190   -2.5406   27.7549 H   0  0  0  0  0  0
   34.8600   -5.2235   22.2319 H   0  0  0  0  0  0
   35.0586   -3.4973   22.1331 H   0  0  0  0  0  0
   32.4533   -4.7785   21.2676 H   0  0  0  0  0  0
   33.8108   -5.1603   20.2621 H   0  0  0  0  0  0
   35.1758   -2.4125   20.3214 H   0  0  0  0  0  0
   34.1478   -1.5622   19.2191 H   0  0  0  0  0  0
   35.3515   -4.3544   18.7642 H   0  0  0  0  0  0
   35.8032   -2.8939   17.9560 H   0  0  0  0  0  0
   33.6629   -2.6826   16.8230 H   0  0  0  0  0  0
   34.2372   -4.3125   16.5512 H   0  0  0  0  0  0
   31.7911   -4.2112   17.2200 H   0  0  0  0  0  0
   32.7274   -5.2163   18.2600 H   0  0  0  0  0  0
   31.2426   -3.7398   19.6280 H   0  0  0  0  0  0
   31.8409   -2.3269   18.8218 H   0  0  0  0  0  0
   24.2709    0.8166   27.0640 H   0  0  0  0  0  0
   36.2518    0.5159   28.6751 H   0  0  0  0  0  0
  1  6  1  0  0  0
  1  2  2  0  0  0
  1 35  1  0  0  0
  2  3  1  0  0  0
  2 36  1  0  0  0
  3  4  2  0  0  0
  3 34  1  0  0  0
  4  5  1  0  0  0
  4 37  1  0  0  0
  5  6  2  0  0  0
  5 38  1  0  0  0
  6  7  1  0  0  0
  7 15  1  0  0  0
  7  8  2  0  0  0
  8  9  1  0  0  0
  8 39  1  0  0  0
  9 14  2  0  0  0
  9 10  1  0  0  0
 10 11  2  0  0  0
 10 40  1  0  0  0
 11 12  1  0  0  0
 11 33  1  0  0  0
 12 13  2  0  0  0
 12 41  1  0  0  0
 13 14  1  0  0  0
 13 42  1  0  0  0
 14 15  1  0  0  0
 15 23  1  0  0  0
 15 16  1  0  0  0
 16 17  1  0  0  0
 16 43  1  0  0  0
 16 44  1  0  0  0
 17 22  2  0  0  0
 17 18  1  0  0  0
 18 19  2  0  0  0
 18 45  1  0  0  0
 19 20  1  0  0  0
 19 46  1  0  0  0
 20 21  2  0  0  0
 20 24  1  0  0  0
 21 22  1  0  0  0
 21 47  1  0  0  0
 22 23  1  0  0  0
 23 48  1  0  0  0
 23 49  1  0  0  0
 24 25  1  0  0  0
 25 26  1  0  0  0
 25 50  1  0  0  0
 25 51  1  0  0  0
 26 27  1  0  0  0
 26 52  1  0  0  0
 26 53  1  0  0  0
 27 32  1  0  0  0
 27 28  1  0  0  0
 28 29  1  0  0  0
 28 54  1  0  0  0
 28 55  1  0  0  0
 29 30  1  0  0  0
 29 56  1  0  0  0
 29 57  1  0  0  0
 30 31  1  0  0  0
 30 58  1  0  0  0
 30 59  1  0  0  0
 31 32  1  0  0  0
 31 60  1  0  0  0
 31 61  1  0  0  0
 32 62  1  0  0  0
 32 63  1  0  0  0
 33 64  1  0  0  0
 34 65  1  0  0  0
M  END
> <s_m_entry_id>
17201

> <s_m_entry_name>
ligand_docking-pose.128

> <s_m_Source_Path>
/home/csk/Desktop/cluster/DUD-E-result/esr1

> <s_m_Source_File>
ligand_docking-pose.sdf

> <i_m_Source_File_Index>
128

> <i_lp_mmshare_version>
53161

> <i_f3d_flags>
0

> <r_lp_tautomer_probability>
1

> <s_lp_Force_Field>
OPLS_2005

> <r_lp_Energy>
65.520311

> <b_lp_Chiralities_Consistent>
1

> <s_lp_Variant>
5474-2

> <s_i_glide_gridfile>
glide-grid_1sj0

> <i_i_glide_lignum>
220

> <i_i_glide_rotatable_bonds>
7

> <r_i_docking_score>
-9.6507986040119

> <r_i_glide_ligand_efficiency>
-0.283847017765056

> <r_i_glide_ligand_efficiency_sa>
-0.919554147428201

> <r_i_glide_ligand_efficiency_ln>
-2.132132107358

> <r_i_glide_gscore>
-9.6507986040119

> <r_i_glide_lipo>
-5.44087493672803

> <r_i_glide_hbond>
-0.592154896602694

> <r_i_glide_metal>
0

> <r_i_glide_rewards>
-1.21647249482481

> <r_i_glide_evdw>
-21.2926425933838

> <r_i_glide_ecoul>
-11.5131368637085

> <r_i_glide_erotb>
0.390306383369106

> <r_i_glide_esite>
0

> <r_i_glide_emodel>
-77.8612659748239

> <r_i_glide_energy>
-32.8057794570923

> <r_i_glide_einternal>
12.3808183670044

> <i_i_glide_confnum>
1

> <i_i_glide_posenum>
27

> <r_i_glide_eff_state_penalty>
0

> <s_user_duplicate_titles>
5474

> <s_m_subgroup_title>
dock_pv

> <s_m_subgroupid>
dock_pv1

> <b_m_subgroup_collapsed>
0

$$$$
125970
                    3D
 Schrodinger Suite 2021-1.
 46 49  0  0  1  0            999 V2000
   31.8480    1.0564   31.1901 C   0  0  0  0  0  0
   32.0538   -0.2621   30.4217 C   0  0  0  0  0  0
   32.8124   -0.1109   29.0854 C   0  0  0  0  0  0
   32.1492    0.7732   27.9871 C   0  0  1  0  0  0
   33.1543    1.0915   26.8618 C   0  0  0  0  0  0
   30.8072    0.2475   27.3819 C   0  0  2  0  0  0
   29.5548    0.5198   28.2267 C   0  0  1  0  0  0
   28.6047    1.6380   27.7791 C   0  0  0  0  0  0
   27.3051    1.4283   27.4643 C   0  0  0  0  0  0
   26.7235    0.0934   27.4640 C   0  0  0  0  0  0
   27.5202   -0.9526   27.7361 C   0  0  0  0  0  0
   28.8093   -0.7318   28.1396 N   0  0  0  0  0  0
   29.5215   -1.7141   27.5546 C   0  0  0  0  0  0
   30.7062   -1.2528   27.1040 C   0  0  0  0  0  0
   31.4945   -1.8966   26.0441 C   0  0  0  0  0  0
   32.5093   -2.8116   26.3229 C   0  0  0  0  0  0
   33.2604   -3.3421   25.2756 C   0  0  0  0  0  0
   32.9967   -2.9716   23.9620 C   0  0  0  0  0  0
   32.0041   -2.0430   23.6793 C   0  0  0  0  0  0
   31.2613   -1.5002   24.7219 C   0  0  0  0  0  0
   33.7110   -3.5384   22.9433 O   0  0  0  0  0  0
   28.6307   -2.8571   27.4639 C   0  0  0  0  0  0
   27.3758   -2.3784   27.5701 C   0  0  0  0  0  0
   31.2878    0.8906   32.1097 H   0  0  0  0  0  0
   32.8037    1.5066   31.4623 H   0  0  0  0  0  0
   31.2896    1.7914   30.6116 H   0  0  0  0  0  0
   32.6186   -0.9414   31.0609 H   0  0  0  0  0  0
   31.1004   -0.7624   30.2588 H   0  0  0  0  0  0
   33.7977    0.2953   29.3182 H   0  0  0  0  0  0
   33.0110   -1.1040   28.6815 H   0  0  0  0  0  0
   31.9368    1.7420   28.4405 H   0  0  0  0  0  0
   33.2600    0.2489   26.1830 H   0  0  0  0  0  0
   32.8223    1.9398   26.2633 H   0  0  0  0  0  0
   34.1428    1.3456   27.2476 H   0  0  0  0  0  0
   30.6583    0.7598   26.4292 H   0  0  0  0  0  0
   29.8127    0.6903   29.2684 H   0  0  0  0  0  0
   29.0139    2.6328   27.7161 H   0  0  0  0  0  0
   26.7272    2.2556   27.1091 H   0  0  0  0  0  0
   25.7235   -0.0559   27.0820 H   0  0  0  0  0  0
   32.7149   -3.1109   27.3402 H   0  0  0  0  0  0
   34.0365   -4.0673   25.4622 H   0  0  0  0  0  0
   31.7986   -1.7475   22.6619 H   0  0  0  0  0  0
   30.4894   -0.7773   24.4983 H   0  0  0  0  0  0
   33.3594   -3.3334   22.0735 H   0  0  0  0  0  0
   28.8600   -3.8592   27.1632 H   0  0  0  0  0  0
   26.4637   -2.9282   27.3784 H   0  0  0  0  0  0
  1  2  1  0  0  0
  1 24  1  0  0  0
  1 25  1  0  0  0
  1 26  1  0  0  0
  2  3  1  0  0  0
  2 27  1  0  0  0
  2 28  1  0  0  0
  3  4  1  0  0  0
  3 29  1  0  0  0
  3 30  1  0  0  0
  4  5  1  0  0  0
  4  6  1  0  0  0
  4 31  1  0  0  0
  5 32  1  0  0  0
  5 33  1  0  0  0
  5 34  1  0  0  0
  6 14  1  0  0  0
  6  7  1  0  0  0
  6 35  1  0  0  0
  7 12  1  0  0  0
  7  8  1  0  0  0
  7 36  1  0  0  0
  8  9  2  0  0  0
  8 37  1  0  0  0
  9 10  1  0  0  0
  9 38  1  0  0  0
 10 11  2  0  0  0
 10 39  1  0  0  0
 11 23  1  0  0  0
 11 12  1  0  0  0
 12 13  1  0  0  0
 13 14  2  0  0  0
 13 22  1  0  0  0
 14 15  1  0  0  0
 15 20  1  0  0  0
 15 16  2  0  0  0
 16 17  1  0  0  0
 16 40  1  0  0  0
 17 18  2  0  0  0
 17 41  1  0  0  0
 18 19  1  0  0  0
 18 21  1  0  0  0
 19 20  2  0  0  0
 19 42  1  0  0  0
 20 43  1  0  0  0
 21 44  1  0  0  0
 22 23  2  0  0  0
 22 45  1  0  0  0
 23 46  1  0  0  0
M  END
> <s_m_entry_id>
17203

> <s_m_entry_name>
ligand_docking-pose.130

> <s_m_Source_Path>
/home/csk/Desktop/cluster/DUD-E-result/esr1

> <s_m_Source_File>
ligand_docking-pose.sdf

> <i_m_Source_File_Index>
130

> <i_lp_mmshare_version>
53161

> <i_f3d_flags>
0

> <r_lp_tautomer_probability>
1

> <s_lp_Force_Field>
OPLS_2005

> <r_lp_Energy>
76.311979

> <b_lp_Chiralities_Consistent>
1

> <s_lp_Variant>
125970-6

> <s_i_glide_gridfile>
glide-grid_1sj0

> <i_i_glide_lignum>
1416

> <i_i_glide_rotatable_bonds>
5

> <r_i_docking_score>
-9.63768873232155

> <r_i_glide_ligand_efficiency>
-0.419029944883546

> <r_i_glide_ligand_efficiency_sa>
-1.19166542257785

> <r_i_glide_ligand_efficiency_ln>
-2.33048052520518

> <r_i_glide_gscore>
-9.63768873232155

> <r_i_glide_lipo>
-5.61551388361704

> <r_i_glide_hbond>
0

> <r_i_glide_metal>
0

> <r_i_glide_rewards>
-2.50087415454817

> <r_i_glide_evdw>
-38.6615028381348

> <r_i_glide_ecoul>
-1.21223604679108

> <r_i_glide_erotb>
0.59360985476906

> <r_i_glide_esite>
0

> <r_i_glide_emodel>
-51.8687090123838

> <r_i_glide_energy>
-39.8737388849258

> <r_i_glide_einternal>
5.3991265296936

> <i_i_glide_confnum>
22

> <i_i_glide_posenum>
386

> <r_i_glide_eff_state_penalty>
0

> <s_user_duplicate_titles>
125970

> <s_m_subgroup_title>
dock_pv

> <s_m_subgroupid>
dock_pv1

> <b_m_subgroup_collapsed>
0

$$$$
125640
                    3D
 Schrodinger Suite 2021-1.
 35 38  0  0  1  0            999 V2000
   32.3811   -2.4389   25.7273 C   0  0  0  0  0  0
   31.7023   -2.7723   27.0640 C   0  0  0  0  0  0
   30.6027   -1.7952   27.4149 C   0  0  0  0  0  0
   29.1925   -2.0501   27.4848 C   0  0  0  0  0  0
   28.2376   -3.0970   27.4640 C   0  0  0  0  0  0
   26.8628   -2.7756   27.4639 C   0  0  0  0  0  0
   26.4128   -1.4437   27.4351 C   0  0  0  0  0  0
   27.3583   -0.4239   27.4673 C   0  0  0  0  0  0
   28.6481   -0.7882   27.5190 N   0  0  0  0  0  0
   29.5200    0.2190   27.6126 C   0  0  0  0  0  0
   30.7656   -0.4186   27.7018 C   0  0  0  0  0  0
   32.0701    0.2565   27.9123 C   0  0  0  0  0  0
   33.0836   -0.2797   28.7147 C   0  0  0  0  0  0
   34.3041    0.3826   28.8205 C   0  0  0  0  0  0
   34.4882    1.5787   28.1309 C   0  0  0  0  0  0
   33.4806    2.1248   27.3500 C   0  0  0  0  0  0
   32.2711    1.4580   27.2509 C   0  0  0  0  0  0
   35.6600    2.2580   28.2207 O   0  0  0  0  0  0
   28.7087    1.4237   27.5891 C   0  0  0  0  0  0
   27.4139    1.0388   27.4640 C   0  0  0  0  0  0
   33.1470   -3.1759   25.4835 H   0  0  0  0  0  0
   31.6587   -2.4300   24.9101 H   0  0  0  0  0  0
   32.8599   -1.4600   25.7522 H   0  0  0  0  0  0
   32.4569   -2.8609   27.8453 H   0  0  0  0  0  0
   31.2600   -3.7420   26.9616 H   0  0  0  0  0  0
   28.5429   -4.1339   27.4401 H   0  0  0  0  0  0
   26.1309   -3.5724   27.4443 H   0  0  0  0  0  0
   25.3556   -1.2298   27.3843 H   0  0  0  0  0  0
   32.9313   -1.2024   29.2542 H   0  0  0  0  0  0
   35.0929   -0.0282   29.4340 H   0  0  0  0  0  0
   33.6364    3.0579   26.8292 H   0  0  0  0  0  0
   31.4679    1.8580   26.6640 H   0  0  0  0  0  0
   36.3743    1.7769   28.6627 H   0  0  0  0  0  0
   29.0948    2.4280   27.6508 H   0  0  0  0  0  0
   26.5439    1.6770   27.4185 H   0  0  0  0  0  0
  1  2  1  0  0  0
  1 21  1  0  0  0
  1 22  1  0  0  0
  1 23  1  0  0  0
  2  3  1  0  0  0
  2 24  1  0  0  0
  2 25  1  0  0  0
  3 11  1  0  0  0
  3  4  2  0  0  0
  4  9  1  0  0  0
  4  5  1  0  0  0
  5  6  2  0  0  0
  5 26  1  0  0  0
  6  7  1  0  0  0
  6 27  1  0  0  0
  7  8  2  0  0  0
  7 28  1  0  0  0
  8 20  1  0  0  0
  8  9  1  0  0  0
  9 10  1  0  0  0
 10 11  2  0  0  0
 10 19  1  0  0  0
 11 12  1  0  0  0
 12 17  1  0  0  0
 12 13  2  0  0  0
 13 14  1  0  0  0
 13 29  1  0  0  0
 14 15  2  0  0  0
 14 30  1  0  0  0
 15 16  1  0  0  0
 15 18  1  0  0  0
 16 17  2  0  0  0
 16 31  1  0  0  0
 17 32  1  0  0  0
 18 33  1  0  0  0
 19 20  2  0  0  0
 19 34  1  0  0  0
 20 35  1  0  0  0
M  END
> <s_m_entry_id>
17204

> <s_m_entry_name>
ligand_docking-pose.131

> <s_m_Source_Path>
/home/csk/Desktop/cluster/DUD-E-result/esr1

> <s_m_Source_File>
ligand_docking-pose.sdf

> <i_m_Source_File_Index>
131

> <i_lp_mmshare_version>
53161

> <i_f3d_flags>
0

> <r_lp_tautomer_probability>
0.999999999997365

> <s_lp_Force_Field>
OPLS_2005

> <r_lp_Energy>
62.444677

> <b_lp_Chiralities_Consistent>
1

> <s_lp_Variant>
125640-1

> <s_i_glide_gridfile>
glide-grid_1sj0

> <i_i_glide_lignum>
1114

> <i_i_glide_rotatable_bonds>
3

> <r_i_docking_score>
-9.62785456512096

> <r_i_glide_ligand_efficiency>
-0.481392728256048

> <r_i_glide_ligand_efficiency_sa>
-1.30670090077406

> <r_i_glide_ligand_efficiency_ln>
-2.40953444975369

> <r_i_glide_gscore>
-9.62785456512096

> <r_i_glide_lipo>
-4.23346744427772

> <r_i_glide_hbond>
-0.32

> <r_i_glide_metal>
0

> <r_i_glide_rewards>
-2.62987812400652

> <r_i_glide_evdw>
-35.0607795715332

> <r_i_glide_ecoul>
-6.33968210220337

> <r_i_glide_erotb>
0.259482297070445

> <r_i_glide_esite>
0

> <r_i_glide_emodel>
-61.9312302917998

> <r_i_glide_energy>
-41.4004616737366

> <r_i_glide_einternal>
0.867484390735626

> <i_i_glide_confnum>
1

> <i_i_glide_posenum>
154

> <r_i_glide_eff_state_penalty>
0

> <s_user_duplicate_titles>
125640

> <s_m_subgroup_title>
dock_pv

> <s_m_subgroupid>
dock_pv1

> <b_m_subgroup_collapsed>
0

$$$$
373327
                    3D
 Schrodinger Suite 2021-1.
 37 39  0  0  1  0            999 V2000
   34.4164    1.0593   28.1550 C   0  0  0  0  0  0
   34.3256    0.0085   28.9887 C   0  0  0  0  0  0
   33.4235   -1.2121   28.8364 C   0  0  0  0  0  0
   32.4900   -1.1961   27.7045 N   0  0  0  0  0  0
   31.3125   -0.4952   27.4705 C   0  0  0  0  0  0
   30.9300   -0.8935   26.1422 C   0  0  0  0  0  0
   29.7171   -0.4106   25.6262 C   0  0  0  0  0  0
   28.9706    0.4877   26.3719 C   0  0  0  0  0  0
   29.3810    0.8896   27.6318 C   0  0  0  0  0  0
   30.5501    0.4141   28.2446 C   0  0  0  0  0  0
   30.8599    0.9212   29.6560 C   0  0  0  0  0  0
   29.7877    1.4580   30.2294 F   0  0  0  0  0  0
   31.2600   -0.0478   30.4700 F   0  0  0  0  0  0
   31.8025    1.8576   29.5906 F   0  0  0  0  0  0
   31.9962   -1.7414   25.6582 C   0  0  0  0  0  0
   32.8600   -1.8950   26.6275 N   0  0  0  0  0  0
   32.2478   -2.3924   24.2956 C   0  0  0  0  0  0
   31.4383   -2.1086   23.1985 C   0  0  0  0  0  0
   31.6117   -2.7320   21.9582 C   0  0  0  0  0  0
   32.6693   -3.5884   21.7442 C   0  0  0  0  0  0
   33.5205   -3.8699   22.7954 C   0  0  0  0  0  0
   33.2782   -3.3179   24.0531 C   0  0  0  0  0  0
   34.0600   -3.7420   25.0640 O   0  0  0  0  0  0
   32.8600   -4.1420   20.5106 O   0  0  0  0  0  0
   35.1018    1.8691   28.3613 H   0  0  0  0  0  0
   33.8184    1.1299   27.2581 H   0  0  0  0  0  0
   34.9589    0.0015   29.8640 H   0  0  0  0  0  0
   32.8739   -1.3970   29.7518 H   0  0  0  0  0  0
   34.0600   -2.0928   28.7533 H   0  0  0  0  0  0
   29.3440   -0.7045   24.6639 H   0  0  0  0  0  0
   28.0597    0.8904   25.9605 H   0  0  0  0  0  0
   28.7469    1.5982   28.1457 H   0  0  0  0  0  0
   30.6332   -1.4095   23.2974 H   0  0  0  0  0  0
   30.9292   -2.5420   21.1440 H   0  0  0  0  0  0
   34.3458   -4.5420   22.6292 H   0  0  0  0  0  0
   34.3997   -4.6388   24.9335 H   0  0  0  0  0  0
   32.1653   -4.7792   20.2640 H   0  0  0  0  0  0
  1  2  2  0  0  0
  1 25  1  0  0  0
  1 26  1  0  0  0
  2  3  1  0  0  0
  2 27  1  0  0  0
  3  4  1  0  0  0
  3 28  1  0  0  0
  3 29  1  0  0  0
  4 16  1  0  0  0
  4  5  1  0  0  0
  5 10  2  0  0  0
  5  6  1  0  0  0
  6  7  2  0  0  0
  6 15  1  0  0  0
  7  8  1  0  0  0
  7 30  1  0  0  0
  8  9  2  0  0  0
  8 31  1  0  0  0
  9 10  1  0  0  0
  9 32  1  0  0  0
 10 11  1  0  0  0
 11 12  1  0  0  0
 11 13  1  0  0  0
 11 14  1  0  0  0
 15 16  2  0  0  0
 15 17  1  0  0  0
 17 22  1  0  0  0
 17 18  2  0  0  0
 18 19  1  0  0  0
 18 33  1  0  0  0
 19 20  2  0  0  0
 19 34  1  0  0  0
 20 21  1  0  0  0
 20 24  1  0  0  0
 21 22  2  0  0  0
 21 35  1  0  0  0
 22 23  1  0  0  0
 23 36  1  0  0  0
 24 37  1  0  0  0
M  END
> <s_m_entry_id>
17205

> <s_m_entry_name>
ligand_docking-pose.132

> <s_m_Source_Path>
/home/csk/Desktop/cluster/DUD-E-result/esr1

> <s_m_Source_File>
ligand_docking-pose.sdf

> <i_m_Source_File_Index>
132

> <i_lp_mmshare_version>
53161

> <i_f3d_flags>
0

> <r_lp_tautomer_probability>
0.999999999898

> <s_lp_Force_Field>
OPLS_2005

> <r_lp_Energy>
19.144021

> <b_lp_Chiralities_Consistent>
1

> <s_lp_Variant>
373327-1

> <s_i_glide_gridfile>
glide-grid_1sj0

> <i_i_glide_lignum>
1512

> <i_i_glide_rotatable_bonds>
6

> <r_i_docking_score>
-9.61174591492614

> <r_i_glide_ligand_efficiency>
-0.400489413121923

> <r_i_glide_ligand_efficiency_sa>
-1.15521136675174

> <r_i_glide_ligand_efficiency_ln>
-2.30053185172238

> <r_i_glide_gscore>
-9.61174591492614

> <r_i_glide_lipo>
-3.93666064595754

> <r_i_glide_hbond>
-0.456

> <r_i_glide_metal>
0

> <r_i_glide_rewards>
-3.09948394753153

> <r_i_glide_evdw>
-27.9636535644531

> <r_i_glide_ecoul>
-8.18456077575684

> <r_i_glide_erotb>
0.506265473149111

> <r_i_glide_esite>
0

> <r_i_glide_emodel>
-50.3597043349637

> <r_i_glide_energy>
-36.14821434021

> <r_i_glide_einternal>
7.0147180557251

> <i_i_glide_confnum>
2

> <i_i_glide_posenum>
265

> <r_i_glide_eff_state_penalty>
0

> <s_user_duplicate_titles>
373327

> <s_m_subgroup_title>
dock_pv

> <s_m_subgroupid>
dock_pv1

> <b_m_subgroup_collapsed>
0

$$$$
357061
                    3D
 Schrodinger Suite 2021-1.
 44 48  0  0  1  0            999 V2000
   31.7240    1.7352   30.1685 C   0  0  0  0  0  0
   32.2121    0.6305   29.2408 C   0  0  0  0  0  0
   31.3928   -0.0023   28.3656 C   0  0  0  0  0  0
   29.9934    0.2810   28.0245 C   0  0  0  0  0  0
   29.2215    1.4291   28.2098 C   0  0  0  0  0  0
   27.8732    1.4616   27.8634 C   0  0  0  0  0  0
   27.3168    0.2768   27.3991 C   0  0  0  0  0  0
   28.0844   -0.8873   27.1830 C   0  0  0  0  0  0
   29.4501   -0.8740   27.4737 C   0  0  0  0  0  0
   30.4679   -1.9754   27.4137 C   0  0  0  0  0  0
   31.8052   -1.2154   27.5139 C   0  0  2  0  0  0
   32.8818   -1.9771   28.3374 C   0  0  0  0  0  0
   34.0597   -1.0636   28.7530 C   0  0  0  0  0  0
   33.6184    0.2440   29.4180 C   0  0  0  0  0  0
   34.4605    1.0197   29.8640 O   0  0  0  0  0  0
   32.2975   -0.7089   26.1101 C   0  0  0  0  0  0
   32.3863   -1.7429   24.9826 C   0  0  0  0  0  0
   33.3063   -2.7906   25.0388 C   0  0  0  0  0  0
   33.3931   -3.7037   23.9963 C   0  0  0  0  0  0
   32.5827   -3.5713   22.8821 C   0  0  0  0  0  0
   31.6607   -2.5414   22.8125 C   0  0  0  0  0  0
   31.5565   -1.6258   23.8620 C   0  0  0  0  0  0
   32.6852   -4.4528   21.8674 F   0  0  0  0  0  0
   27.2725   -1.8729   26.7197 N   0  0  0  0  0  0
   26.0051   -1.3427   26.6520 N   0  0  0  0  0  0
   26.0344   -0.0802   27.0644 N   0  0  0  0  0  0
   25.2013    0.4956   27.0510 H   0  0  0  0  0  0
   32.3523    1.8616   31.0522 H   0  0  0  0  0  0
   31.6783    2.6671   29.6165 H   0  0  0  0  0  0
   30.7247    1.5083   30.5415 H   0  0  0  0  0  0
   29.6553    2.3256   28.6216 H   0  0  0  0  0  0
   27.2686    2.3316   28.0397 H   0  0  0  0  0  0
   30.3931   -2.5946   26.5202 H   0  0  0  0  0  0
   30.3058   -2.6318   28.2654 H   0  0  0  0  0  0
   32.4310   -2.3638   29.2501 H   0  0  0  0  0  0
   33.2381   -2.8650   27.8206 H   0  0  0  0  0  0
   34.5836   -0.7385   27.8619 H   0  0  0  0  0  0
   34.7778   -1.5687   29.3997 H   0  0  0  0  0  0
   33.2552   -0.1983   26.2007 H   0  0  0  0  0  0
   31.6289    0.0824   25.7667 H   0  0  0  0  0  0
   33.9872   -2.8950   25.8648 H   0  0  0  0  0  0
   34.0609   -4.5409   24.0503 H   0  0  0  0  0  0
   31.0180   -2.4973   21.9474 H   0  0  0  0  0  0
   30.8291   -0.8298   23.8020 H   0  0  0  0  0  0
  1  2  1  0  0  0
  1 28  1  0  0  0
  1 29  1  0  0  0
  1 30  1  0  0  0
  2 14  1  0  0  0
  2  3  2  0  0  0
  3 11  1  0  0  0
  3  4  1  0  0  0
  4  9  2  0  0  0
  4  5  1  0  0  0
  5  6  2  0  0  0
  5 31  1  0  0  0
  6  7  1  0  0  0
  6 32  1  0  0  0
  7 26  1  0  0  0
  7  8  2  0  0  0
  8  9  1  0  0  0
  8 24  1  0  0  0
  9 10  1  0  0  0
 10 11  1  0  0  0
 10 33  1  0  0  0
 10 34  1  0  0  0
 11 12  1  0  0  0
 11 16  1  0  0  0
 12 13  1  0  0  0
 12 35  1  0  0  0
 12 36  1  0  0  0
 13 14  1  0  0  0
 13 37  1  0  0  0
 13 38  1  0  0  0
 14 15  2  0  0  0
 16 17  1  0  0  0
 16 39  1  0  0  0
 16 40  1  0  0  0
 17 22  1  0  0  0
 17 18  2  0  0  0
 18 19  1  0  0  0
 18 41  1  0  0  0
 19 20  2  0  0  0
 19 42  1  0  0  0
 20 21  1  0  0  0
 20 23  1  0  0  0
 21 22  2  0  0  0
 21 43  1  0  0  0
 22 44  1  0  0  0
 24 25  2  0  0  0
 25 26  1  0  0  0
 26 27  1  0  0  0
M  END
> <s_m_entry_id>
17206

> <s_m_entry_name>
ligand_docking-pose.133

> <s_m_Source_Path>
/home/csk/Desktop/cluster/DUD-E-result/esr1

> <s_m_Source_File>
ligand_docking-pose.sdf

> <i_m_Source_File_Index>
133

> <i_lp_mmshare_version>
53161

> <i_f3d_flags>
0

> <r_lp_tautomer_probability>
0.25

> <s_lp_Force_Field>
OPLS_2005

> <r_lp_Energy>
48.409755

> <b_lp_Chiralities_Consistent>
1

> <s_lp_Variant>
357061-4

> <s_i_glide_gridfile>
glide-grid_1sj0

> <i_i_glide_lignum>
857

> <i_i_glide_rotatable_bonds>
2

> <r_i_docking_score>
-9.60052899667138

> <r_i_glide_ligand_efficiency>
-0.369251115256591

> <r_i_glide_ligand_efficiency_sa>
-1.09390497601467

> <r_i_glide_ligand_efficiency_ln>
-2.25465273296322

> <r_i_glide_gscore>
-9.60052899667138

> <r_i_glide_lipo>
-5.16698119160777

> <r_i_glide_hbond>
-0.278826778535702

> <r_i_glide_metal>
0

> <r_i_glide_rewards>
-2.32020794389267

> <r_i_glide_evdw>
-39.3554916381836

> <r_i_glide_ecoul>
-0.114853411912918

> <r_i_glide_erotb>
0.31528436735487

> <r_i_glide_esite>
-0.164794856293987

> <r_i_glide_emodel>
-54.2859896793132

> <r_i_glide_energy>
-39.4703450500965

> <r_i_glide_einternal>
1.70862436294556

> <i_i_glide_confnum>
4

> <i_i_glide_posenum>
298

> <r_i_glide_eff_state_penalty>
0

> <s_user_duplicate_titles>
357061

> <s_m_subgroup_title>
dock_pv

> <s_m_subgroupid>
dock_pv1

> <b_m_subgroup_collapsed>
0

$$$$
373279
                    3D
 Schrodinger Suite 2021-1.
 39 42  0  0  1  0            999 V2000
   32.5740   -2.4516   22.8197 C   0  0  0  0  0  0
   33.2928   -3.4507   23.4635 C   0  0  0  0  0  0
   33.4715   -3.3831   24.8413 C   0  0  0  0  0  0
   32.8969   -2.3521   25.5817 C   0  0  0  0  0  0
   32.2008   -1.3370   24.9236 C   0  0  0  0  0  0
   32.0555   -1.3841   23.5476 C   0  0  0  0  0  0
   33.1447   -2.2898   27.0868 C   0  0  0  0  0  0
   32.1627   -1.5628   27.8649 N   0  0  0  0  0  0
   32.3122   -0.5481   28.8039 C   0  0  0  0  0  0
   30.9809   -0.1296   29.0680 C   0  0  0  0  0  0
   30.7578    0.9245   29.9680 C   0  0  0  0  0  0
   31.8369    1.4580   30.6576 C   0  0  0  0  0  0
   33.1337    1.0533   30.3770 C   0  0  0  0  0  0
   33.4116    0.0802   29.4208 C   0  0  0  0  0  0
   35.0580   -0.2677   29.0640 Cl  0  0  0  0  0  0
   30.1618   -0.9675   28.2449 C   0  0  0  0  0  0
   30.8804   -1.8667   27.6466 N   0  0  0  0  0  0
   28.7195   -0.8893   27.9413 C   0  0  0  0  0  0
   28.1336    0.3702   27.8600 C   0  0  0  0  0  0
   26.8128    0.4808   27.4639 C   0  0  0  0  0  0
   26.0783   -0.6619   27.1546 C   0  0  0  0  0  0
   26.6411   -1.9241   27.2967 C   0  0  0  0  0  0
   27.9688   -2.0421   27.6852 C   0  0  0  0  0  0
   24.8012   -0.5420   26.6839 O   0  0  0  0  0  0
   32.4434   -2.4925   21.7479 H   0  0  0  0  0  0
   33.7198   -4.2634   22.8945 H   0  0  0  0  0  0
   34.0587   -4.1419   25.3322 H   0  0  0  0  0  0
   31.7952   -0.4947   25.4648 H   0  0  0  0  0  0
   31.5510   -0.5704   23.0637 H   0  0  0  0  0  0
   33.2617   -3.2829   27.5235 H   0  0  0  0  0  0
   34.0599   -1.7419   27.1832 H   0  0  0  0  0  0
   29.7581    1.2749   30.1772 H   0  0  0  0  0  0
   31.6678    2.2309   31.3937 H   0  0  0  0  0  0
   33.9533    1.5305   30.8941 H   0  0  0  0  0  0
   28.7045    1.2673   28.0484 H   0  0  0  0  0  0
   26.3794    1.4618   27.3778 H   0  0  0  0  0  0
   26.0605   -2.8057   27.0664 H   0  0  0  0  0  0
   28.4194   -3.0225   27.7504 H   0  0  0  0  0  0
   24.5437    0.3834   26.5834 H   0  0  0  0  0  0
  1  6  1  0  0  0
  1  2  2  0  0  0
  1 25  1  0  0  0
  2  3  1  0  0  0
  2 26  1  0  0  0
  3  4  2  0  0  0
  3 27  1  0  0  0
  4  5  1  0  0  0
  4  7  1  0  0  0
  5  6  2  0  0  0
  5 28  1  0  0  0
  6 29  1  0  0  0
  7  8  1  0  0  0
  7 30  1  0  0  0
  7 31  1  0  0  0
  8 17  1  0  0  0
  8  9  1  0  0  0
  9 14  2  0  0  0
  9 10  1  0  0  0
 10 11  2  0  0  0
 10 16  1  0  0  0
 11 12  1  0  0  0
 11 32  1  0  0  0
 12 13  2  0  0  0
 12 33  1  0  0  0
 13 14  1  0  0  0
 13 34  1  0  0  0
 14 15  1  0  0  0
 16 17  2  0  0  0
 16 18  1  0  0  0
 18 23  1  0  0  0
 18 19  2  0  0  0
 19 20  1  0  0  0
 19 35  1  0  0  0
 20 21  2  0  0  0
 20 36  1  0  0  0
 21 22  1  0  0  0
 21 24  1  0  0  0
 22 23  2  0  0  0
 22 37  1  0  0  0
 23 38  1  0  0  0
 24 39  1  0  0  0
M  END
> <s_m_entry_id>
17207

> <s_m_entry_name>
ligand_docking-pose.134

> <s_m_Source_Path>
/home/csk/Desktop/cluster/DUD-E-result/esr1

> <s_m_Source_File>
ligand_docking-pose.sdf

> <i_m_Source_File_Index>
134

> <i_lp_mmshare_version>
53161

> <i_f3d_flags>
0

> <r_lp_tautomer_probability>
0.999999999997365

> <s_lp_Force_Field>
OPLS_2005

> <r_lp_Energy>
21.318596

> <b_lp_Chiralities_Consistent>
1

> <s_lp_Variant>
373279-1

> <s_i_glide_gridfile>
glide-grid_1sj0

> <i_i_glide_lignum>
577

> <i_i_glide_rotatable_bonds>
4

> <r_i_docking_score>
-9.59218920709974

> <r_i_glide_ligand_efficiency>
-0.399674550295822

> <r_i_glide_ligand_efficiency_sa>
-1.15286089563263

> <r_i_glide_ligand_efficiency_ln>
-2.29585103414067

> <r_i_glide_gscore>
-9.59218920709974

> <r_i_glide_lipo>
-5.07333666964868

> <r_i_glide_hbond>
-0.386502629856357

> <r_i_glide_metal>
0

> <r_i_glide_rewards>
-2.31070527191456

> <r_i_glide_evdw>
-37.7463188171387

> <r_i_glide_ecoul>
-2.92827033996582

> <r_i_glide_erotb>
0.504911856171671

> <r_i_glide_esite>
0

> <r_i_glide_emodel>
-49.8391039901963

> <r_i_glide_energy>
-40.6745891571045

> <r_i_glide_einternal>
6.83002710342407

> <i_i_glide_confnum>
16

> <i_i_glide_posenum>
248

> <r_i_glide_eff_state_penalty>
0

> <s_user_duplicate_titles>
373279

> <s_m_subgroup_title>
dock_pv

> <s_m_subgroupid>
dock_pv1

> <b_m_subgroup_collapsed>
0

$$$$
150035
                    3D
 Schrodinger Suite 2021-1.
 45 48  0  0  1  0            999 V2000
   33.6600   -3.7332   24.5859 C   0  0  0  0  0  0
   33.1581   -3.5089   25.8640 C   0  0  0  0  0  0
   32.2507   -2.4853   26.0703 C   0  0  0  0  0  0
   31.8695   -1.6810   24.9931 C   0  0  0  0  0  0
   32.3751   -1.9299   23.7105 C   0  0  0  0  0  0
   33.2798   -2.9558   23.5045 C   0  0  0  0  0  0
   30.8178   -0.6279   25.1549 C   0  0  0  0  0  0
   29.9922   -0.5420   24.2640 O   0  0  0  0  0  0
   30.7833    0.1752   26.2430 N   0  0  0  0  0  0
   31.9908    0.5084   27.0079 C   0  0  0  0  0  0
   31.6331    0.7922   28.4538 C   0  0  0  0  0  0
   32.6304    0.7791   29.4297 C   0  0  0  0  0  0
   32.3155    1.0747   30.7483 C   0  0  0  0  0  0
   31.0325    1.4216   31.1065 C   0  0  0  0  0  0
   30.0457    1.4580   30.1361 C   0  0  0  0  0  0
   30.3031    1.0897   28.8251 C   0  0  0  0  0  0
   29.1496    0.9816   27.8232 C   0  0  1  0  0  0
   29.6600    1.1283   26.4019 C   0  0  0  0  0  0
   28.3299   -0.3033   27.8891 C   0  0  0  0  0  0
   26.9894   -0.2528   27.4976 C   0  0  0  0  0  0
   26.2368   -1.4158   27.4677 C   0  0  0  0  0  0
   26.8245   -2.6200   27.8369 C   0  0  0  0  0  0
   28.1678   -2.6942   28.1908 C   0  0  0  0  0  0
   28.9200   -1.5271   28.2325 C   0  0  0  0  0  0
   26.0600   -3.7420   27.8640 O   0  0  0  0  0  0
   33.2600    1.0581   31.7111 O   0  0  0  0  0  0
   34.3403   -4.5420   24.4184 H   0  0  0  0  0  0
   33.4380   -4.1525   26.6844 H   0  0  0  0  0  0
   31.8279   -2.3457   27.0553 H   0  0  0  0  0  0
   32.0584   -1.3416   22.8621 H   0  0  0  0  0  0
   33.6672   -3.1589   22.5165 H   0  0  0  0  0  0
   32.7658   -0.2539   26.9667 H   0  0  0  0  0  0
   32.4376    1.4064   26.5789 H   0  0  0  0  0  0
   33.6486    0.5405   29.1581 H   0  0  0  0  0  0
   30.8006    1.6601   32.1340 H   0  0  0  0  0  0
   29.0363    1.7010   30.4163 H   0  0  0  0  0  0
   28.4593    1.8054   28.0176 H   0  0  0  0  0  0
   30.0261    2.1448   26.2640 H   0  0  0  0  0  0
   28.8538    0.9894   25.6785 H   0  0  0  0  0  0
   26.5324    0.6807   27.2010 H   0  0  0  0  0  0
   25.2043   -1.3821   27.1574 H   0  0  0  0  0  0
   28.6125   -3.6433   28.4519 H   0  0  0  0  0  0
   29.9620   -1.5811   28.5097 H   0  0  0  0  0  0
   25.3964   -3.7420   27.1524 H   0  0  0  0  0  0
   34.1043    0.7534   31.3752 H   0  0  0  0  0  0
  1  6  1  0  0  0
  1  2  2  0  0  0
  1 27  1  0  0  0
  2  3  1  0  0  0
  2 28  1  0  0  0
  3  4  2  0  0  0
  3 29  1  0  0  0
  4  5  1  0  0  0
  4  7  1  0  0  0
  5  6  2  0  0  0
  5 30  1  0  0  0
  6 31  1  0  0  0
  7  8  2  0  0  0
  7  9  1  0  0  0
  9 18  1  0  0  0
  9 10  1  0  0  0
 10 11  1  0  0  0
 10 32  1  0  0  0
 10 33  1  0  0  0
 11 16  2  0  0  0
 11 12  1  0  0  0
 12 13  2  0  0  0
 12 34  1  0  0  0
 13 14  1  0  0  0
 13 26  1  0  0  0
 14 15  2  0  0  0
 14 35  1  0  0  0
 15 16  1  0  0  0
 15 36  1  0  0  0
 16 17  1  0  0  0
 17 18  1  0  0  0
 17 19  1  0  0  0
 17 37  1  0  0  0
 18 38  1  0  0  0
 18 39  1  0  0  0
 19 24  1  0  0  0
 19 20  2  0  0  0
 20 21  1  0  0  0
 20 40  1  0  0  0
 21 22  2  0  0  0
 21 41  1  0  0  0
 22 23  1  0  0  0
 22 25  1  0  0  0
 23 24  2  0  0  0
 23 42  1  0  0  0
 24 43  1  0  0  0
 25 44  1  0  0  0
 26 45  1  0  0  0
M  END
> <s_m_entry_id>
17208

> <s_m_entry_name>
ligand_docking-pose.135

> <s_m_Source_Path>
/home/csk/Desktop/cluster/DUD-E-result/esr1

> <s_m_Source_File>
ligand_docking-pose.sdf

> <i_m_Source_File_Index>
135

> <i_lp_mmshare_version>
53161

> <i_f3d_flags>
0

> <r_lp_tautomer_probability>
0.99999999999473

> <s_lp_Force_Field>
OPLS_2005

> <r_lp_Energy>
32.816935

> <b_lp_Chiralities_Consistent>
1

> <s_lp_Variant>
150035-1

> <s_i_glide_gridfile>
glide-grid_1sj0

> <i_i_glide_lignum>
596

> <i_i_glide_rotatable_bonds>
5

> <r_i_docking_score>
-9.58574571588968

> <r_i_glide_ligand_efficiency>
-0.368682527534219

> <r_i_glide_ligand_efficiency_sa>
-1.09222053712443

> <r_i_glide_ligand_efficiency_ln>
-2.25118092797954

> <r_i_glide_gscore>
-9.58574571588968

> <r_i_glide_lipo>
-5.36051426947871

> <r_i_glide_hbond>
-0.16

> <r_i_glide_metal>
0

> <r_i_glide_rewards>
-2.48336073416287

> <r_i_glide_evdw>
-24.8519382476807

> <r_i_glide_ecoul>
-5.44707345962524

> <r_i_glide_erotb>
0.477787219079714

> <r_i_glide_esite>
0

> <r_i_glide_emodel>
-35.0569589952016

> <r_i_glide_energy>
-30.2990117073059

> <r_i_glide_einternal>
5.46617221832275

> <i_i_glide_confnum>
34

> <i_i_glide_posenum>
340

> <r_i_glide_eff_state_penalty>
0

> <s_user_duplicate_titles>
150035

> <s_m_subgroup_title>
dock_pv

> <s_m_subgroupid>
dock_pv1

> <b_m_subgroup_collapsed>
0

$$$$
615128
                    3D
 Schrodinger Suite 2021-1.
 59 63  0  0  1  0            999 V2000
   35.9906   -1.6454   20.5508 C   0  0  0  0  0  0
   35.7007   -2.9412   19.9420 N   0  0  0  0  0  0
   35.9374   -2.8746   18.5020 C   0  0  0  0  0  0
   34.3322   -3.4212   20.1928 C   0  0  0  0  0  0
   33.9629   -3.5790   21.6839 C   0  0  0  0  0  0
   33.2617   -2.4203   22.1421 O   0  0  0  0  0  0
   32.7574   -2.3911   23.4279 C   0  0  0  0  0  0
   33.0663   -3.3422   24.4045 C   0  0  0  0  0  0
   32.4826   -3.2656   25.6622 C   0  0  0  0  0  0
   31.5867   -2.2339   25.9618 C   0  0  0  0  0  0
   31.3016   -1.2627   25.0094 C   0  0  0  0  0  0
   31.8965   -1.3421   23.7582 C   0  0  0  0  0  0
   30.9288   -2.1771   27.3304 C   0  0  1  0  0  0
   31.1567   -0.9096   28.1578 C   0  0  0  0  0  0
   30.1178   -0.1381   28.5196 C   0  0  0  0  0  0
   30.3108    1.0890   29.4002 C   0  0  0  0  0  0
   31.0097    2.2032   28.6326 C   0  0  0  0  0  0
   32.0602    1.7924   27.7552 O   0  0  0  0  0  0
   32.9326    0.8620   28.2611 C   0  0  0  0  0  0
   32.5329   -0.4768   28.4721 C   0  0  0  0  0  0
   33.4287   -1.3735   29.0510 C   0  0  0  0  0  0
   34.6932   -0.9419   29.4183 C   0  0  0  0  0  0
   35.0854    0.3656   29.1934 C   0  0  0  0  0  0
   34.2216    1.2637   28.5903 C   0  0  0  0  0  0
   28.8092   -0.3990   27.9253 C   0  0  0  0  0  0
   27.8164    0.5769   27.8640 C   0  0  0  0  0  0
   26.5424    0.2323   27.4537 C   0  0  0  0  0  0
   26.2694   -1.0539   27.0146 C   0  0  0  0  0  0
   27.2864   -2.0052   26.9329 C   0  0  0  0  0  0
   28.5653   -1.6616   27.3731 C   0  0  0  0  0  0
   29.5520   -2.6283   27.3307 O   0  0  0  0  0  0
   24.9878   -1.3420   26.6640 O   0  0  0  0  0  0
   31.4573   -2.9420   27.8640 H   0  0  0  0  0  0
   36.0595   -1.7437   21.6334 H   0  0  0  0  0  0
   36.9569   -1.2625   20.2192 H   0  0  0  0  0  0
   35.2289   -0.9023   20.3076 H   0  0  0  0  0  0
   35.7800   -3.8494   18.0385 H   0  0  0  0  0  0
   35.2740   -2.1569   18.0166 H   0  0  0  0  0  0
   36.9666   -2.5818   18.2906 H   0  0  0  0  0  0
   33.6102   -2.7610   19.7082 H   0  0  0  0  0  0
   34.2185   -4.3970   19.7165 H   0  0  0  0  0  0
   33.3205   -4.4551   21.7978 H   0  0  0  0  0  0
   34.8610   -3.7513   22.2757 H   0  0  0  0  0  0
   33.7398   -4.1594   24.2014 H   0  0  0  0  0  0
   32.7208   -4.0253   26.3926 H   0  0  0  0  0  0
   30.6250   -0.4513   25.2367 H   0  0  0  0  0  0
   31.6735   -0.5652   23.0515 H   0  0  0  0  0  0
   29.3872    1.4336   29.8647 H   0  0  0  0  0  0
   30.9385    0.7968   30.2440 H   0  0  0  0  0  0
   30.2407    2.6580   28.0139 H   0  0  0  0  0  0
   31.4079    2.9196   29.3519 H   0  0  0  0  0  0
   33.1524   -2.3993   29.2429 H   0  0  0  0  0  0
   35.3879   -1.6360   29.8639 H   0  0  0  0  0  0
   36.0600    0.6789   29.5096 H   0  0  0  0  0  0
   34.5397    2.2788   28.4129 H   0  0  0  0  0  0
   27.9863    1.5878   28.2008 H   0  0  0  0  0  0
   25.7631    0.9728   27.4639 H   0  0  0  0  0  0
   27.0840   -2.9986   26.5585 H   0  0  0  0  0  0
   24.8605   -2.2345   26.2641 H   0  0  0  0  0  0
  1  2  1  0  0  0
  1 34  1  0  0  0
  1 35  1  0  0  0
  1 36  1  0  0  0
  2  3  1  0  0  0
  2  4  1  0  0  0
  3 37  1  0  0  0
  3 38  1  0  0  0
  3 39  1  0  0  0
  4  5  1  0  0  0
  4 40  1  0  0  0
  4 41  1  0  0  0
  5  6  1  0  0  0
  5 42  1  0  0  0
  5 43  1  0  0  0
  6  7  1  0  0  0
  7 12  1  0  0  0
  7  8  2  0  0  0
  8  9  1  0  0  0
  8 44  1  0  0  0
  9 10  2  0  0  0
  9 45  1  0  0  0
 10 11  1  0  0  0
 10 13  1  0  0  0
 11 12  2  0  0  0
 11 46  1  0  0  0
 12 47  1  0  0  0
 13 33  1  0  0  0
 13 31  1  0  0  0
 13 14  1  0  0  0
 14 20  1  0  0  0
 14 15  2  0  0  0
 15 16  1  0  0  0
 15 25  1  0  0  0
 16 17  1  0  0  0
 16 48  1  0  0  0
 16 49  1  0  0  0
 17 18  1  0  0  0
 17 50  1  0  0  0
 17 51  1  0  0  0
 18 19  1  0  0  0
 19 24  2  0  0  0
 19 20  1  0  0  0
 20 21  2  0  0  0
 21 22  1  0  0  0
 21 52  1  0  0  0
 22 23  2  0  0  0
 22 53  1  0  0  0
 23 24  1  0  0  0
 23 54  1  0  0  0
 24 55  1  0  0  0
 25 30  2  0  0  0
 25 26  1  0  0  0
 26 27  2  0  0  0
 26 56  1  0  0  0
 27 28  1  0  0  0
 27 57  1  0  0  0
 28 29  2  0  0  0
 28 32  1  0  0  0
 29 30  1  0  0  0
 29 58  1  0  0  0
 30 31  1  0  0  0
 32 59  1  0  0  0
M  END
> <s_m_entry_id>
17209

> <s_m_entry_name>
ligand_docking-pose.136

> <s_m_Source_Path>
/home/csk/Desktop/cluster/DUD-E-result/esr1

> <s_m_Source_File>
ligand_docking-pose.sdf

> <i_m_Source_File_Index>
136

> <i_lp_mmshare_version>
53161

> <i_f3d_flags>
0

> <r_lp_tautomer_probability>
1

> <s_lp_Force_Field>
OPLS_2005

> <r_lp_Energy>
51.425553

> <b_lp_Chiralities_Consistent>
1

> <s_lp_Variant>
615128-1

> <s_i_glide_gridfile>
glide-grid_1sj0

> <i_i_glide_lignum>
1734

> <i_i_glide_rotatable_bonds>
6

> <r_i_docking_score>
-9.5750445537773

> <r_i_glide_ligand_efficiency>
-0.299220142305541

> <r_i_glide_ligand_efficiency_sa>
-0.949964736234337

> <r_i_glide_ligand_efficiency_ln>
-2.14411348144756

> <r_i_glide_gscore>
-9.5750445537773

> <r_i_glide_lipo>
-5.4498576238647

> <r_i_glide_hbond>
-0.281095953838358

> <r_i_glide_metal>
0

> <r_i_glide_rewards>
-1.37831721406516

> <r_i_glide_evdw>
-30.7606468200684

> <r_i_glide_ecoul>
-8.19583988189697

> <r_i_glide_erotb>
0.301634561278882

> <r_i_glide_esite>
0

> <r_i_glide_emodel>
-44.5691994225613

> <r_i_glide_energy>
-38.9564867019653

> <r_i_glide_einternal>
3.37224745750427

> <i_i_glide_confnum>
1

> <i_i_glide_posenum>
3

> <r_i_glide_eff_state_penalty>
0

> <s_user_duplicate_titles>
615128

> <s_m_subgroup_title>
dock_pv

> <s_m_subgroupid>
dock_pv1

> <b_m_subgroup_collapsed>
0

$$$$
224402
                    3D
 Schrodinger Suite 2021-1.
 40 43  0  0  1  0            999 V2000
   32.2508    0.5651   30.6861 C   0  0  0  0  0  0
   32.7734    0.8108   29.2357 C   0  0  2  0  0  0
   31.9614    1.9129   28.5334 C   0  0  0  0  0  0
   30.4576    1.5902   28.4771 C   0  0  0  0  0  0
   30.1682    0.1326   28.0838 C   0  0  0  0  0  0
   28.8306   -0.2512   27.7727 C   0  0  0  0  0  0
   27.7567    0.6723   27.7863 C   0  0  0  0  0  0
   26.4766    0.2606   27.4640 C   0  0  0  0  0  0
   26.2184   -1.0351   27.0687 C   0  0  0  0  0  0
   27.2289   -1.9849   27.0637 C   0  0  0  0  0  0
   28.5450   -1.6072   27.4249 C   0  0  0  0  0  0
   29.5885   -2.5420   27.4183 C   0  0  0  0  0  0
   30.8885   -2.1420   27.6789 C   0  0  0  0  0  0
   31.1943   -0.8327   28.0374 C   0  0  0  0  0  0
   32.6346   -0.4014   28.2979 C   0  0  2  0  0  0
   33.6600   -1.3770   28.8351 C   0  0  0  0  0  0
   34.8740   -0.4588   29.0640 C   0  0  0  0  0  0
   34.3281    0.9803   29.2731 C   0  0  1  0  0  0
   34.8600    1.8263   28.2639 O   0  0  0  0  0  0
   24.9566   -1.3420   26.6640 O   0  0  0  0  0  0
   32.9648   -0.1450   27.2862 H   0  0  0  0  0  0
   34.6415    1.3555   30.2491 H   0  0  0  0  0  0
   31.2434    0.1506   30.7059 H   0  0  0  0  0  0
   32.8822   -0.1275   31.2432 H   0  0  0  0  0  0
   32.2304    1.4955   31.2550 H   0  0  0  0  0  0
   32.0600    2.8558   29.0640 H   0  0  0  0  0  0
   32.3419    2.0975   27.5267 H   0  0  0  0  0  0
   30.0017    2.2674   27.7558 H   0  0  0  0  0  0
   29.9904    1.7983   29.4409 H   0  0  0  0  0  0
   27.9105    1.7056   28.0559 H   0  0  0  0  0  0
   25.6780    0.9792   27.4640 H   0  0  0  0  0  0
   27.0210   -3.0025   26.7629 H   0  0  0  0  0  0
   29.3652   -3.5624   27.1545 H   0  0  0  0  0  0
   31.6809   -2.8670   27.5703 H   0  0  0  0  0  0
   33.8023   -2.2223   28.1686 H   0  0  0  0  0  0
   33.3019   -1.8398   29.7549 H   0  0  0  0  0  0
   35.5143   -0.5056   28.1833 H   0  0  0  0  0  0
   35.4888   -0.8097   29.8832 H   0  0  0  0  0  0
   35.8212    1.8091   28.3323 H   0  0  0  0  0  0
   24.8600   -2.2385   26.2640 H   0  0  0  0  0  0
  1  2  1  0  0  0
  1 23  1  0  0  0
  1 24  1  0  0  0
  1 25  1  0  0  0
  2 15  1  0  0  0
  2 18  1  0  0  0
  2  3  1  0  0  0
  3  4  1  0  0  0
  3 26  1  0  0  0
  3 27  1  0  0  0
  4  5  1  0  0  0
  4 28  1  0  0  0
  4 29  1  0  0  0
  5 14  2  0  0  0
  5  6  1  0  0  0
  6 11  1  0  0  0
  6  7  2  0  0  0
  7  8  1  0  0  0
  7 30  1  0  0  0
  8  9  2  0  0  0
  8 31  1  0  0  0
  9 10  1  0  0  0
  9 20  1  0  0  0
 10 11  2  0  0  0
 10 32  1  0  0  0
 11 12  1  0  0  0
 12 13  2  0  0  0
 12 33  1  0  0  0
 13 14  1  0  0  0
 13 34  1  0  0  0
 14 15  1  0  0  0
 15 21  1  0  0  0
 15 16  1  0  0  0
 16 17  1  0  0  0
 16 35  1  0  0  0
 16 36  1  0  0  0
 17 18  1  0  0  0
 17 37  1  0  0  0
 17 38  1  0  0  0
 18 22  1  0  0  0
 18 19  1  0  0  0
 19 39  1  0  0  0
 20 40  1  0  0  0
M  END
> <s_m_entry_id>
17210

> <s_m_entry_name>
ligand_docking-pose.137

> <s_m_Source_Path>
/home/csk/Desktop/cluster/DUD-E-result/esr1

> <s_m_Source_File>
ligand_docking-pose.sdf

> <i_m_Source_File_Index>
137

> <i_lp_mmshare_version>
53161

> <i_f3d_flags>
0

> <r_lp_tautomer_probability>
1

> <s_lp_Force_Field>
OPLS_2005

> <r_lp_Energy>
44.883718

> <b_lp_Chiralities_Consistent>
1

> <s_lp_Variant>
224402-1

> <s_i_glide_gridfile>
glide-grid_1sj0

> <i_i_glide_lignum>
739

> <i_i_glide_rotatable_bonds>
2

> <r_i_docking_score>
-9.56845898398121

> <r_i_glide_ligand_efficiency>
-0.47842294919906

> <r_i_glide_ligand_efficiency_sa>
-1.29863968019243

> <r_i_glide_ligand_efficiency_ln>
-2.39466969479178

> <r_i_glide_gscore>
-9.56845898398121

> <r_i_glide_lipo>
-4.01546564967571

> <r_i_glide_hbond>
-0.377436514098419

> <r_i_glide_metal>
0

> <r_i_glide_rewards>
-2.47943045454545

> <r_i_glide_evdw>
-24.4498023986816

> <r_i_glide_ecoul>
-9.82424163818359

> <r_i_glide_erotb>
0

> <r_i_glide_esite>
0

> <r_i_glide_emodel>
-50.4447447073009

> <r_i_glide_energy>
-34.2740440368652

> <r_i_glide_einternal>
0.180808290839195

> <i_i_glide_confnum>
1

> <i_i_glide_posenum>
275

> <r_i_glide_eff_state_penalty>
0

> <s_user_duplicate_titles>
224402

> <s_m_subgroup_title>
dock_pv

> <s_m_subgroupid>
dock_pv1

> <b_m_subgroup_collapsed>
0

$$$$
356846
                    3D
 Schrodinger Suite 2021-1.
 45 49  0  0  1  0            999 V2000
   31.7197    1.7374   30.1726 C   0  0  0  0  0  0
   32.2131    0.6369   29.2433 C   0  0  0  0  0  0
   31.3976   -0.0009   28.3683 C   0  0  0  0  0  0
   29.9986    0.2774   28.0278 C   0  0  0  0  0  0
   29.2280    1.4245   28.2097 C   0  0  0  0  0  0
   27.8820    1.4498   27.8636 C   0  0  0  0  0  0
   27.3269    0.2610   27.4014 C   0  0  0  0  0  0
   28.0892   -0.9096   27.1937 C   0  0  0  0  0  0
   29.4549   -0.8811   27.4843 C   0  0  0  0  0  0
   30.4738   -1.9795   27.4319 C   0  0  0  0  0  0
   31.8101   -1.2187   27.5225 C   0  0  2  0  0  0
   32.8877   -1.9726   28.3489 C   0  0  0  0  0  0
   34.0607   -1.0517   28.7564 C   0  0  0  0  0  0
   33.6190    0.2550   29.4212 C   0  0  0  0  0  0
   34.4606    1.0331   29.8640 O   0  0  0  0  0  0
   32.3004   -0.7250   26.1137 C   0  0  0  0  0  0
   32.3831   -1.7635   24.9874 C   0  0  0  0  0  0
   33.2917   -2.8227   25.0426 C   0  0  0  0  0  0
   33.3729   -3.7366   23.9974 C   0  0  0  0  0  0
   32.5654   -3.5904   22.8813 C   0  0  0  0  0  0
   31.6604   -2.5422   22.8089 C   0  0  0  0  0  0
   31.5633   -1.6305   23.8621 C   0  0  0  0  0  0
   32.6604   -4.4736   21.8659 F   0  0  0  0  0  0
   27.1454   -1.8623   26.7234 C   0  0  0  0  0  0
   25.9484   -1.3421   26.6638 N   0  0  0  0  0  0
   26.0413   -0.0779   27.0656 N   0  0  0  0  0  0
   25.2277    0.5247   27.0600 H   0  0  0  0  0  0
   32.3453    1.8630   31.0584 H   0  0  0  0  0  0
   31.6716    2.6703   29.6222 H   0  0  0  0  0  0
   30.7214    1.5051   30.5446 H   0  0  0  0  0  0
   29.6603    2.3268   28.6119 H   0  0  0  0  0  0
   27.2792    2.3200   28.0312 H   0  0  0  0  0  0
   30.3990   -2.6084   26.5456 H   0  0  0  0  0  0
   30.3163   -2.6272   28.2908 H   0  0  0  0  0  0
   32.4384   -2.3506   29.2657 H   0  0  0  0  0  0
   33.2469   -2.8624   27.8389 H   0  0  0  0  0  0
   34.5786   -0.7206   27.8628 H   0  0  0  0  0  0
   34.7853   -1.5527   29.3994 H   0  0  0  0  0  0
   33.2594   -0.2184   26.1984 H   0  0  0  0  0  0
   31.6344    0.0683   25.7692 H   0  0  0  0  0  0
   33.9718   -2.9297   25.8683 H   0  0  0  0  0  0
   34.0601   -4.5548   24.0436 H   0  0  0  0  0  0
   31.0250   -2.4826   21.9395 H   0  0  0  0  0  0
   30.8480   -0.8236   23.7990 H   0  0  0  0  0  0
   27.3107   -2.8924   26.4411 H   0  0  0  0  0  0
  1  2  1  0  0  0
  1 28  1  0  0  0
  1 29  1  0  0  0
  1 30  1  0  0  0
  2 14  1  0  0  0
  2  3  2  0  0  0
  3 11  1  0  0  0
  3  4  1  0  0  0
  4  9  2  0  0  0
  4  5  1  0  0  0
  5  6  2  0  0  0
  5 31  1  0  0  0
  6  7  1  0  0  0
  6 32  1  0  0  0
  7 26  1  0  0  0
  7  8  2  0  0  0
  8  9  1  0  0  0
  8 24  1  0  0  0
  9 10  1  0  0  0
 10 11  1  0  0  0
 10 33  1  0  0  0
 10 34  1  0  0  0
 11 12  1  0  0  0
 11 16  1  0  0  0
 12 13  1  0  0  0
 12 35  1  0  0  0
 12 36  1  0  0  0
 13 14  1  0  0  0
 13 37  1  0  0  0
 13 38  1  0  0  0
 14 15  2  0  0  0
 16 17  1  0  0  0
 16 39  1  0  0  0
 16 40  1  0  0  0
 17 22  1  0  0  0
 17 18  2  0  0  0
 18 19  1  0  0  0
 18 41  1  0  0  0
 19 20  2  0  0  0
 19 42  1  0  0  0
 20 21  1  0  0  0
 20 23  1  0  0  0
 21 22  2  0  0  0
 21 43  1  0  0  0
 22 44  1  0  0  0
 24 25  2  0  0  0
 24 45  1  0  0  0
 25 26  1  0  0  0
 26 27  1  0  0  0
M  END
> <s_m_entry_id>
17211

> <s_m_entry_name>
ligand_docking-pose.138

> <s_m_Source_Path>
/home/csk/Desktop/cluster/DUD-E-result/esr1

> <s_m_Source_File>
ligand_docking-pose.sdf

> <i_m_Source_File_Index>
138

> <i_lp_mmshare_version>
53161

> <i_f3d_flags>
0

> <r_lp_tautomer_probability>
1

> <s_lp_Force_Field>
OPLS_2005

> <r_lp_Energy>
40.454911

> <b_lp_Chiralities_Consistent>
1

> <s_lp_Variant>
356846-1

> <s_i_glide_gridfile>
glide-grid_1sj0

> <i_i_glide_lignum>
848

> <i_i_glide_rotatable_bonds>
2

> <r_i_docking_score>
-9.56196523346593

> <r_i_glide_ligand_efficiency>
-0.367767893594843

> <r_i_glide_ligand_efficiency_sa>
-1.08951093767794

> <r_i_glide_ligand_efficiency_ln>
-2.24559615971245

> <r_i_glide_gscore>
-9.56196523346593

> <r_i_glide_lipo>
-5.15145798955912

> <r_i_glide_hbond>
-0.291581774075529

> <r_i_glide_metal>
0

> <r_i_glide_rewards>
-2.34609333396382

> <r_i_glide_evdw>
-38.8888969421387

> <r_i_glide_ecoul>
-0.370815366506577

> <r_i_glide_erotb>
0.316883524420928

> <r_i_glide_esite>
-0.0896485082054772

> <r_i_glide_emodel>
-44.6194036393494

> <r_i_glide_energy>
-39.2597123086452

> <r_i_glide_einternal>
1.5681471824646

> <i_i_glide_confnum>
4

> <i_i_glide_posenum>
360

> <r_i_glide_eff_state_penalty>
0

> <s_user_duplicate_titles>
356846

> <s_m_subgroup_title>
dock_pv

> <s_m_subgroupid>
dock_pv1

> <b_m_subgroup_collapsed>
0

$$$$
150267
                    3D
 Schrodinger Suite 2021-1.
 51 54  0  0  1  0            999 V2000
   35.1165    1.8618   27.6906 C   0  0  0  0  0  0
   34.1757    1.8574   26.6689 C   0  0  0  0  0  0
   32.9797    1.1930   26.8613 C   0  0  0  0  0  0
   32.6942    0.5757   28.0788 C   0  0  0  0  0  0
   33.6399    0.6075   29.1077 C   0  0  0  0  0  0
   34.8614    1.2357   28.9071 C   0  0  0  0  0  0
   31.4187    0.1111   28.3391 N   0  0  0  0  0  0
   30.6312    0.8917   29.2987 C   0  0  0  0  0  0
   29.3950    1.5718   28.6716 C   0  0  0  0  0  0
   28.5190    0.5851   27.9134 C   0  0  0  0  0  0
   27.1271    0.7238   27.8001 C   0  0  0  0  0  0
   26.3522   -0.2435   27.1527 C   0  0  0  0  0  0
   26.9688   -1.3082   26.5262 C   0  0  0  0  0  0
   28.3466   -1.3847   26.5618 C   0  0  0  0  0  0
   29.1396   -0.5067   27.3007 C   0  0  0  0  0  0
   30.6615   -0.6735   27.3336 C   0  0  2  0  0  0
   31.1014   -2.1700   27.2986 C   0  0  0  0  0  0
   31.7092   -2.7227   25.9688 C   0  0  0  0  0  0
   31.4660   -1.9006   24.6674 C   0  0  0  0  0  0
   32.1080   -2.5446   23.4289 C   0  0  0  0  0  0
   33.6157   -2.7089   23.6523 C   0  0  0  0  0  0
   33.9305   -3.5197   24.9016 C   0  0  0  0  0  0
   33.2109   -3.0000   26.1622 C   0  0  0  0  0  0
   24.9928   -0.1420   27.0636 O   0  0  0  0  0  0
   36.0532    2.3665   27.5344 H   0  0  0  0  0  0
   34.3882    2.3448   25.7289 H   0  0  0  0  0  0
   32.2665    1.1805   26.0652 H   0  0  0  0  0  0
   33.4197    0.1579   30.0656 H   0  0  0  0  0  0
   35.6025    1.2572   29.6933 H   0  0  0  0  0  0
   30.4572    0.2753   30.1782 H   0  0  0  0  0  0
   31.2418    1.6982   29.7092 H   0  0  0  0  0  0
   28.8598    2.0957   29.4578 H   0  0  0  0  0  0
   29.7307    2.3412   27.9757 H   0  0  0  0  0  0
   26.6439    1.5727   28.2597 H   0  0  0  0  0  0
   26.3960   -2.0371   25.9714 H   0  0  0  0  0  0
   28.8235   -2.1419   25.9949 H   0  0  0  0  0  0
   30.8912   -0.2235   26.3811 H   0  0  0  0  0  0
   30.2747   -2.8169   27.5935 H   0  0  0  0  0  0
   31.8067   -2.3435   28.1134 H   0  0  0  0  0  0
   31.2648   -3.6974   25.7714 H   0  0  0  0  0  0
   31.8899   -0.9021   24.7634 H   0  0  0  0  0  0
   30.4013   -1.7349   24.5001 H   0  0  0  0  0  0
   31.9270   -1.9271   22.5501 H   0  0  0  0  0  0
   31.6626   -3.5163   23.2217 H   0  0  0  0  0  0
   34.0551   -1.7431   23.8354 H   0  0  0  0  0  0
   34.1024   -3.1325   22.7713 H   0  0  0  0  0  0
   35.0046   -3.5221   25.0622 H   0  0  0  0  0  0
   33.6600   -4.5419   24.6996 H   0  0  0  0  0  0
   33.3470   -3.6966   26.9896 H   0  0  0  0  0  0
   33.6628   -2.0687   26.4893 H   0  0  0  0  0  0
   24.7000    0.7873   27.0609 H   0  0  0  0  0  0
  1  6  1  0  0  0
  1  2  2  0  0  0
  1 25  1  0  0  0
  2  3  1  0  0  0
  2 26  1  0  0  0
  3  4  2  0  0  0
  3 27  1  0  0  0
  4  5  1  0  0  0
  4  7  1  0  0  0
  5  6  2  0  0  0
  5 28  1  0  0  0
  6 29  1  0  0  0
  7 16  1  0  0  0
  7  8  1  0  0  0
  8  9  1  0  0  0
  8 30  1  0  0  0
  8 31  1  0  0  0
  9 10  1  0  0  0
  9 32  1  0  0  0
  9 33  1  0  0  0
 10 15  2  0  0  0
 10 11  1  0  0  0
 11 12  2  0  0  0
 11 34  1  0  0  0
 12 13  1  0  0  0
 12 24  1  0  0  0
 13 14  2  0  0  0
 13 35  1  0  0  0
 14 15  1  0  0  0
 14 36  1  0  0  0
 15 16  1  0  0  0
 16 17  1  0  0  0
 16 37  1  0  0  0
 17 18  1  0  0  0
 17 38  1  0  0  0
 17 39  1  0  0  0
 18 23  1  0  0  0
 18 19  1  0  0  0
 18 40  1  0  0  0
 19 20  1  0  0  0
 19 41  1  0  0  0
 19 42  1  0  0  0
 20 21  1  0  0  0
 20 43  1  0  0  0
 20 44  1  0  0  0
 21 22  1  0  0  0
 21 45  1  0  0  0
 21 46  1  0  0  0
 22 23  1  0  0  0
 22 47  1  0  0  0
 22 48  1  0  0  0
 23 49  1  0  0  0
 23 50  1  0  0  0
 24 51  1  0  0  0
M  END
> <s_m_entry_id>
17212

> <s_m_entry_name>
ligand_docking-pose.139

> <s_m_Source_Path>
/home/csk/Desktop/cluster/DUD-E-result/esr1

> <s_m_Source_File>
ligand_docking-pose.sdf

> <i_m_Source_File_Index>
139

> <i_lp_mmshare_version>
53161

> <i_f3d_flags>
0

> <r_lp_tautomer_probability>
0.999999999997365

> <s_lp_Force_Field>
OPLS_2005

> <r_lp_Energy>
31.866602

> <b_lp_Chiralities_Consistent>
1

> <s_lp_Variant>
150267-2

> <s_i_glide_gridfile>
glide-grid_1sj0

> <i_i_glide_lignum>
623

> <i_i_glide_rotatable_bonds>
4

> <r_i_docking_score>
-9.55871592552332

> <r_i_glide_ligand_efficiency>
-0.398279830230138

> <r_i_glide_ligand_efficiency_sa>
-1.14883782680603

> <r_i_glide_ligand_efficiency_ln>
-2.28783934187063

> <r_i_glide_gscore>
-9.55871592552332

> <r_i_glide_lipo>
-5.26116660063047

> <r_i_glide_hbond>
-0.32

> <r_i_glide_metal>
0

> <r_i_glide_rewards>
-2.20219949857811

> <r_i_glide_evdw>
-29.032320022583

> <r_i_glide_ecoul>
-5.7750096321106

> <r_i_glide_erotb>
0.542517619631

> <r_i_glide_esite>
0

> <r_i_glide_emodel>
-53.3783432901009

> <r_i_glide_energy>
-34.8073296546936

> <r_i_glide_einternal>
12.68869972229

> <i_i_glide_confnum>
25

> <i_i_glide_posenum>
61

> <r_i_glide_eff_state_penalty>
0

> <s_user_duplicate_titles>
150267

> <s_m_subgroup_title>
dock_pv

> <s_m_subgroupid>
dock_pv1

> <b_m_subgroup_collapsed>
0

$$$$
350918
                    3D
 Schrodinger Suite 2021-1.
 44 48  0  0  1  0            999 V2000
   26.7423   -3.3426   28.0936 C   0  0  0  0  0  0
   26.3034   -2.1409   27.5530 C   0  0  0  0  0  0
   27.2177   -1.1873   27.1288 C   0  0  0  0  0  0
   28.5940   -1.4107   27.2625 C   0  0  0  0  0  0
   29.0213   -2.6153   27.8463 C   0  0  0  0  0  0
   28.1013   -3.5800   28.2516 C   0  0  0  0  0  0
   29.6003   -0.3836   26.6716 C   0  0  1  0  0  0
   29.1812    1.0917   26.9643 C   0  0  0  0  0  0
   29.2398    1.4037   28.4740 C   0  0  0  0  0  0
   30.5960    1.0393   29.0950 C   0  0  0  0  0  0
   30.9079    1.4579   30.2090 O   0  0  0  0  0  0
   31.4575    0.1212   28.3320 C   0  0  0  0  0  0
   31.0284   -0.5347   27.2223 C   0  0  0  0  0  0
   31.7365   -1.4522   26.2984 C   0  0  0  0  0  0
   32.8889   -2.2245   26.4447 C   0  0  0  0  0  0
   33.3948   -2.9410   25.3563 C   0  0  0  0  0  0
   32.7984   -2.8339   24.1066 C   0  0  0  0  0  0
   31.6595   -2.0551   23.9577 C   0  0  0  0  0  0
   31.0892   -1.4296   25.0705 C   0  0  0  0  0  0
   29.8123   -0.6539   25.1724 C   0  0  0  0  0  0
   33.3140   -3.5049   23.0330 O   0  0  0  0  0  0
   32.8558    0.1254   28.6850 C   0  0  0  0  0  0
   33.6603   -0.6867   29.4623 C   0  0  0  0  0  0
   34.9421   -0.1443   29.3922 C   0  0  0  0  0  0
   34.8600    0.9810   28.5961 C   0  0  0  0  0  0
   33.5893    1.1451   28.1645 O   0  0  0  0  0  0
   26.0224   -4.0934   28.3855 H   0  0  0  0  0  0
   25.2507   -1.9699   27.4103 H   0  0  0  0  0  0
   26.8319   -0.2953   26.6638 H   0  0  0  0  0  0
   30.0687   -2.8457   27.9484 H   0  0  0  0  0  0
   28.4449   -4.5158   28.6651 H   0  0  0  0  0  0
   28.1969    1.3302   26.5642 H   0  0  0  0  0  0
   29.8525    1.7792   26.4469 H   0  0  0  0  0  0
   28.5019    0.7742   28.9690 H   0  0  0  0  0  0
   29.0004    2.4420   28.7025 H   0  0  0  0  0  0
   33.4012   -2.2916   27.3899 H   0  0  0  0  0  0
   34.2746   -3.5503   25.4635 H   0  0  0  0  0  0
   31.1864   -2.0059   22.9897 H   0  0  0  0  0  0
   29.8535    0.2579   24.5876 H   0  0  0  0  0  0
   28.9998   -1.2631   24.7983 H   0  0  0  0  0  0
   34.0392   -4.0882   23.2626 H   0  0  0  0  0  0
   33.3571   -1.5698   30.0037 H   0  0  0  0  0  0
   35.8322   -0.5312   29.8640 H   0  0  0  0  0  0
   35.5860    1.7093   28.2618 H   0  0  0  0  0  0
  1  6  1  0  0  0
  1  2  2  0  0  0
  1 27  1  0  0  0
  2  3  1  0  0  0
  2 28  1  0  0  0
  3  4  2  0  0  0
  3 29  1  0  0  0
  4  5  1  0  0  0
  4  7  1  0  0  0
  5  6  2  0  0  0
  5 30  1  0  0  0
  6 31  1  0  0  0
  7 13  1  0  0  0
  7 20  1  0  0  0
  7  8  1  0  0  0
  8  9  1  0  0  0
  8 32  1  0  0  0
  8 33  1  0  0  0
  9 10  1  0  0  0
  9 34  1  0  0  0
  9 35  1  0  0  0
 10 11  2  0  0  0
 10 12  1  0  0  0
 12 13  2  0  0  0
 12 22  1  0  0  0
 13 14  1  0  0  0
 14 19  1  0  0  0
 14 15  2  0  0  0
 15 16  1  0  0  0
 15 36  1  0  0  0
 16 17  2  0  0  0
 16 37  1  0  0  0
 17 18  1  0  0  0
 17 21  1  0  0  0
 18 19  2  0  0  0
 18 38  1  0  0  0
 19 20  1  0  0  0
 20 39  1  0  0  0
 20 40  1  0  0  0
 21 41  1  0  0  0
 22 26  1  0  0  0
 22 23  2  0  0  0
 23 24  1  0  0  0
 23 42  1  0  0  0
 24 25  2  0  0  0
 24 43  1  0  0  0
 25 26  1  0  0  0
 25 44  1  0  0  0
M  END
> <s_m_entry_id>
17213

> <s_m_entry_name>
ligand_docking-pose.140

> <s_m_Source_Path>
/home/csk/Desktop/cluster/DUD-E-result/esr1

> <s_m_Source_File>
ligand_docking-pose.sdf

> <i_m_Source_File_Index>
140

> <i_lp_mmshare_version>
53161

> <i_f3d_flags>
0

> <r_lp_tautomer_probability>
1

> <s_lp_Force_Field>
OPLS_2005

> <r_lp_Energy>
35.331344

> <b_lp_Chiralities_Consistent>
1

> <s_lp_Variant>
350918-2

> <s_i_glide_gridfile>
glide-grid_1sj0

> <i_i_glide_lignum>
150

> <i_i_glide_rotatable_bonds>
3

> <r_i_docking_score>
-9.52758986466908

> <r_i_glide_ligand_efficiency>
-0.366445764025734

> <r_i_glide_ligand_efficiency_sa>
-1.08559413403178

> <r_i_glide_ligand_efficiency_ln>
-2.2375232171453

> <r_i_glide_gscore>
-9.52758986466908

> <r_i_glide_lipo>
-5.2274280400328

> <r_i_glide_hbond>
0

> <r_i_glide_metal>
0

> <r_i_glide_rewards>
-2.36068209561804

> <r_i_glide_evdw>
-44.1315116882324

> <r_i_glide_ecoul>
-0.376035958528519

> <r_i_glide_erotb>
0.323501249172657

> <r_i_glide_esite>
0

> <r_i_glide_emodel>
-58.8213139317701

> <r_i_glide_energy>
-44.5075476467609

> <r_i_glide_einternal>
2.97140264511108

> <i_i_glide_confnum>
2

> <i_i_glide_posenum>
42

> <r_i_glide_eff_state_penalty>
0

> <s_user_duplicate_titles>
350918

> <s_m_subgroup_title>
dock_pv

> <s_m_subgroupid>
dock_pv1

> <b_m_subgroup_collapsed>
0

$$$$
313645
                    3D
 Schrodinger Suite 2021-1.
 26 28  0  0  1  0            999 V2000
   28.0236   -3.0261   27.8641 C   0  0  0  0  0  0
   29.1658   -2.2349   27.8387 C   0  0  0  0  0  0
   29.0533   -0.8486   27.7090 C   0  0  0  0  0  0
   27.7970   -0.2544   27.5568 C   0  0  0  0  0  0
   26.6526   -1.0505   27.5824 C   0  0  0  0  0  0
   26.7719   -2.4282   27.7636 C   0  0  0  0  0  0
   25.6600   -3.2040   27.8640 O   0  0  0  0  0  0
   27.6775    1.0876   27.4235 F   0  0  0  0  0  0
   30.2942   -0.0652   27.8018 C   0  0  0  0  0  0
   31.1002    0.2578   26.8141 N   0  0  0  0  0  0
   32.2147    0.7066   27.4626 C   0  0  0  0  0  0
   33.4439    1.1621   26.9742 C   0  0  0  0  0  0
   34.4444    1.4546   27.9031 C   0  0  0  0  0  0
   34.2344    1.3507   29.2749 C   0  0  0  0  0  0
   32.9851    1.0020   29.7815 C   0  0  0  0  0  0
   32.0087    0.6475   28.8496 C   0  0  0  0  0  0
   30.7568    0.1757   29.0633 O   0  0  0  0  0  0
   32.6404    1.0580   31.6421 Br  0  0  0  0  0  0
   35.6609    1.8583   27.4640 O   0  0  0  0  0  0
   28.1094   -4.0966   27.9845 H   0  0  0  0  0  0
   30.1352   -2.7003   27.9418 H   0  0  0  0  0  0
   25.6775   -0.5951   27.4907 H   0  0  0  0  0  0
   25.2600   -3.3420   26.9731 H   0  0  0  0  0  0
   33.6349    1.2369   25.9144 H   0  0  0  0  0  0
   35.0293    1.6077   29.9597 H   0  0  0  0  0  0
   36.3706    1.7369   28.1074 H   0  0  0  0  0  0
  1  6  1  0  0  0
  1  2  2  0  0  0
  1 20  1  0  0  0
  2  3  1  0  0  0
  2 21  1  0  0  0
  3  4  2  0  0  0
  3  9  1  0  0  0
  4  5  1  0  0  0
  4  8  1  0  0  0
  5  6  2  0  0  0
  5 22  1  0  0  0
  6  7  1  0  0  0
  7 23  1  0  0  0
  9 17  1  0  0  0
  9 10  2  0  0  0
 10 11  1  0  0  0
 11 16  2  0  0  0
 11 12  1  0  0  0
 12 13  2  0  0  0
 12 24  1  0  0  0
 13 14  1  0  0  0
 13 19  1  0  0  0
 14 15  2  0  0  0
 14 25  1  0  0  0
 15 16  1  0  0  0
 15 18  1  0  0  0
 16 17  1  0  0  0
 19 26  1  0  0  0
M  END
> <s_m_entry_id>
17214

> <s_m_entry_name>
ligand_docking-pose.141

> <s_m_Source_Path>
/home/csk/Desktop/cluster/DUD-E-result/esr1

> <s_m_Source_File>
ligand_docking-pose.sdf

> <i_m_Source_File_Index>
141

> <i_lp_mmshare_version>
53161

> <i_f3d_flags>
0

> <r_lp_tautomer_probability>
0.999999999997365

> <s_lp_Force_Field>
OPLS_2005

> <r_lp_Energy>
12.237643

> <b_lp_Chiralities_Consistent>
1

> <s_lp_Variant>
313645-1

> <s_i_glide_gridfile>
glide-grid_1sj0

> <i_i_glide_lignum>
672

> <i_i_glide_rotatable_bonds>
3

> <r_i_docking_score>
-9.49207183348006

> <r_i_glide_ligand_efficiency>
-0.499582728077898

> <r_i_glide_ligand_efficiency_sa>
-1.33308737396767

> <r_i_glide_ligand_efficiency_ln>
-2.406444080797

> <r_i_glide_gscore>
-9.49207183348006

> <r_i_glide_lipo>
-3.30184454827023

> <r_i_glide_hbond>
-0.456

> <r_i_glide_metal>
0

> <r_i_glide_rewards>
-2.54930466136364

> <r_i_glide_evdw>
-30.7514686584473

> <r_i_glide_ecoul>
-12.1706190109253

> <r_i_glide_erotb>
0.178243660714969

> <r_i_glide_esite>
0

> <r_i_glide_emodel>
-57.7719905697963

> <r_i_glide_energy>
-42.9220876693726

> <r_i_glide_einternal>
9.95734786987305

> <i_i_glide_confnum>
2

> <i_i_glide_posenum>
191

> <r_i_glide_eff_state_penalty>
0

> <s_user_duplicate_titles>
313645

> <s_m_subgroup_title>
dock_pv

> <s_m_subgroupid>
dock_pv1

> <b_m_subgroup_collapsed>
0

$$$$
393995
                    3D
 Schrodinger Suite 2021-1.
 28 30  0  0  1  0            999 V2000
   34.6651    1.0169   29.2179 C   0  0  0  0  0  0
   33.6071    0.2578   29.7111 C   0  0  0  0  0  0
   32.5198    0.0243   28.8744 C   0  0  0  0  0  0
   32.4583    0.5252   27.6051 C   0  0  0  0  0  0
   33.4960    1.3084   27.1007 C   0  0  0  0  0  0
   34.6064    1.5355   27.9219 C   0  0  0  0  0  0
   35.6600    2.2578   27.4640 O   0  0  0  0  0  0
   31.1834    0.0554   26.9994 C   0  0  0  0  0  0
   30.7601    0.2578   25.8649 O   0  0  0  0  0  0
   30.5647   -0.6673   27.9661 N   0  0  0  0  0  0
   31.2888   -0.7463   29.1104 C   0  0  0  0  0  0
   30.9886   -1.3420   30.1356 O   0  0  0  0  0  0
   29.3050   -1.2677   27.8209 C   0  0  0  0  0  0
   29.2185   -2.6626   27.7602 C   0  0  0  0  0  0
   27.9787   -3.2873   27.7533 C   0  0  0  0  0  0
   26.8242   -2.5173   27.7997 C   0  0  0  0  0  0
   26.8917   -1.1255   27.8127 C   0  0  0  0  0  0
   28.1339   -0.4943   27.8250 C   0  0  0  0  0  0
   28.1921    0.8582   27.8639 F   0  0  0  0  0  0
   25.6221   -3.1432   27.8640 O   0  0  0  0  0  0
   35.5282    1.1994   29.8420 H   0  0  0  0  0  0
   33.6486   -0.1445   30.7128 H   0  0  0  0  0  0
   33.4716    1.7092   26.0976 H   0  0  0  0  0  0
   36.4478    2.1277   28.0045 H   0  0  0  0  0  0
   30.1044   -3.2744   27.7388 H   0  0  0  0  0  0
   27.9173   -4.3658   27.7287 H   0  0  0  0  0  0
   25.9874   -0.5367   27.8375 H   0  0  0  0  0  0
   25.2618   -3.3421   26.9674 H   0  0  0  0  0  0
  1  6  1  0  0  0
  1  2  2  0  0  0
  1 21  1  0  0  0
  2  3  1  0  0  0
  2 22  1  0  0  0
  3 11  1  0  0  0
  3  4  2  0  0  0
  4  5  1  0  0  0
  4  8  1  0  0  0
  5  6  2  0  0  0
  5 23  1  0  0  0
  6  7  1  0  0  0
  7 24  1  0  0  0
  8  9  2  0  0  0
  8 10  1  0  0  0
 10 11  1  0  0  0
 10 13  1  0  0  0
 11 12  2  0  0  0
 13 18  1  0  0  0
 13 14  2  0  0  0
 14 15  1  0  0  0
 14 25  1  0  0  0
 15 16  2  0  0  0
 15 26  1  0  0  0
 16 17  1  0  0  0
 16 20  1  0  0  0
 17 18  2  0  0  0
 17 27  1  0  0  0
 18 19  1  0  0  0
 20 28  1  0  0  0
M  END
> <s_m_entry_id>
17215

> <s_m_entry_name>
ligand_docking-pose.142

> <s_m_Source_Path>
/home/csk/Desktop/cluster/DUD-E-result/esr1

> <s_m_Source_File>
ligand_docking-pose.sdf

> <i_m_Source_File_Index>
142

> <i_lp_mmshare_version>
53161

> <i_f3d_flags>
0

> <r_lp_tautomer_probability>
0.99999999999473

> <s_lp_Force_Field>
OPLS_2005

> <r_lp_Energy>
44.150761

> <b_lp_Chiralities_Consistent>
1

> <s_lp_Variant>
393995-1

> <s_i_glide_gridfile>
glide-grid_1sj0

> <i_i_glide_lignum>
28

> <i_i_glide_rotatable_bonds>
3

> <r_i_docking_score>
-9.45922031365283

> <r_i_glide_ligand_efficiency>
-0.472961015682641

> <r_i_glide_ligand_efficiency_sa>
-1.28381371164959

> <r_i_glide_ligand_efficiency_ln>
-2.36733085854107

> <r_i_glide_gscore>
-9.45922031365283

> <r_i_glide_lipo>
-2.78563558277153

> <r_i_glide_hbond>
-0.450870037693482

> <r_i_glide_metal>
0

> <r_i_glide_rewards>
-3.44991334897101

> <r_i_glide_evdw>
-26.5426216125488

> <r_i_glide_ecoul>
-11.2396020889282

> <r_i_glide_erotb>
0.240270049749863

> <r_i_glide_esite>
0

> <r_i_glide_emodel>
-53.9901639759129

> <r_i_glide_energy>
-37.7822237014771

> <r_i_glide_einternal>
3.79461193084717

> <i_i_glide_confnum>
2

> <i_i_glide_posenum>
330

> <r_i_glide_eff_state_penalty>
0

> <s_user_duplicate_titles>
393995

> <s_m_subgroup_title>
dock_pv

> <s_m_subgroupid>
dock_pv1

> <b_m_subgroup_collapsed>
0

$$$$
393991
                    3D
 Schrodinger Suite 2021-1.
 30 32  0  0  1  0            999 V2000
   27.0388   -2.6750   27.1528 C   0  0  0  0  0  0
   28.3948   -2.7664   27.4640 C   0  0  0  0  0  0
   29.0866   -1.5852   27.7137 C   0  0  0  0  0  0
   28.4506   -0.3737   27.7395 C   0  0  0  0  0  0
   27.0913   -0.2648   27.4640 C   0  0  0  0  0  0
   26.4058   -1.4264   27.1121 C   0  0  0  0  0  0
   25.1237   -1.3420   26.6640 O   0  0  0  0  0  0
   29.4598    0.6647   28.0403 C   0  0  0  0  0  0
   29.2716    1.8695   28.1916 O   0  0  0  0  0  0
   30.6428    0.0014   28.0929 N   0  0  0  0  0  0
   30.5288   -1.3347   27.9033 C   0  0  0  0  0  0
   31.4526   -2.1420   27.8640 O   0  0  0  0  0  0
   31.8886    0.6265   28.0869 C   0  0  0  0  0  0
   32.4421    0.9194   26.8343 C   0  0  0  0  0  0
   33.6915    1.5115   26.7453 C   0  0  0  0  0  0
   34.4117    1.7465   27.9086 C   0  0  0  0  0  0
   33.8819    1.4457   29.1532 C   0  0  0  0  0  0
   32.6075    0.8910   29.2685 C   0  0  0  0  0  0
   32.0853    0.5810   30.6116 N   0  3  0  0  0  0
   31.6472   -0.5419   30.8223 O   0  5  0  0  0  0
   32.1499    1.4580   31.4640 O   0  0  0  0  0  0
   35.6600    2.2580   27.8583 O   0  0  0  0  0  0
   26.4927   -3.5718   26.8962 H   0  0  0  0  0  0
   28.8907   -3.7264   27.4480 H   0  0  0  0  0  0
   26.5879    0.6916   27.4390 H   0  0  0  0  0  0
   24.8600   -2.2039   26.2639 H   0  0  0  0  0  0
   31.9104    0.6579   25.9292 H   0  0  0  0  0  0
   34.1049    1.7468   25.7770 H   0  0  0  0  0  0
   34.4745    1.6358   30.0373 H   0  0  0  0  0  0
   36.0397    2.2954   26.9747 H   0  0  0  0  0  0
  1  6  1  0  0  0
  1  2  2  0  0  0
  1 23  1  0  0  0
  2  3  1  0  0  0
  2 24  1  0  0  0
  3 11  1  0  0  0
  3  4  2  0  0  0
  4  5  1  0  0  0
  4  8  1  0  0  0
  5  6  2  0  0  0
  5 25  1  0  0  0
  6  7  1  0  0  0
  7 26  1  0  0  0
  8  9  2  0  0  0
  8 10  1  0  0  0
 10 11  1  0  0  0
 10 13  1  0  0  0
 11 12  2  0  0  0
 13 18  1  0  0  0
 13 14  2  0  0  0
 14 15  1  0  0  0
 14 27  1  0  0  0
 15 16  2  0  0  0
 15 28  1  0  0  0
 16 17  1  0  0  0
 16 22  1  0  0  0
 17 18  2  0  0  0
 17 29  1  0  0  0
 18 19  1  0  0  0
 19 20  1  0  0  0
 19 21  2  0  0  0
 22 30  1  0  0  0
M  CHG  2  19   1  20  -1
M  END
> <s_m_entry_id>
17216

> <s_m_entry_name>
ligand_docking-pose.143

> <s_m_Source_Path>
/home/csk/Desktop/cluster/DUD-E-result/esr1

> <s_m_Source_File>
ligand_docking-pose.sdf

> <i_m_Source_File_Index>
143

> <i_lp_mmshare_version>
53161

> <i_f3d_flags>
0

> <r_lp_tautomer_probability>
0.999999999997365

> <s_lp_Force_Field>
OPLS_2005

> <r_lp_Energy>
50.045785

> <b_lp_Chiralities_Consistent>
1

> <s_lp_Variant>
393991-1

> <s_i_glide_gridfile>
glide-grid_1sj0

> <i_i_glide_lignum>
29

> <i_i_glide_rotatable_bonds>
4

> <r_i_docking_score>
-9.43915487945975

> <r_i_glide_ligand_efficiency>
-0.429052494520898

> <r_i_glide_ligand_efficiency_sa>
-1.20222196332465

> <r_i_glide_ligand_efficiency_ln>
-2.30727375407977

> <r_i_glide_gscore>
-9.43915487945975

> <r_i_glide_lipo>
-2.48582018536273

> <r_i_glide_hbond>
-0.407644768006378

> <r_i_glide_metal>
0

> <r_i_glide_rewards>
-3.40193523565485

> <r_i_glide_evdw>
-35.0109214782715

> <r_i_glide_ecoul>
-10.2395963668823

> <r_i_glide_erotb>
0.142730838510127

> <r_i_glide_esite>
0

> <r_i_glide_emodel>
-64.3098186308599

> <r_i_glide_energy>
-45.2505178451538

> <r_i_glide_einternal>
2.09004640579224

> <i_i_glide_confnum>
3

> <i_i_glide_posenum>
395

> <r_i_glide_eff_state_penalty>
0

> <s_user_duplicate_titles>
393991

> <s_m_subgroup_title>
dock_pv

> <s_m_subgroupid>
dock_pv1

> <b_m_subgroup_collapsed>
0

$$$$
339332
                    3D
 Schrodinger Suite 2021-1.
 61 63  0  0  1  0            999 V2000
   35.3700   -4.3548   18.0497 C   0  0  0  0  0  0
   34.2833   -3.7486   18.8135 N   0  0  0  0  0  0
   33.0042   -4.2144   18.2752 C   0  0  0  0  0  0
   34.4368   -4.0892   20.2342 C   0  0  0  0  0  0
   33.4486   -3.3437   21.1480 C   0  0  0  0  0  0
   33.8041   -3.5862   22.5089 O   0  0  0  0  0  0
   33.0541   -3.0054   23.5127 C   0  0  0  0  0  0
   31.9915   -2.1197   23.2914 C   0  0  0  0  0  0
   31.2824   -1.5776   24.3607 C   0  0  0  0  0  0
   31.6251   -1.9218   25.6687 C   0  0  0  0  0  0
   32.6879   -2.8032   25.8919 C   0  0  0  0  0  0
   33.3943   -3.3389   24.8206 C   0  0  0  0  0  0
   30.8613   -1.4059   26.8267 C   0  0  0  0  0  0
   31.4019   -0.6165   27.7902 C   0  0  0  0  0  0
   30.6405   -0.1873   29.0545 C   0  0  0  0  0  0
   30.4893    1.3306   29.2432 C   0  0  0  0  0  0
   31.7431    1.9951   29.8181 C   0  0  0  0  0  0
   32.0621    1.4560   31.4642 Cl  0  0  0  0  0  0
   32.7625   -0.0621   27.6963 C   0  0  0  0  0  0
   33.7603   -0.4840   28.5793 C   0  0  0  0  0  0
   34.9504    0.2331   28.6623 C   0  0  0  0  0  0
   35.1393    1.3614   27.8643 C   0  0  0  0  0  0
   34.1559    1.7765   26.9721 C   0  0  0  0  0  0
   32.9706    1.0558   26.8836 C   0  0  0  0  0  0
   29.4738   -1.8866   26.9607 C   0  0  0  0  0  0
   29.2465   -2.9167   27.8649 C   0  0  0  0  0  0
   27.9738   -3.3487   28.1675 C   0  0  0  0  0  0
   26.9068   -2.7338   27.5468 C   0  0  0  0  0  0
   27.0981   -1.7347   26.5912 C   0  0  0  0  0  0
   28.3923   -1.3030   26.2952 C   0  0  0  0  0  0
   25.6599   -3.1607   27.8641 O   0  0  0  0  0  0
   35.2996   -4.0805   16.9953 H   0  0  0  0  0  0
   36.3382   -4.0039   18.4106 H   0  0  0  0  0  0
   35.3567   -5.4450   18.1214 H   0  0  0  0  0  0
   32.9251   -3.9873   17.2111 H   0  0  0  0  0  0
   32.8806   -5.2924   18.4030 H   0  0  0  0  0  0
   32.1635   -3.7237   18.7655 H   0  0  0  0  0  0
   35.4453   -3.8254   20.5566 H   0  0  0  0  0  0
   34.3334   -5.1664   20.3790 H   0  0  0  0  0  0
   32.4289   -3.6914   20.9724 H   0  0  0  0  0  0
   33.4927   -2.2741   20.9331 H   0  0  0  0  0  0
   31.6933   -1.8487   22.2926 H   0  0  0  0  0  0
   30.4605   -0.9038   24.1668 H   0  0  0  0  0  0
   32.9625   -3.0877   26.8976 H   0  0  0  0  0  0
   34.2067   -4.0252   25.0030 H   0  0  0  0  0  0
   29.6301   -0.5825   29.0428 H   0  0  0  0  0  0
   31.1086   -0.6515   29.9232 H   0  0  0  0  0  0
   30.2237    1.7944   28.2921 H   0  0  0  0  0  0
   29.6523    1.5320   29.9132 H   0  0  0  0  0  0
   32.6555    1.8403   29.2675 H   0  0  0  0  0  0
   31.6598    3.0587   29.8317 H   0  0  0  0  0  0
   33.5968   -1.3252   29.2371 H   0  0  0  0  0  0
   35.7193   -0.0761   29.3542 H   0  0  0  0  0  0
   36.0600    1.9214   27.9306 H   0  0  0  0  0  0
   34.3085    2.6562   26.3645 H   0  0  0  0  0  0
   32.1704    1.4184   26.2651 H   0  0  0  0  0  0
   30.0589   -3.3419   28.3956 H   0  0  0  0  0  0
   27.8162   -4.1347   28.8921 H   0  0  0  0  0  0
   26.2497   -1.2862   26.0950 H   0  0  0  0  0  0
   28.5450   -0.4993   25.5901 H   0  0  0  0  0  0
   25.2600   -3.3422   26.9808 H   0  0  0  0  0  0
  1  2  1  0  0  0
  1 32  1  0  0  0
  1 33  1  0  0  0
  1 34  1  0  0  0
  2  3  1  0  0  0
  2  4  1  0  0  0
  3 35  1  0  0  0
  3 36  1  0  0  0
  3 37  1  0  0  0
  4  5  1  0  0  0
  4 38  1  0  0  0
  4 39  1  0  0  0
  5  6  1  0  0  0
  5 40  1  0  0  0
  5 41  1  0  0  0
  6  7  1  0  0  0
  7 12  1  0  0  0
  7  8  2  0  0  0
  8  9  1  0  0  0
  8 42  1  0  0  0
  9 10  2  0  0  0
  9 43  1  0  0  0
 10 11  1  0  0  0
 10 13  1  0  0  0
 11 12  2  0  0  0
 11 44  1  0  0  0
 12 45  1  0  0  0
 13 14  2  0  0  0
 13 25  1  0  0  0
 14 15  1  0  0  0
 14 19  1  0  0  0
 15 16  1  0  0  0
 15 46  1  0  0  0
 15 47  1  0  0  0
 16 17  1  0  0  0
 16 48  1  0  0  0
 16 49  1  0  0  0
 17 18  1  0  0  0
 17 50  1  0  0  0
 17 51  1  0  0  0
 19 24  1  0  0  0
 19 20  2  0  0  0
 20 21  1  0  0  0
 20 52  1  0  0  0
 21 22  2  0  0  0
 21 53  1  0  0  0
 22 23  1  0  0  0
 22 54  1  0  0  0
 23 24  2  0  0  0
 23 55  1  0  0  0
 24 56  1  0  0  0
 25 30  1  0  0  0
 25 26  2  0  0  0
 26 27  1  0  0  0
 26 57  1  0  0  0
 27 28  2  0  0  0
 27 58  1  0  0  0
 28 29  1  0  0  0
 28 31  1  0  0  0
 29 30  2  0  0  0
 29 59  1  0  0  0
 30 60  1  0  0  0
 31 61  1  0  0  0
M  END
> <s_m_entry_id>
17217

> <s_m_entry_name>
ligand_docking-pose.144

> <s_m_Source_Path>
/home/csk/Desktop/cluster/DUD-E-result/esr1

> <s_m_Source_File>
ligand_docking-pose.sdf

> <i_m_Source_File_Index>
144

> <i_lp_mmshare_version>
53161

> <i_f3d_flags>
0

> <r_lp_tautomer_probability>
1

> <s_lp_Force_Field>
OPLS_2005

> <r_lp_Energy>
38.602342

> <b_lp_Chiralities_Consistent>
1

> <s_lp_Variant>
339332-1

> <s_i_glide_gridfile>
glide-grid_1sj0

> <i_i_glide_lignum>
1722

> <i_i_glide_rotatable_bonds>
11

> <r_i_docking_score>
-9.43763254012571

> <r_i_glide_ligand_efficiency>
-0.304439759358894

> <r_i_glide_ligand_efficiency_sa>
-0.95636116877401

> <r_i_glide_ligand_efficiency_ln>
-2.12847536650065

> <r_i_glide_gscore>
-9.43763254012571

> <r_i_glide_lipo>
-5.39994855576854

> <r_i_glide_hbond>
-0.16

> <r_i_glide_metal>
0

> <r_i_glide_rewards>
-1.3364276670502

> <r_i_glide_evdw>
-43.1366233825684

> <r_i_glide_ecoul>
-8.15448570251465

> <r_i_glide_erotb>
0.838747707198644

> <r_i_glide_esite>
0

> <r_i_glide_emodel>
-57.8780183237072

> <r_i_glide_energy>
-51.291109085083

> <r_i_glide_einternal>
17.5077056884766

> <i_i_glide_confnum>
16

> <i_i_glide_posenum>
198

> <r_i_glide_eff_state_penalty>
0

> <s_user_duplicate_titles>
339332

> <s_m_subgroup_title>
dock_pv

> <s_m_subgroupid>
dock_pv1

> <b_m_subgroup_collapsed>
0

$$$$
287174
                    3D
 Schrodinger Suite 2021-1.
 39 41  0  0  1  0            999 V2000
   34.7948    1.6043   27.6691 C   0  0  0  0  0  0
   34.5396    0.2897   28.4236 C   0  0  0  0  0  0
   33.1258    0.0256   28.6796 N   0  0  0  0  0  0
   32.3716    0.6440   29.6506 C   0  0  0  0  0  0
   31.2599    0.1012   29.9298 N   0  0  0  0  0  0
   31.1517   -1.0809   29.0962 C   0  0  2  0  0  0
   32.5026   -1.2435   28.3556 C   0  0  1  0  0  0
   32.4592   -1.5937   26.8551 C   0  0  0  0  0  0
   32.0600   -0.6289   25.9213 C   0  0  0  0  0  0
   31.9782   -0.9387   24.5654 C   0  0  0  0  0  0
   32.3490   -2.1994   24.1105 C   0  0  0  0  0  0
   32.7873   -3.1564   25.0206 C   0  0  0  0  0  0
   32.8082   -2.8728   26.3871 C   0  0  0  0  0  0
   33.2600   -4.1415   27.4633 Cl  0  0  0  0  0  0
   32.2819   -2.4928   22.7756 O   0  0  0  0  0  0
   29.8449   -1.1525   28.2643 C   0  0  0  0  0  0
   29.2443   -2.4165   28.1318 C   0  0  0  0  0  0
   28.0975   -2.6049   27.3677 C   0  0  0  0  0  0
   27.5421   -1.5268   26.6964 C   0  0  0  0  0  0
   28.1024   -0.2607   26.8261 C   0  0  0  0  0  0
   29.2396   -0.0563   27.6048 C   0  0  0  0  0  0
   29.8332    1.5699   27.6694 Cl  0  0  0  0  0  0
   26.4601   -1.6934   25.8843 O   0  0  0  0  0  0
   31.0784   -1.9061   29.8068 H   0  0  0  0  0  0
   33.0895   -2.0022   28.8747 H   0  0  0  0  0  0
   35.8597    1.7358   27.4695 H   0  0  0  0  0  0
   34.2813    1.6130   26.7064 H   0  0  0  0  0  0
   34.4600    2.4697   28.2395 H   0  0  0  0  0  0
   35.0801    0.3026   29.3723 H   0  0  0  0  0  0
   34.9649   -0.5391   27.8637 H   0  0  0  0  0  0
   32.7473    1.5456   30.1253 H   0  0  0  0  0  0
   31.8053    0.3664   26.2477 H   0  0  0  0  0  0
   31.6587   -0.1754   23.8688 H   0  0  0  0  0  0
   33.1054   -4.1290   24.6744 H   0  0  0  0  0  0
   32.4935   -3.4072   22.5699 H   0  0  0  0  0  0
   29.6601   -3.2863   28.6112 H   0  0  0  0  0  0
   27.6702   -3.5925   27.2675 H   0  0  0  0  0  0
   27.6590    0.5735   26.3060 H   0  0  0  0  0  0
   25.9658   -2.5313   25.9104 H   0  0  0  0  0  0
  1  2  1  0  0  0
  1 26  1  0  0  0
  1 27  1  0  0  0
  1 28  1  0  0  0
  2  3  1  0  0  0
  2 29  1  0  0  0
  2 30  1  0  0  0
  3  7  1  0  0  0
  3  4  1  0  0  0
  4  5  2  0  0  0
  4 31  1  0  0  0
  5  6  1  0  0  0
  6 24  1  0  0  0
  6  7  1  0  0  0
  6 16  1  0  0  0
  7 25  1  0  0  0
  7  8  1  0  0  0
  8 13  1  0  0  0
  8  9  2  0  0  0
  9 10  1  0  0  0
  9 32  1  0  0  0
 10 11  2  0  0  0
 10 33  1  0  0  0
 11 12  1  0  0  0
 11 15  1  0  0  0
 12 13  2  0  0  0
 12 34  1  0  0  0
 13 14  1  0  0  0
 15 35  1  0  0  0
 16 21  1  0  0  0
 16 17  2  0  0  0
 17 18  1  0  0  0
 17 36  1  0  0  0
 18 19  2  0  0  0
 18 37  1  0  0  0
 19 20  1  0  0  0
 19 23  1  0  0  0
 20 21  2  0  0  0
 20 38  1  0  0  0
 21 22  1  0  0  0
 23 39  1  0  0  0
M  END
> <s_m_entry_id>
17218

> <s_m_entry_name>
ligand_docking-pose.145

> <s_m_Source_Path>
/home/csk/Desktop/cluster/DUD-E-result/esr1

> <s_m_Source_File>
ligand_docking-pose.sdf

> <i_m_Source_File_Index>
145

> <i_lp_mmshare_version>
53161

> <i_f3d_flags>
0

> <r_lp_tautomer_probability>
0.99999999998839

> <s_lp_Force_Field>
OPLS_2005

> <r_lp_Energy>
27.323335

> <b_lp_Chiralities_Consistent>
1

> <s_lp_Variant>
287174-1

> <s_i_glide_gridfile>
glide-grid_1sj0

> <i_i_glide_lignum>
1618

> <i_i_glide_rotatable_bonds>
5

> <r_i_docking_score>
-9.43257370675034

> <r_i_glide_ligand_efficiency>
-0.410111900293493

> <r_i_glide_ligand_efficiency_sa>
-1.16630369006986

> <r_i_glide_ligand_efficiency_ln>
-2.28088185214184

> <r_i_glide_gscore>
-9.43257370675034

> <r_i_glide_lipo>
-4.60164679650379

> <r_i_glide_hbond>
-0.16

> <r_i_glide_metal>
0

> <r_i_glide_rewards>
-2.18531383842382

> <r_i_glide_evdw>
-38.922061920166

> <r_i_glide_ecoul>
-5.65794610977173

> <r_i_glide_erotb>
0.309181940651329

> <r_i_glide_esite>
0

> <r_i_glide_emodel>
-59.4727980278921

> <r_i_glide_energy>
-44.5800080299377

> <r_i_glide_einternal>
11.3487777709961

> <i_i_glide_confnum>
2

> <i_i_glide_posenum>
126

> <r_i_glide_eff_state_penalty>
0

> <s_user_duplicate_titles>
287174

> <s_m_subgroup_title>
dock_pv

> <s_m_subgroupid>
dock_pv1

> <b_m_subgroup_collapsed>
0

$$$$
615214
                    3D
 Schrodinger Suite 2021-1.
 60 64  0  0  1  0            999 V2000
   34.3506   -2.3283   18.2055 C   0  0  0  0  0  0
   33.6728   -2.7452   19.4296 N   0  0  0  0  0  0
   32.7067   -3.7983   19.1197 C   0  0  0  0  0  0
   34.6513   -3.1653   20.4419 C   0  0  0  0  0  0
   34.0415   -3.4617   21.8305 C   0  0  0  0  0  0
   33.2597   -2.3521   22.2636 O   0  0  0  0  0  0
   32.6725   -2.3605   23.5083 C   0  0  0  0  0  0
   31.7984   -1.3116   23.7761 C   0  0  0  0  0  0
   31.1016   -1.2405   24.9710 C   0  0  0  0  0  0
   31.3042   -2.2236   25.9316 C   0  0  0  0  0  0
   32.2244   -3.2527   25.7040 C   0  0  0  0  0  0
   32.9027   -3.3279   24.4915 C   0  0  0  0  0  0
   30.5284   -2.1615   27.2338 C   0  0  1  0  0  0
   30.7668   -0.9258   28.0953 C   0  0  0  0  0  0
   29.8005   -0.1006   28.4628 C   0  0  0  0  0  0
   30.0926    1.1114   29.3470 C   0  0  0  0  0  0
   30.9456    2.1438   28.6044 C   0  0  0  0  0  0
   32.0354    1.6706   27.7996 O   0  0  0  0  0  0
   32.7383    0.5927   28.2788 C   0  0  0  0  0  0
   32.1085   -0.6422   28.5032 C   0  0  0  0  0  0
   32.7438   -1.6641   29.1604 C   0  0  0  0  0  0
   34.0601   -1.5626   29.4587 C   0  0  0  0  0  0
   34.7380   -0.4334   29.0598 C   0  0  0  0  0  0
   34.0998    0.6828   28.5334 C   0  0  0  0  0  0
   36.0600   -0.5420   29.0640 O   0  0  0  0  0  0
   28.5144   -0.3312   27.8604 C   0  0  0  0  0  0
   27.5825    0.6721   27.8640 C   0  0  0  0  0  0
   26.3421    0.3811   27.3900 C   0  0  0  0  0  0
   26.0058   -0.8167   26.7902 C   0  0  0  0  0  0
   26.9706   -1.8060   26.6818 C   0  0  0  0  0  0
   28.2283   -1.5484   27.2145 C   0  0  0  0  0  0
   29.1562   -2.5499   27.1098 O   0  0  0  0  0  0
   24.7564   -0.9420   26.2640 O   0  0  0  0  0  0
   30.9172   -2.9420   27.8436 H   0  0  0  0  0  0
   35.0397   -1.5065   18.4055 H   0  0  0  0  0  0
   34.9171   -3.1467   17.7575 H   0  0  0  0  0  0
   33.6298   -1.9707   17.4686 H   0  0  0  0  0  0
   32.1328   -4.0854   20.0008 H   0  0  0  0  0  0
   31.9876   -3.4590   18.3736 H   0  0  0  0  0  0
   33.1944   -4.6957   18.7351 H   0  0  0  0  0  0
   35.1962   -4.0440   20.0907 H   0  0  0  0  0  0
   35.3912   -2.3730   20.5650 H   0  0  0  0  0  0
   33.4428   -4.3739   21.8104 H   0  0  0  0  0  0
   34.8599   -3.6279   22.5280 H   0  0  0  0  0  0
   31.6599   -0.5369   23.0465 H   0  0  0  0  0  0
   30.4121   -0.4272   25.1488 H   0  0  0  0  0  0
   32.4026   -4.0108   26.4522 H   0  0  0  0  0  0
   33.5919   -4.1422   24.3288 H   0  0  0  0  0  0
   29.2068    1.5584   29.7911 H   0  0  0  0  0  0
   30.6547    0.7603   30.2143 H   0  0  0  0  0  0
   30.2617    2.6580   27.9351 H   0  0  0  0  0  0
   31.3500    2.8358   29.3420 H   0  0  0  0  0  0
   32.2122   -2.5421   29.4446 H   0  0  0  0  0  0
   34.5680   -2.4150   29.8733 H   0  0  0  0  0  0
   34.6501    1.5729   28.2673 H   0  0  0  0  0  0
   36.5638    0.2646   28.8746 H   0  0  0  0  0  0
   27.7630    1.6573   28.2640 H   0  0  0  0  0  0
   25.6600    1.1751   27.4640 H   0  0  0  0  0  0
   26.7624   -2.7485   26.1974 H   0  0  0  0  0  0
   24.6133   -1.8260   25.8710 H   0  0  0  0  0  0
  1  2  1  0  0  0
  1 35  1  0  0  0
  1 36  1  0  0  0
  1 37  1  0  0  0
  2  3  1  0  0  0
  2  4  1  0  0  0
  3 38  1  0  0  0
  3 39  1  0  0  0
  3 40  1  0  0  0
  4  5  1  0  0  0
  4 41  1  0  0  0
  4 42  1  0  0  0
  5  6  1  0  0  0
  5 43  1  0  0  0
  5 44  1  0  0  0
  6  7  1  0  0  0
  7 12  1  0  0  0
  7  8  2  0  0  0
  8  9  1  0  0  0
  8 45  1  0  0  0
  9 10  2  0  0  0
  9 46  1  0  0  0
 10 11  1  0  0  0
 10 13  1  0  0  0
 11 12  2  0  0  0
 11 47  1  0  0  0
 12 48  1  0  0  0
 13 34  1  0  0  0
 13 32  1  0  0  0
 13 14  1  0  0  0
 14 20  1  0  0  0
 14 15  2  0  0  0
 15 16  1  0  0  0
 15 26  1  0  0  0
 16 17  1  0  0  0
 16 49  1  0  0  0
 16 50  1  0  0  0
 17 18  1  0  0  0
 17 51  1  0  0  0
 17 52  1  0  0  0
 18 19  1  0  0  0
 19 24  2  0  0  0
 19 20  1  0  0  0
 20 21  2  0  0  0
 21 22  1  0  0  0
 21 53  1  0  0  0
 22 23  2  0  0  0
 22 54  1  0  0  0
 23 24  1  0  0  0
 23 25  1  0  0  0
 24 55  1  0  0  0
 25 56  1  0  0  0
 26 31  2  0  0  0
 26 27  1  0  0  0
 27 28  2  0  0  0
 27 57  1  0  0  0
 28 29  1  0  0  0
 28 58  1  0  0  0
 29 30  2  0  0  0
 29 33  1  0  0  0
 30 31  1  0  0  0
 30 59  1  0  0  0
 31 32  1  0  0  0
 33 60  1  0  0  0
M  END
> <s_m_entry_id>
17219

> <s_m_entry_name>
ligand_docking-pose.146

> <s_m_Source_Path>
/home/csk/Desktop/cluster/DUD-E-result/esr1

> <s_m_Source_File>
ligand_docking-pose.sdf

> <i_m_Source_File_Index>
146

> <i_lp_mmshare_version>
53161

> <i_f3d_flags>
0

> <r_lp_tautomer_probability>
1

> <s_lp_Force_Field>
OPLS_2005

> <r_lp_Energy>
50.563995

> <b_lp_Chiralities_Consistent>
1

> <s_lp_Variant>
615214-1

> <s_i_glide_gridfile>
glide-grid_1sj0

> <i_i_glide_lignum>
1738

> <i_i_glide_rotatable_bonds>
7

> <r_i_docking_score>
-9.400614339977

> <r_i_glide_ligand_efficiency>
-0.284867101211424

> <r_i_glide_ligand_efficiency_sa>
-0.913721005557095

> <r_i_glide_ligand_efficiency_ln>
-2.0906479554348

> <r_i_glide_gscore>
-9.400614339977

> <r_i_glide_lipo>
-5.29346923862125

> <r_i_glide_hbond>
-0.561460185489831

> <r_i_glide_metal>
0

> <r_i_glide_rewards>
-1.27082883539479

> <r_i_glide_evdw>
-20.9761066436768

> <r_i_glide_ecoul>
-10.0554914474487

> <r_i_glide_erotb>
0.282272968830017

> <r_i_glide_esite>
0

> <r_i_glide_emodel>
-61.5506221559201

> <r_i_glide_energy>
-31.0315980911255

> <r_i_glide_einternal>
0.301680117845535

> <i_i_glide_confnum>
3

> <i_i_glide_posenum>
1

> <r_i_glide_eff_state_penalty>
0

> <s_user_duplicate_titles>
615214

> <s_m_subgroup_title>
dock_pv

> <s_m_subgroupid>
dock_pv1

> <b_m_subgroup_collapsed>
0

$$$$
357090
                    3D
 Schrodinger Suite 2021-1.
 43 46  0  0  1  0            999 V2000
   30.8997    1.7888   29.7862 C   0  0  0  0  0  0
   31.5418    0.5996   29.0831 C   0  0  0  0  0  0
   30.8547   -0.1827   28.2048 C   0  0  0  0  0  0
   29.4445   -0.1305   27.7374 C   0  0  0  0  0  0
   28.4599    0.8540   27.8634 C   0  0  0  0  0  0
   27.1525    0.5825   27.4640 C   0  0  0  0  0  0
   26.8079   -0.6758   26.9774 C   0  0  0  0  0  0
   27.7963   -1.6433   26.7985 C   0  0  0  0  0  0
   29.1181   -1.3553   27.1474 C   0  0  0  0  0  0
   30.3036   -2.2710   27.1702 C   0  0  0  0  0  0
   31.5025   -1.3519   27.4581 C   0  0  2  0  0  0
   32.5357   -1.9881   28.4289 C   0  0  0  0  0  0
   33.5873   -0.9753   28.9215 C   0  0  0  0  0  0
   32.9411    0.2978   29.4945 C   0  0  0  0  0  0
   33.6173    1.0580   30.1863 O   0  0  0  0  0  0
   32.1185   -0.7646   26.1377 C   0  0  0  0  0  0
   32.3743   -1.7319   24.9827 C   0  0  0  0  0  0
   33.2108   -2.8367   25.1377 C   0  0  0  0  0  0
   33.4613   -3.6743   24.0591 C   0  0  0  0  0  0
   32.8992   -3.4035   22.8206 C   0  0  0  0  0  0
   32.0507   -2.3220   22.6641 C   0  0  0  0  0  0
   31.7784   -1.4860   23.7431 C   0  0  0  0  0  0
   33.2612   -4.3966   21.4635 Cl  0  0  0  0  0  0
   25.4998   -0.9445   26.6631 O   0  0  0  0  0  0
   31.4584    2.1535   30.6509 H   0  0  0  0  0  0
   30.8025    2.6121   29.0744 H   0  0  0  0  0  0
   29.9096    1.5172   30.1539 H   0  0  0  0  0  0
   28.6758    1.8258   28.2775 H   0  0  0  0  0  0
   26.3972    1.3446   27.5710 H   0  0  0  0  0  0
   27.5322   -2.6155   26.4113 H   0  0  0  0  0  0
   30.4576   -2.8761   26.2755 H   0  0  0  0  0  0
   30.1348   -2.9680   27.9871 H   0  0  0  0  0  0
   32.0020   -2.3436   29.3071 H   0  0  0  0  0  0
   33.0129   -2.8708   28.0167 H   0  0  0  0  0  0
   34.2048   -0.6588   28.0827 H   0  0  0  0  0  0
   34.2568   -1.4066   29.6676 H   0  0  0  0  0  0
   33.0385   -0.2209   26.3412 H   0  0  0  0  0  0
   31.4491    0.0096   25.7564 H   0  0  0  0  0  0
   33.6832   -3.0491   26.0779 H   0  0  0  0  0  0
   34.0740   -4.5419   24.1892 H   0  0  0  0  0  0
   31.6129   -2.1423   21.6962 H   0  0  0  0  0  0
   31.1220   -0.6395   23.6038 H   0  0  0  0  0  0
   25.3512   -1.8198   26.2693 H   0  0  0  0  0  0
  1  2  1  0  0  0
  1 25  1  0  0  0
  1 26  1  0  0  0
  1 27  1  0  0  0
  2 14  1  0  0  0
  2  3  2  0  0  0
  3 11  1  0  0  0
  3  4  1  0  0  0
  4  9  2  0  0  0
  4  5  1  0  0  0
  5  6  2  0  0  0
  5 28  1  0  0  0
  6  7  1  0  0  0
  6 29  1  0  0  0
  7  8  2  0  0  0
  7 24  1  0  0  0
  8  9  1  0  0  0
  8 30  1  0  0  0
  9 10  1  0  0  0
 10 11  1  0  0  0
 10 31  1  0  0  0
 10 32  1  0  0  0
 11 12  1  0  0  0
 11 16  1  0  0  0
 12 13  1  0  0  0
 12 33  1  0  0  0
 12 34  1  0  0  0
 13 14  1  0  0  0
 13 35  1  0  0  0
 13 36  1  0  0  0
 14 15  2  0  0  0
 16 17  1  0  0  0
 16 37  1  0  0  0
 16 38  1  0  0  0
 17 22  1  0  0  0
 17 18  2  0  0  0
 18 19  1  0  0  0
 18 39  1  0  0  0
 19 20  2  0  0  0
 19 40  1  0  0  0
 20 21  1  0  0  0
 20 23  1  0  0  0
 21 22  2  0  0  0
 21 41  1  0  0  0
 22 42  1  0  0  0
 24 43  1  0  0  0
M  END
> <s_m_entry_id>
17220

> <s_m_entry_name>
ligand_docking-pose.147

> <s_m_Source_Path>
/home/csk/Desktop/cluster/DUD-E-result/esr1

> <s_m_Source_File>
ligand_docking-pose.sdf

> <i_m_Source_File_Index>
147

> <i_lp_mmshare_version>
53161

> <i_f3d_flags>
0

> <r_lp_tautomer_probability>
1

> <s_lp_Force_Field>
OPLS_2005

> <r_lp_Energy>
23.917493

> <b_lp_Chiralities_Consistent>
1

> <s_lp_Variant>
357090-1

> <s_i_glide_gridfile>
glide-grid_1sj0

> <i_i_glide_lignum>
864

> <i_i_glide_rotatable_bonds>
3

> <r_i_docking_score>
-9.38869418479136

> <r_i_glide_ligand_efficiency>
-0.391195591032973

> <r_i_glide_ligand_efficiency_sa>
-1.12840334495154

> <r_i_glide_ligand_efficiency_ln>
-2.24714533752416

> <r_i_glide_gscore>
-9.38869418479136

> <r_i_glide_lipo>
-5.0165046825663

> <r_i_glide_hbond>
-0.149309032157678

> <r_i_glide_metal>
0

> <r_i_glide_rewards>
-2.25621785120195

> <r_i_glide_evdw>
-39.4560356140137

> <r_i_glide_ecoul>
-2.15608882904053

> <r_i_glide_erotb>
0.329552486191333

> <r_i_glide_esite>
0

> <r_i_glide_emodel>
-59.4435488823432

> <r_i_glide_energy>
-41.6121244430542

> <r_i_glide_einternal>
4.75563430786133

> <i_i_glide_confnum>
6

> <i_i_glide_posenum>
20

> <r_i_glide_eff_state_penalty>
0

> <s_user_duplicate_titles>
357090

> <s_m_subgroup_title>
dock_pv

> <s_m_subgroupid>
dock_pv1

> <b_m_subgroup_collapsed>
0

$$$$
356847
                    3D
 Schrodinger Suite 2021-1.
 45 49  0  0  1  0            999 V2000
   31.7598    1.7418   30.0948 C   0  0  0  0  0  0
   32.1988    0.5807   29.2103 C   0  0  0  0  0  0
   31.3514   -0.0589   28.3639 C   0  0  0  0  0  0
   29.9523    0.2352   28.0295 C   0  0  0  0  0  0
   29.1959    1.3924   28.2063 C   0  0  0  0  0  0
   27.8484    1.4326   27.8637 C   0  0  0  0  0  0
   27.2766    0.2477   27.4054 C   0  0  0  0  0  0
   28.0242   -0.9309   27.2007 C   0  0  0  0  0  0
   29.3894   -0.9183   27.4920 C   0  0  0  0  0  0
   30.3889   -2.0317   27.4261 C   0  0  0  0  0  0
   31.7339   -1.2932   27.5292 C   0  0  2  0  0  0
   32.7837   -2.0703   28.3716 C   0  0  0  0  0  0
   33.9905   -1.1861   28.7467 C   0  0  0  0  0  0
   33.5936    0.1444   29.3990 C   0  0  0  0  0  0
   34.4597    0.8842   29.8632 O   0  0  0  0  0  0
   32.2274   -0.7975   26.1195 C   0  0  0  0  0  0
   32.4427   -1.8437   25.0223 C   0  0  0  0  0  0
   33.4236   -2.8276   25.1560 C   0  0  0  0  0  0
   33.6593   -3.7417   24.1364 C   0  0  0  0  0  0
   32.9301   -3.6877   22.9575 C   0  0  0  0  0  0
   31.9641   -2.7045   22.8014 C   0  0  0  0  0  0
   31.7097   -1.7877   23.8284 C   0  0  0  0  0  0
   31.2597   -2.6672   21.6532 F   0  0  0  0  0  0
   27.0705   -1.8742   26.7304 C   0  0  0  0  0  0
   25.8807   -1.3420   26.6642 N   0  0  0  0  0  0
   25.9877   -0.0795   27.0647 N   0  0  0  0  0  0
   25.1814    0.5331   27.0543 H   0  0  0  0  0  0
   32.3897    1.8699   30.9772 H   0  0  0  0  0  0
   31.7669    2.6595   29.5121 H   0  0  0  0  0  0
   30.7516    1.5769   30.4739 H   0  0  0  0  0  0
   29.6425    2.2919   28.5994 H   0  0  0  0  0  0
   27.2596    2.3136   28.0227 H   0  0  0  0  0  0
   30.3117   -2.6338   26.5220 H   0  0  0  0  0  0
   30.2136   -2.7030   28.2654 H   0  0  0  0  0  0
   32.3224   -2.4005   29.3000 H   0  0  0  0  0  0
   33.0995   -2.9904   27.8871 H   0  0  0  0  0  0
   34.4706   -0.9022   27.8201 H   0  0  0  0  0  0
   34.7226   -1.6971   29.3735 H   0  0  0  0  0  0
   33.1408   -0.2142   26.2233 H   0  0  0  0  0  0
   31.5116   -0.0712   25.7302 H   0  0  0  0  0  0
   34.0515   -2.8645   26.0274 H   0  0  0  0  0  0
   34.3987   -4.5052   24.2674 H   0  0  0  0  0  0
   33.1046   -4.4043   22.1672 H   0  0  0  0  0  0
   30.9502   -1.0338   23.6851 H   0  0  0  0  0  0
   27.2211   -2.9068   26.4507 H   0  0  0  0  0  0
  1  2  1  0  0  0
  1 28  1  0  0  0
  1 29  1  0  0  0
  1 30  1  0  0  0
  2 14  1  0  0  0
  2  3  2  0  0  0
  3 11  1  0  0  0
  3  4  1  0  0  0
  4  9  2  0  0  0
  4  5  1  0  0  0
  5  6  2  0  0  0
  5 31  1  0  0  0
  6  7  1  0  0  0
  6 32  1  0  0  0
  7 26  1  0  0  0
  7  8  2  0  0  0
  8  9  1  0  0  0
  8 24  1  0  0  0
  9 10  1  0  0  0
 10 11  1  0  0  0
 10 33  1  0  0  0
 10 34  1  0  0  0
 11 12  1  0  0  0
 11 16  1  0  0  0
 12 13  1  0  0  0
 12 35  1  0  0  0
 12 36  1  0  0  0
 13 14  1  0  0  0
 13 37  1  0  0  0
 13 38  1  0  0  0
 14 15  2  0  0  0
 16 17  1  0  0  0
 16 39  1  0  0  0
 16 40  1  0  0  0
 17 22  1  0  0  0
 17 18  2  0  0  0
 18 19  1  0  0  0
 18 41  1  0  0  0
 19 20  2  0  0  0
 19 42  1  0  0  0
 20 21  1  0  0  0
 20 43  1  0  0  0
 21 22  2  0  0  0
 21 23  1  0  0  0
 22 44  1  0  0  0
 24 25  2  0  0  0
 24 45  1  0  0  0
 25 26  1  0  0  0
 26 27  1  0  0  0
M  END
> <s_m_entry_id>
17221

> <s_m_entry_name>
ligand_docking-pose.148

> <s_m_Source_Path>
/home/csk/Desktop/cluster/DUD-E-result/esr1

> <s_m_Source_File>
ligand_docking-pose.sdf

> <i_m_Source_File_Index>
148

> <i_lp_mmshare_version>
53161

> <i_f3d_flags>
0

> <r_lp_tautomer_probability>
1

> <s_lp_Force_Field>
OPLS_2005

> <r_lp_Energy>
40.296335

> <b_lp_Chiralities_Consistent>
1

> <s_lp_Variant>
356847-1

> <s_i_glide_gridfile>
glide-grid_1sj0

> <i_i_glide_lignum>
850

> <i_i_glide_rotatable_bonds>
2

> <r_i_docking_score>
-9.38825216376421

> <r_i_glide_ligand_efficiency>
-0.361086621683239

> <r_i_glide_ligand_efficiency_sa>
-1.06971769592935

> <r_i_glide_ligand_efficiency_ln>
-2.20480021529208

> <r_i_glide_gscore>
-9.38825216376421

> <r_i_glide_lipo>
-5.1415535822783

> <r_i_glide_hbond>
-0.289808065471328

> <r_i_glide_metal>
0

> <r_i_glide_rewards>
-2.3363568903305

> <r_i_glide_evdw>
-34.5001678466797

> <r_i_glide_ecoul>
-1.30923056602478

> <r_i_glide_erotb>
0.316883524420928

> <r_i_glide_esite>
-0.0160241728673144

> <r_i_glide_emodel>
-41.1983680070794

> <r_i_glide_energy>
-35.8093984127045

> <r_i_glide_einternal>
1.31527304649353

> <i_i_glide_confnum>
6

> <i_i_glide_posenum>
289

> <r_i_glide_eff_state_penalty>
0

> <s_user_duplicate_titles>
356847

> <s_m_subgroup_title>
dock_pv

> <s_m_subgroupid>
dock_pv1

> <b_m_subgroup_collapsed>
0

$$$$
52346
                    3D
 Schrodinger Suite 2021-1.
 51 53  0  0  1  0            999 V2000
   34.8236    1.4116   29.0246 C   0  0  0  0  0  0
   34.6493    2.1955   27.7144 C   0  0  0  0  0  0
   33.3307    1.9411   26.9559 C   0  0  0  0  0  0
   33.0918    0.4638   26.5530 C   0  0  0  0  0  0
   31.7765   -0.1829   26.9552 C   0  0  0  0  0  0
   31.0908   -1.0637   26.1887 C   0  0  0  0  0  0
   31.7424   -1.7708   25.0586 C   0  0  0  0  0  0
   32.8576   -2.5678   25.3510 C   0  0  0  0  0  0
   33.4572   -3.3421   24.3649 C   0  0  0  0  0  0
   32.9400   -3.3337   23.0749 C   0  0  0  0  0  0
   31.8503   -2.5265   22.7616 C   0  0  0  0  0  0
   31.2585   -1.7377   23.7525 C   0  0  0  0  0  0
   33.4961   -4.1418   22.1206 O   0  0  0  0  0  0
   29.7393   -1.5149   26.5807 C   0  0  0  0  0  0
   28.5655   -0.9361   26.0925 C   0  0  0  0  0  0
   27.3242   -1.4145   26.5216 C   0  0  0  0  0  0
   27.2653   -2.4610   27.4442 C   0  0  0  0  0  0
   28.4339   -3.0229   27.9432 C   0  0  0  0  0  0
   29.6616   -2.5424   27.5083 C   0  0  0  0  0  0
   26.0604   -2.9570   27.8638 O   0  0  0  0  0  0
   31.3615    0.1393   28.3168 C   0  0  0  0  0  0
   32.1173   -0.4155   29.3534 C   0  0  0  0  0  0
   31.9295    0.0238   30.6508 C   0  0  0  0  0  0
   30.9699    0.9928   30.8936 C   0  0  0  0  0  0
   30.1325    1.4580   29.8762 C   0  0  0  0  0  0
   30.3399    1.0455   28.5722 C   0  0  0  0  0  0
   30.8593    1.4580   32.1642 O   0  0  0  0  0  0
   35.6618    1.7940   29.5967 H   0  0  0  0  0  0
   33.9517    1.5095   29.6662 H   0  0  0  0  0  0
   35.0109    0.3515   28.8559 H   0  0  0  0  0  0
   35.5056    2.0159   27.0616 H   0  0  0  0  0  0
   34.6703    3.2483   27.9754 H   0  0  0  0  0  0
   33.3235    2.5559   26.0564 H   0  0  0  0  0  0
   32.5136    2.3324   27.5596 H   0  0  0  0  0  0
   33.8111   -0.1563   27.0706 H   0  0  0  0  0  0
   33.2597    0.3407   25.4861 H   0  0  0  0  0  0
   33.2464   -2.6164   26.3593 H   0  0  0  0  0  0
   34.2951   -3.9752   24.6138 H   0  0  0  0  0  0
   31.4437   -2.5351   21.7615 H   0  0  0  0  0  0
   30.3938   -1.1377   23.5142 H   0  0  0  0  0  0
   32.9391   -4.2692   21.3460 H   0  0  0  0  0  0
   28.6143   -0.1215   25.3851 H   0  0  0  0  0  0
   26.4147   -0.9736   26.1402 H   0  0  0  0  0  0
   28.3890   -3.8319   28.6568 H   0  0  0  0  0  0
   30.5875   -2.9421   27.8679 H   0  0  0  0  0  0
   25.4528   -3.0889   27.1174 H   0  0  0  0  0  0
   32.9006   -1.1315   29.1471 H   0  0  0  0  0  0
   32.5500   -0.3517   31.4526 H   0  0  0  0  0  0
   29.3318    2.1545   30.0627 H   0  0  0  0  0  0
   29.7446    1.4525   27.7674 H   0  0  0  0  0  0
   30.1995    2.1495   32.2435 H   0  0  0  0  0  0
  1  2  1  0  0  0
  1 28  1  0  0  0
  1 29  1  0  0  0
  1 30  1  0  0  0
  2  3  1  0  0  0
  2 31  1  0  0  0
  2 32  1  0  0  0
  3  4  1  0  0  0
  3 33  1  0  0  0
  3 34  1  0  0  0
  4  5  1  0  0  0
  4 35  1  0  0  0
  4 36  1  0  0  0
  5  6  2  3  0  0
  5 21  1  0  0  0
  6  7  1  0  0  0
  6 14  1  0  0  0
  7 12  1  0  0  0
  7  8  2  0  0  0
  8  9  1  0  0  0
  8 37  1  0  0  0
  9 10  2  0  0  0
  9 38  1  0  0  0
 10 11  1  0  0  0
 10 13  1  0  0  0
 11 12  2  0  0  0
 11 39  1  0  0  0
 12 40  1  0  0  0
 13 41  1  0  0  0
 14 19  1  0  0  0
 14 15  2  0  0  0
 15 16  1  0  0  0
 15 42  1  0  0  0
 16 17  2  0  0  0
 16 43  1  0  0  0
 17 18  1  0  0  0
 17 20  1  0  0  0
 18 19  2  0  0  0
 18 44  1  0  0  0
 19 45  1  0  0  0
 20 46  1  0  0  0
 21 26  1  0  0  0
 21 22  2  0  0  0
 22 23  1  0  0  0
 22 47  1  0  0  0
 23 24  2  0  0  0
 23 48  1  0  0  0
 24 25  1  0  0  0
 24 27  1  0  0  0
 25 26  2  0  0  0
 25 49  1  0  0  0
 26 50  1  0  0  0
 27 51  1  0  0  0
M  END
> <s_m_entry_id>
17222

> <s_m_entry_name>
ligand_docking-pose.149

> <s_m_Source_Path>
/home/csk/Desktop/cluster/DUD-E-result/esr1

> <s_m_Source_File>
ligand_docking-pose.sdf

> <i_m_Source_File_Index>
149

> <i_lp_mmshare_version>
53161

> <i_f3d_flags>
0

> <r_lp_tautomer_probability>
1

> <s_lp_Force_Field>
OPLS_2005

> <r_lp_Energy>
26.966582

> <b_lp_Chiralities_Consistent>
1

> <s_lp_Variant>
52346-1

> <s_i_glide_gridfile>
glide-grid_1sj0

> <i_i_glide_lignum>
1437

> <i_i_glide_rotatable_bonds>
9

> <r_i_docking_score>
-9.38597542772517

> <r_i_glide_ligand_efficiency>
-0.347628719545377

> <r_i_glide_ligand_efficiency_sa>
-1.0428861574904

> <r_i_glide_ligand_efficiency_ln>
-2.18490033967591

> <r_i_glide_gscore>
-9.38597542772517

> <r_i_glide_lipo>
-5.79238134765258

> <r_i_glide_hbond>
-0.16

> <r_i_glide_metal>
0

> <r_i_glide_rewards>
-1.84454880632892

> <r_i_glide_evdw>
-34.082447052002

> <r_i_glide_ecoul>
-4.15351915359497

> <r_i_glide_erotb>
0.738104951895671

> <r_i_glide_esite>
0

> <r_i_glide_emodel>
-38.1259981198948

> <r_i_glide_energy>
-38.2359662055969

> <r_i_glide_einternal>
11.7956104278564

> <i_i_glide_confnum>
10

> <i_i_glide_posenum>
236

> <r_i_glide_eff_state_penalty>
0

> <s_user_duplicate_titles>
52346

> <s_m_subgroup_title>
dock_pv

> <s_m_subgroupid>
dock_pv1

> <b_m_subgroup_collapsed>
0

$$$$
150606
                    3D
 Schrodinger Suite 2021-1.
 61 65  0  0  1  0            999 V2000
   34.6998    1.4117   28.8993 C   0  0  0  0  0  0
   33.7730    0.7148   29.6648 C   0  0  0  0  0  0
   32.5192    0.4443   29.1356 C   0  0  0  0  0  0
   32.2007    0.8681   27.8409 C   0  0  0  0  0  0
   33.1438    1.5645   27.0769 C   0  0  0  0  0  0
   34.3987    1.8385   27.6094 C   0  0  0  0  0  0
   30.8600    0.4808   27.2293 C   0  0  1  0  0  0
   30.8041   -1.0453   26.9545 C   0  0  1  0  0  0
   29.6448   -1.4092   26.2650 O   0  0  0  0  0  0
   28.4369   -1.0253   26.7208 C   0  0  0  0  0  0
   27.4450   -1.7444   26.0967 C   0  0  0  0  0  0
   26.1520   -1.3427   26.2355 C   0  0  0  0  0  0
   25.8074   -0.3356   27.0638 C   0  0  0  0  0  0
   26.8029    0.4387   27.6780 C   0  0  0  0  0  0
   28.1539    0.1035   27.4949 C   0  0  0  0  0  0
   29.4532    1.0280   28.2664 S   0  0  0  0  0  0
   24.4682   -0.1420   27.0639 O   0  0  0  0  0  0
   31.8457   -1.5638   25.9814 C   0  0  0  0  0  0
   31.7829   -1.1100   24.6595 C   0  0  0  0  0  0
   32.5139   -1.7439   23.6724 C   0  0  0  0  0  0
   33.3570   -2.7977   24.0071 C   0  0  0  0  0  0
   33.4236   -3.2468   25.3200 C   0  0  0  0  0  0
   32.6726   -2.6352   26.3172 C   0  0  0  0  0  0
   34.2168   -3.3626   23.1053 O   0  0  0  0  0  0
   33.7520   -3.6651   21.7980 C   0  0  0  0  0  0
   34.5190   -2.7818   20.8014 C   0  0  0  0  0  0
   34.6714   -3.3832   19.4676 N   0  0  0  0  0  0
   33.3957   -3.8038   18.8558 C   0  0  0  0  0  0
   32.4738   -2.6099   18.5248 C   0  0  0  0  0  0
   33.1927   -1.5915   17.6276 C   0  0  0  0  0  0
   34.5673   -1.2096   18.1971 C   0  0  0  0  0  0
   35.3931   -2.4646   18.5714 C   0  0  0  0  0  0
   35.6599    1.6342   29.3253 H   0  0  0  0  0  0
   34.0282    0.3845   30.6599 H   0  0  0  0  0  0
   31.8035   -0.1094   29.7261 H   0  0  0  0  0  0
   32.9183    1.8719   26.0665 H   0  0  0  0  0  0
   35.1420    2.3639   27.0276 H   0  0  0  0  0  0
   30.7328    1.0272   26.2975 H   0  0  0  0  0  0
   30.8645   -1.6154   27.8851 H   0  0  0  0  0  0
   27.6606   -2.5406   25.4129 H   0  0  0  0  0  0
   25.3849   -1.7417   25.6099 H   0  0  0  0  0  0
   26.5292    1.3038   28.2620 H   0  0  0  0  0  0
   24.3100    0.8191   27.0635 H   0  0  0  0  0  0
   31.1095   -0.3127   24.3804 H   0  0  0  0  0  0
   32.4550   -1.3856   22.6640 H   0  0  0  0  0  0
   34.0514   -4.0927   25.5424 H   0  0  0  0  0  0
   32.6950   -3.0256   27.3240 H   0  0  0  0  0  0
   32.6717   -3.5636   21.6795 H   0  0  0  0  0  0
   33.9812   -4.7168   21.6213 H   0  0  0  0  0  0
   35.5173   -2.5979   21.2008 H   0  0  0  0  0  0
   34.0300   -1.8114   20.7528 H   0  0  0  0  0  0
   32.8717   -4.5087   19.5020 H   0  0  0  0  0  0
   33.6233   -4.3672   17.9493 H   0  0  0  0  0  0
   32.1011   -2.1522   19.4412 H   0  0  0  0  0  0
   31.5827   -2.9787   18.0153 H   0  0  0  0  0  0
   33.3584   -2.0472   16.6584 H   0  0  0  0  0  0
   32.5664   -0.7158   17.4628 H   0  0  0  0  0  0
   35.1171   -0.6296   17.4546 H   0  0  0  0  0  0
   34.4737   -0.5431   19.0515 H   0  0  0  0  0  0
   36.3343   -2.1688   19.0382 H   0  0  0  0  0  0
   35.6724   -3.0146   17.6705 H   0  0  0  0  0  0
  1  6  1  0  0  0
  1  2  2  0  0  0
  1 33  1  0  0  0
  2  3  1  0  0  0
  2 34  1  0  0  0
  3  4  2  0  0  0
  3 35  1  0  0  0
  4  5  1  0  0  0
  4  7  1  0  0  0
  5  6  2  0  0  0
  5 36  1  0  0  0
  6 37  1  0  0  0
  7 16  1  0  0  0
  7  8  1  0  0  0
  7 38  1  0  0  0
  8  9  1  0  0  0
  8 18  1  0  0  0
  8 39  1  0  0  0
  9 10  1  0  0  0
 10 15  2  0  0  0
 10 11  1  0  0  0
 11 12  2  0  0  0
 11 40  1  0  0  0
 12 13  1  0  0  0
 12 41  1  0  0  0
 13 14  2  0  0  0
 13 17  1  0  0  0
 14 15  1  0  0  0
 14 42  1  0  0  0
 15 16  1  0  0  0
 17 43  1  0  0  0
 18 23  1  0  0  0
 18 19  2  0  0  0
 19 20  1  0  0  0
 19 44  1  0  0  0
 20 21  2  0  0  0
 20 45  1  0  0  0
 21 22  1  0  0  0
 21 24  1  0  0  0
 22 23  2  0  0  0
 22 46  1  0  0  0
 23 47  1  0  0  0
 24 25  1  0  0  0
 25 26  1  0  0  0
 25 48  1  0  0  0
 25 49  1  0  0  0
 26 27  1  0  0  0
 26 50  1  0  0  0
 26 51  1  0  0  0
 27 32  1  0  0  0
 27 28  1  0  0  0
 28 29  1  0  0  0
 28 52  1  0  0  0
 28 53  1  0  0  0
 29 30  1  0  0  0
 29 54  1  0  0  0
 29 55  1  0  0  0
 30 31  1  0  0  0
 30 56  1  0  0  0
 30 57  1  0  0  0
 31 32  1  0  0  0
 31 58  1  0  0  0
 31 59  1  0  0  0
 32 60  1  0  0  0
 32 61  1  0  0  0
M  END
> <s_m_entry_id>
17223

> <s_m_entry_name>
ligand_docking-pose.150

> <s_m_Source_Path>
/home/csk/Desktop/cluster/DUD-E-result/esr1

> <s_m_Source_File>
ligand_docking-pose.sdf

> <i_m_Source_File_Index>
150

> <i_lp_mmshare_version>
53161

> <i_f3d_flags>
0

> <r_lp_tautomer_probability>
1

> <s_lp_Force_Field>
OPLS_2005

> <r_lp_Energy>
39.752676

> <b_lp_Chiralities_Consistent>
1

> <s_lp_Variant>
150606-2

> <s_i_glide_gridfile>
glide-grid_1sj0

> <i_i_glide_lignum>
369

> <i_i_glide_rotatable_bonds>
7

> <r_i_docking_score>
-9.38553909705685

> <r_i_glide_ligand_efficiency>
-0.293298096783027

> <r_i_glide_ligand_efficiency_sa>
-0.931163413671572

> <r_i_glide_ligand_efficiency_ln>
-2.1016780439642

> <r_i_glide_gscore>
-9.38553909705685

> <r_i_glide_lipo>
-5.88297241282974

> <r_i_glide_hbond>
-0.381672743603767

> <r_i_glide_metal>
0

> <r_i_glide_rewards>
-0.812383615977926

> <r_i_glide_evdw>
-34.161735534668

> <r_i_glide_ecoul>
-7.33485317230225

> <r_i_glide_erotb>
0.499804427933323

> <r_i_glide_esite>
0

> <r_i_glide_emodel>
-63.7900071327671

> <r_i_glide_energy>
-41.4965887069702

> <r_i_glide_einternal>
12.2228851318359

> <i_i_glide_confnum>
4

> <i_i_glide_posenum>
7

> <r_i_glide_eff_state_penalty>
0

> <s_user_duplicate_titles>
150606

> <s_m_subgroup_title>
dock_pv

> <s_m_subgroupid>
dock_pv1

> <b_m_subgroup_collapsed>
0

$$$$
396503
                    3D
 Schrodinger Suite 2021-1.
 39 42  0  0  1  0            999 V2000
   32.8694   -2.7440   25.3718 C   0  0  0  0  0  0
   33.7076   -3.4454   24.5080 C   0  0  0  0  0  0
   33.6067   -3.2658   23.1295 C   0  0  0  0  0  0
   32.6801   -2.3798   22.6108 C   0  0  0  0  0  0
   31.8987   -1.6247   23.4712 C   0  0  0  0  0  0
   31.9839   -1.7954   24.8550 C   0  0  0  0  0  0
   31.0776   -0.9533   25.7527 C   0  0  2  0  0  0
   31.7842   -0.0216   26.7761 C   0  0  2  0  0  0
   32.6040   -0.6895   27.8935 C   0  0  0  0  0  0
   32.6532    0.3664   28.9927 C   0  0  0  0  0  0
   31.2388    0.9493   28.9976 C   0  0  0  0  0  0
   30.7496    0.8717   27.5346 C   0  0  2  0  0  0
   29.3120    0.3542   27.3802 C   0  0  0  0  0  0
   28.2032    1.1593   27.6402 C   0  0  0  0  0  0
   26.9117    0.6677   27.4641 C   0  0  0  0  0  0
   26.6967   -0.6469   27.0633 C   0  0  0  0  0  0
   27.7856   -1.4627   26.7689 C   0  0  0  0  0  0
   29.0770   -0.9493   26.8981 C   0  0  0  0  0  0
   30.1114   -1.7410   26.4486 O   0  0  0  0  0  0
   25.4140   -1.0959   26.8968 O   0  0  0  0  0  0
   34.4191   -3.9459   22.2639 O   0  0  0  0  0  0
   30.5507   -0.2927   25.0555 H   0  0  0  0  0  0
   32.4536    0.6388   26.2205 H   0  0  0  0  0  0
   30.8124    1.8558   27.0713 H   0  0  0  0  0  0
   32.9329   -2.9258   26.4336 H   0  0  0  0  0  0
   34.4250   -4.1415   24.9094 H   0  0  0  0  0  0
   32.5933   -2.2413   21.5438 H   0  0  0  0  0  0
   31.2302   -0.8881   23.0668 H   0  0  0  0  0  0
   32.0985   -1.5835   28.2649 H   0  0  0  0  0  0
   33.6026   -0.9805   27.5689 H   0  0  0  0  0  0
   32.9358   -0.0529   29.9597 H   0  0  0  0  0  0
   33.3834    1.1384   28.7423 H   0  0  0  0  0  0
   31.2601    1.9704   29.3828 H   0  0  0  0  0  0
   30.6357    0.3116   29.6469 H   0  0  0  0  0  0
   28.3405    2.1766   27.9754 H   0  0  0  0  0  0
   26.0726    1.3157   27.6510 H   0  0  0  0  0  0
   27.6352   -2.4672   26.3998 H   0  0  0  0  0  0
   25.3337   -1.9488   26.4405 H   0  0  0  0  0  0
   34.1327   -3.8896   21.3479 H   0  0  0  0  0  0
  1  6  1  0  0  0
  1  2  2  0  0  0
  1 25  1  0  0  0
  2  3  1  0  0  0
  2 26  1  0  0  0
  3  4  2  0  0  0
  3 21  1  0  0  0
  4  5  1  0  0  0
  4 27  1  0  0  0
  5  6  2  0  0  0
  5 28  1  0  0  0
  6  7  1  0  0  0
  7 22  1  0  0  0
  7 19  1  0  0  0
  7  8  1  0  0  0
  8 23  1  0  0  0
  8 12  1  0  0  0
  8  9  1  0  0  0
  9 10  1  0  0  0
  9 29  1  0  0  0
  9 30  1  0  0  0
 10 11  1  0  0  0
 10 31  1  0  0  0
 10 32  1  0  0  0
 11 12  1  0  0  0
 11 33  1  0  0  0
 11 34  1  0  0  0
 12 24  1  0  0  0
 12 13  1  0  0  0
 13 18  2  0  0  0
 13 14  1  0  0  0
 14 15  2  0  0  0
 14 35  1  0  0  0
 15 16  1  0  0  0
 15 36  1  0  0  0
 16 17  2  0  0  0
 16 20  1  0  0  0
 17 18  1  0  0  0
 17 37  1  0  0  0
 18 19  1  0  0  0
 20 38  1  0  0  0
 21 39  1  0  0  0
M  END
> <s_m_entry_id>
17224

> <s_m_entry_name>
ligand_docking-pose.151

> <s_m_Source_Path>
/home/csk/Desktop/cluster/DUD-E-result/esr1

> <s_m_Source_File>
ligand_docking-pose.sdf

> <i_m_Source_File_Index>
151

> <i_lp_mmshare_version>
53161

> <i_f3d_flags>
0

> <r_lp_tautomer_probability>
0.999999999938865

> <s_lp_Force_Field>
OPLS_2005

> <r_lp_Energy>
33.901896

> <b_lp_Chiralities_Consistent>
1

> <s_lp_Variant>
396503-1

> <s_i_glide_gridfile>
glide-grid_1sj0

> <i_i_glide_lignum>
481

> <i_i_glide_rotatable_bonds>
3

> <r_i_docking_score>
-9.3797694177247

> <r_i_glide_ligand_efficiency>
-0.446655686558319

> <r_i_glide_ligand_efficiency_sa>
-1.23228917091328

> <r_i_glide_ligand_efficiency_ln>
-2.31912903492368

> <r_i_glide_gscore>
-9.3797694177247

> <r_i_glide_lipo>
-4.8365620591495

> <r_i_glide_hbond>
-0.167278823512803

> <r_i_glide_metal>
0

> <r_i_glide_rewards>
-2.38408827272727

> <r_i_glide_evdw>
-33.5678253173828

> <r_i_glide_ecoul>
-3.1488344669342

> <r_i_glide_erotb>
0.158876173574142

> <r_i_glide_esite>
0

> <r_i_glide_emodel>
-43.2353676307808

> <r_i_glide_energy>
-36.716659784317

> <r_i_glide_einternal>
4.44347906112671

> <i_i_glide_confnum>
1

> <i_i_glide_posenum>
4

> <r_i_glide_eff_state_penalty>
0

> <s_user_duplicate_titles>
396503

> <s_m_subgroup_title>
dock_pv

> <s_m_subgroupid>
dock_pv1

> <b_m_subgroup_collapsed>
0

$$$$
373393
                    3D
 Schrodinger Suite 2021-1.
 34 36  0  0  1  0            999 V2000
   27.9069   -0.2411   26.6161 C   0  0  0  0  0  0
   29.0454   -0.8431   26.1017 C   0  0  0  0  0  0
   30.2917   -0.3851   26.5387 C   0  0  0  0  0  0
   30.3658    0.6333   27.5193 C   0  0  0  0  0  0
   29.2204    1.2639   28.0139 C   0  0  0  0  0  0
   28.0016    0.8232   27.4999 C   0  0  0  0  0  0
   26.8600    1.4580   27.8639 O   0  0  0  0  0  0
   31.7166    0.7714   27.7890 N   0  0  0  0  0  0
   32.4616   -0.0501   27.0227 N   0  0  0  0  0  0
   31.6405   -0.6957   26.2312 C   0  0  0  0  0  0
   32.1032   -1.6278   25.1753 C   0  0  0  0  0  0
   31.6589   -1.4338   23.8642 C   0  0  0  0  0  0
   32.0769   -2.2888   22.8441 C   0  0  0  0  0  0
   32.9685   -3.3174   23.1232 C   0  0  0  0  0  0
   33.4012   -3.5198   24.4288 C   0  0  0  0  0  0
   32.9331   -2.7131   25.4609 C   0  0  0  0  0  0
   33.2599   -3.0081   26.7557 O   0  0  0  0  0  0
   33.4034   -4.1420   22.1252 O   0  0  0  0  0  0
   32.3676    1.5537   28.8352 C   0  0  0  0  0  0
   32.4670    0.7597   30.1533 C   0  0  0  0  0  0
   33.1273    1.4578   31.0742 F   0  0  0  0  0  0
   31.2617    0.4906   30.6543 F   0  0  0  0  0  0
   33.1103   -0.3972   29.9963 F   0  0  0  0  0  0
   26.9404   -0.5790   26.2691 H   0  0  0  0  0  0
   28.9683   -1.6387   25.3778 H   0  0  0  0  0  0
   29.2651    2.0656   28.7354 H   0  0  0  0  0  0
   26.0888    1.1739   27.3657 H   0  0  0  0  0  0
   30.9903   -0.6171   23.6333 H   0  0  0  0  0  0
   31.7238   -2.1426   21.8345 H   0  0  0  0  0  0
   34.0602   -4.3412   24.6464 H   0  0  0  0  0  0
   32.9175   -2.3406   27.3562 H   0  0  0  0  0  0
   32.8815   -4.0864   21.3203 H   0  0  0  0  0  0
   33.3630    1.8399   28.4912 H   0  0  0  0  0  0
   31.8039    2.4742   28.9833 H   0  0  0  0  0  0
  1  6  1  0  0  0
  1  2  2  0  0  0
  1 24  1  0  0  0
  2  3  1  0  0  0
  2 25  1  0  0  0
  3 10  1  0  0  0
  3  4  2  0  0  0
  4  5  1  0  0  0
  4  8  1  0  0  0
  5  6  2  0  0  0
  5 26  1  0  0  0
  6  7  1  0  0  0
  7 27  1  0  0  0
  8  9  1  0  0  0
  8 19  1  0  0  0
  9 10  2  0  0  0
 10 11  1  0  0  0
 11 16  1  0  0  0
 11 12  2  0  0  0
 12 13  1  0  0  0
 12 28  1  0  0  0
 13 14  2  0  0  0
 13 29  1  0  0  0
 14 15  1  0  0  0
 14 18  1  0  0  0
 15 16  2  0  0  0
 15 30  1  0  0  0
 16 17  1  0  0  0
 17 31  1  0  0  0
 18 32  1  0  0  0
 19 20  1  0  0  0
 19 33  1  0  0  0
 19 34  1  0  0  0
 20 21  1  0  0  0
 20 22  1  0  0  0
 20 23  1  0  0  0
M  END
> <s_m_entry_id>
17225

> <s_m_entry_name>
ligand_docking-pose.152

> <s_m_Source_Path>
/home/csk/Desktop/cluster/DUD-E-result/esr1

> <s_m_Source_File>
ligand_docking-pose.sdf

> <i_m_Source_File_Index>
152

> <i_lp_mmshare_version>
53161

> <i_f3d_flags>
0

> <r_lp_tautomer_probability>
0.999999999898

> <s_lp_Force_Field>
OPLS_2005

> <r_lp_Energy>
21.939613

> <b_lp_Chiralities_Consistent>
1

> <s_lp_Variant>
373393-1

> <s_i_glide_gridfile>
glide-grid_1sj0

> <i_i_glide_lignum>
34

> <i_i_glide_rotatable_bonds>
6

> <r_i_docking_score>
-9.37972537659848

> <r_i_glide_ligand_efficiency>
-0.40781414680863

> <r_i_glide_ligand_efficiency_sa>
-1.15976918481325

> <r_i_glide_ligand_efficiency_ln>
-2.26810264670896

> <r_i_glide_gscore>
-9.37972537659848

> <r_i_glide_lipo>
-4.13182946972342

> <r_i_glide_hbond>
-0.147944200558613

> <r_i_glide_metal>
0

> <r_i_glide_rewards>
-3.36003356388225

> <r_i_glide_evdw>
-33.0356254577637

> <r_i_glide_ecoul>
-2.96218752861023

> <r_i_glide_erotb>
0.356191259745518

> <r_i_glide_esite>
0

> <r_i_glide_emodel>
-51.4365470180808

> <r_i_glide_energy>
-35.9978129863739

> <r_i_glide_einternal>
4.9614520072937

> <i_i_glide_confnum>
3

> <i_i_glide_posenum>
370

> <r_i_glide_eff_state_penalty>
0

> <s_user_duplicate_titles>
373393

> <s_m_subgroup_title>
dock_pv

> <s_m_subgroupid>
dock_pv1

> <b_m_subgroup_collapsed>
0

$$$$
333998
                    3D
 Schrodinger Suite 2021-1.
 33 35  0  0  1  0            999 V2000
   32.5938   -2.9425   23.9608 C   0  0  0  0  0  0
   31.6602   -1.9112   23.9551 C   0  0  0  0  0  0
   31.3345   -1.2573   25.1344 C   0  0  0  0  0  0
   31.9522   -1.6357   26.3246 C   0  0  0  0  0  0
   32.8638   -2.6933   26.3394 C   0  0  0  0  0  0
   33.1967   -3.3385   25.1511 C   0  0  0  0  0  0
   31.6656   -0.8547   27.5487 C   0  0  0  0  0  0
   30.4933   -0.3267   28.1022 C   0  0  0  0  0  0
   30.7587    0.4049   29.1747 N   0  0  0  0  0  0
   32.0462    0.3209   29.3619 C   0  0  0  0  0  0
   32.6490   -0.4439   28.4057 N   0  0  0  0  0  0
   32.7667    0.8457   30.5697 C   0  0  0  0  0  0
   32.1123    1.8555   31.1430 F   0  0  0  0  0  0
   32.8601   -0.1219   31.4639 F   0  0  0  0  0  0
   33.9994    1.2478   30.2636 F   0  0  0  0  0  0
   29.0799   -0.4984   27.6664 C   0  0  0  0  0  0
   28.6176   -1.7311   27.1901 C   0  0  0  0  0  0
   27.2711   -1.8899   26.8623 C   0  0  0  0  0  0
   26.3972   -0.8154   27.0107 C   0  0  0  0  0  0
   26.8601    0.4141   27.4640 C   0  0  0  0  0  0
   28.1983    0.5774   27.7853 C   0  0  0  0  0  0
   25.0796   -0.9420   26.6637 O   0  0  0  0  0  0
   33.6349   -0.6528   28.3362 H   0  0  0  0  0  0
   32.8429   -3.4467   23.0370 H   0  0  0  0  0  0
   31.1787   -1.6158   23.0466 H   0  0  0  0  0  0
   30.6229   -0.4427   25.1176 H   0  0  0  0  0  0
   33.3336   -2.9980   27.2629 H   0  0  0  0  0  0
   33.9174   -4.1419   25.1466 H   0  0  0  0  0  0
   29.2912   -2.5708   27.0986 H   0  0  0  0  0  0
   26.9117   -2.8415   26.4972 H   0  0  0  0  0  0
   26.1795    1.2463   27.5416 H   0  0  0  0  0  0
   28.5444    1.5379   28.1377 H   0  0  0  0  0  0
   24.8880   -1.8091   26.2643 H   0  0  0  0  0  0
  1  6  1  0  0  0
  1  2  2  0  0  0
  1 24  1  0  0  0
  2  3  1  0  0  0
  2 25  1  0  0  0
  3  4  2  0  0  0
  3 26  1  0  0  0
  4  5  1  0  0  0
  4  7  1  0  0  0
  5  6  2  0  0  0
  5 27  1  0  0  0
  6 28  1  0  0  0
  7  8  2  0  0  0
  7 11  1  0  0  0
  8 16  1  0  0  0
  8  9  1  0  0  0
  9 10  2  0  0  0
 10 11  1  0  0  0
 10 12  1  0  0  0
 11 23  1  0  0  0
 12 13  1  0  0  0
 12 14  1  0  0  0
 12 15  1  0  0  0
 16 21  1  0  0  0
 16 17  2  0  0  0
 17 18  1  0  0  0
 17 29  1  0  0  0
 18 19  2  0  0  0
 18 30  1  0  0  0
 19 20  1  0  0  0
 19 22  1  0  0  0
 20 21  2  0  0  0
 20 31  1  0  0  0
 21 32  1  0  0  0
 22 33  1  0  0  0
M  END
> <s_m_entry_id>
17226

> <s_m_entry_name>
ligand_docking-pose.153

> <s_m_Source_Path>
/home/csk/Desktop/cluster/DUD-E-result/esr1

> <s_m_Source_File>
ligand_docking-pose.sdf

> <i_m_Source_File_Index>
153

> <i_lp_mmshare_version>
53161

> <i_f3d_flags>
0

> <r_lp_tautomer_probability>
0.49999999999934

> <s_lp_Force_Field>
OPLS_2005

> <r_lp_Energy>
16.380768

> <b_lp_Chiralities_Consistent>
1

> <s_lp_Variant>
333998-2

> <s_i_glide_gridfile>
glide-grid_1sj0

> <i_i_glide_lignum>
356

> <i_i_glide_rotatable_bonds>
4

> <r_i_docking_score>
-9.37078575224642

> <r_i_glide_ligand_efficiency>
-0.425944806920292

> <r_i_glide_ligand_efficiency_sa>
-1.19351410044934

> <r_i_glide_ligand_efficiency_ln>
-2.29056184556432

> <r_i_glide_gscore>
-9.37078575224642

> <r_i_glide_lipo>
-3.7618465050381

> <r_i_glide_hbond>
-0.215820439882507

> <r_i_glide_metal>
0

> <r_i_glide_rewards>
-3.31467997448427

> <r_i_glide_evdw>
-34.6961669921875

> <r_i_glide_ecoul>
-4.1498761177063

> <r_i_glide_erotb>
0.278850934423774

> <r_i_glide_esite>
0

> <r_i_glide_emodel>
-58.4052086853496

> <r_i_glide_energy>
-38.8460431098938

> <r_i_glide_einternal>
3.56546354293823

> <i_i_glide_confnum>
5

> <i_i_glide_posenum>
236

> <r_i_glide_eff_state_penalty>
0

> <s_user_duplicate_titles>
333998

> <s_m_subgroup_title>
dock_pv

> <s_m_subgroupid>
dock_pv1

> <b_m_subgroup_collapsed>
0

$$$$
491907
                    3D
 Schrodinger Suite 2021-1.
 54 58  0  0  1  0            999 V2000
   27.1924   -3.7526   27.1193 C   0  0  0  0  0  0
   27.2452   -2.6571   26.2625 C   0  0  0  0  0  0
   28.2545   -1.7319   26.3786 C   0  0  0  0  0  0
   29.1957   -1.8890   27.3833 C   0  0  0  0  0  0
   29.0998   -2.9419   28.2653 C   0  0  0  0  0  0
   28.0881   -3.8832   28.1620 C   0  0  0  0  0  0
   30.2552   -0.9033   27.6166 C   0  0  0  0  0  0
   29.9332    0.4115   27.9047 C   0  0  0  0  0  0
   30.9422    1.3622   28.0674 C   0  0  0  0  0  0
   32.2892    0.9513   28.1203 C   0  0  0  0  0  0
   33.3516    1.8590   28.2629 C   0  0  0  0  0  0
   34.6402    1.3848   28.4796 C   0  0  0  0  0  0
   34.8993    0.0288   28.5847 C   0  0  0  0  0  0
   33.8827   -0.8831   28.3469 C   0  0  0  0  0  0
   32.5884   -0.4334   28.0351 C   0  0  0  0  0  0
   31.5781   -1.3169   27.6310 C   0  0  0  0  0  0
   31.8940   -2.5620   27.1721 O   0  0  0  0  0  0
   32.2320   -2.6718   25.8448 C   0  0  0  0  0  0
   33.2370   -3.5735   25.5658 C   0  0  0  0  0  0
   33.6697   -3.7421   24.2646 C   0  0  0  0  0  0
   33.0998   -3.0336   23.2177 C   0  0  0  0  0  0
   32.0517   -2.1595   23.4852 C   0  0  0  0  0  0
   31.6274   -1.9574   24.7980 C   0  0  0  0  0  0
   33.6747   -3.1434   21.8720 C   0  0  0  0  0  0
   33.2532   -3.9953   20.9184 C   0  0  0  0  0  0
   33.8726   -4.0430   19.6171 C   0  0  0  0  0  0
   34.8393   -3.3630   19.2775 O   0  0  0  0  0  0
   33.2600   -4.9352   18.7904 O   0  0  0  0  0  0
   35.6591    2.2667   28.6197 O   0  0  0  0  0  0
   28.4665    0.7450   28.0132 C   0  0  0  0  0  0
   27.9397    2.0899   28.2383 C   0  0  0  0  0  0
   27.7973    1.4546   26.8916 C   0  0  0  0  0  0
   26.4617   -4.5377   26.9687 H   0  0  0  0  0  0
   26.5064   -2.5450   25.4803 H   0  0  0  0  0  0
   28.3146   -0.9028   25.6901 H   0  0  0  0  0  0
   29.8276   -2.9626   29.0567 H   0  0  0  0  0  0
   28.0310   -4.7142   28.8476 H   0  0  0  0  0  0
   30.7245    2.4044   28.2123 H   0  0  0  0  0  0
   33.1451    2.9163   28.2459 H   0  0  0  0  0  0
   35.8982   -0.3241   28.8006 H   0  0  0  0  0  0
   34.0554   -1.9457   28.4016 H   0  0  0  0  0  0
   33.6576   -4.1568   26.3676 H   0  0  0  0  0  0
   34.4588   -4.4411   24.0979 H   0  0  0  0  0  0
   31.5860   -1.6580   22.6623 H   0  0  0  0  0  0
   30.8221   -1.2640   24.9874 H   0  0  0  0  0  0
   34.4990   -2.4733   21.6727 H   0  0  0  0  0  0
   32.4357   -4.6742   21.1046 H   0  0  0  0  0  0
   32.5091   -5.3948   19.1995 H   0  0  0  0  0  0
   36.5474    1.8647   28.6513 H   0  0  0  0  0  0
   27.9002    0.0024   28.5710 H   0  0  0  0  0  0
   26.9603    2.2603   28.6640 H   0  0  0  0  0  0
   28.7385    2.6581   28.6642 H   0  0  0  0  0  0
   28.3626    1.8324   26.0405 H   0  0  0  0  0  0
   26.7949    1.1019   26.6659 H   0  0  0  0  0  0
  1  6  1  0  0  0
  1  2  2  0  0  0
  1 33  1  0  0  0
  2  3  1  0  0  0
  2 34  1  0  0  0
  3  4  2  0  0  0
  3 35  1  0  0  0
  4  5  1  0  0  0
  4  7  1  0  0  0
  5  6  2  0  0  0
  5 36  1  0  0  0
  6 37  1  0  0  0
  7 16  1  0  0  0
  7  8  2  0  0  0
  8  9  1  0  0  0
  8 30  1  0  0  0
  9 10  2  0  0  0
  9 38  1  0  0  0
 10 15  1  0  0  0
 10 11  1  0  0  0
 11 12  2  0  0  0
 11 39  1  0  0  0
 12 13  1  0  0  0
 12 29  1  0  0  0
 13 14  2  0  0  0
 13 40  1  0  0  0
 14 15  1  0  0  0
 14 41  1  0  0  0
 15 16  2  0  0  0
 16 17  1  0  0  0
 17 18  1  0  0  0
 18 23  1  0  0  0
 18 19  2  0  0  0
 19 20  1  0  0  0
 19 42  1  0  0  0
 20 21  2  0  0  0
 20 43  1  0  0  0
 21 22  1  0  0  0
 21 24  1  0  0  0
 22 23  2  0  0  0
 22 44  1  0  0  0
 23 45  1  0  0  0
 24 25  2  0  0  0
 24 46  1  0  0  0
 25 26  1  0  0  0
 25 47  1  0  0  0
 26 27  2  0  0  0
 26 28  1  0  0  0
 28 48  1  0  0  0
 29 49  1  0  0  0
 30 32  1  0  0  0
 30 31  1  0  0  0
 30 50  1  0  0  0
 31 32  1  0  0  0
 31 51  1  0  0  0
 31 52  1  0  0  0
 32 53  1  0  0  0
 32 54  1  0  0  0
M  END
> <s_m_entry_id>
17227

> <s_m_entry_name>
ligand_docking-pose.154

> <s_m_Source_Path>
/home/csk/Desktop/cluster/DUD-E-result/esr1

> <s_m_Source_File>
ligand_docking-pose.sdf

> <i_m_Source_File_Index>
154

> <i_lp_mmshare_version>
53161

> <i_f3d_flags>
0

> <r_lp_tautomer_probability>
1

> <s_lp_Force_Field>
OPLS_2005

> <r_lp_Energy>
36.04162

> <b_lp_Chiralities_Consistent>
1

> <s_lp_Variant>
491907-1

> <s_i_glide_gridfile>
glide-grid_1sj0

> <i_i_glide_lignum>
305

> <i_i_glide_rotatable_bonds>
8

> <r_i_docking_score>
-9.36977403218952

> <r_i_glide_ligand_efficiency>
-0.292805438505923

> <r_i_glide_ligand_efficiency_sa>
-0.929599321138708

> <r_i_glide_ligand_efficiency_ln>
-2.09814781620097

> <r_i_glide_gscore>
-9.36977403218952

> <r_i_glide_lipo>
-5.75879812443932

> <r_i_glide_hbond>
-0.304

> <r_i_glide_metal>
0

> <r_i_glide_rewards>
-1.42860081818182

> <r_i_glide_evdw>
-14.7165117263794

> <r_i_glide_ecoul>
-11.7481288909912

> <r_i_glide_erotb>
0.665972975350212

> <r_i_glide_esite>
-0.0463031449509444

> <r_i_glide_emodel>
-41.0871562590507

> <r_i_glide_energy>
-26.4646406173706

> <r_i_glide_einternal>
9.38186359405518

> <i_i_glide_confnum>
3

> <i_i_glide_posenum>
35

> <r_i_glide_eff_state_penalty>
0

> <s_user_duplicate_titles>
491907

> <s_m_subgroup_title>
dock_pv

> <s_m_subgroupid>
dock_pv1

> <b_m_subgroup_collapsed>
0

$$$$
301058
                    3D
 Schrodinger Suite 2021-1.
 42 44  0  0  1  0            999 V2000
   27.2978   -3.9541   27.8382 C   0  0  0  0  0  0
   27.7158   -2.5221   27.5356 C   0  0  0  0  0  0
   29.0739   -2.1951   27.4637 C   0  0  0  0  0  0
   29.4790   -0.8872   27.1656 C   0  0  0  0  0  0
   28.5038    0.0714   26.8677 C   0  0  0  0  0  0
   27.1612   -0.2136   27.0639 C   0  0  0  0  0  0
   26.7663   -1.5061   27.3683 C   0  0  0  0  0  0
   25.4315   -1.7431   27.4564 O   0  0  0  0  0  0
   30.9598   -0.4990   27.2051 C   0  0  1  0  0  0
   31.2197    0.9466   27.7388 C   0  0  2  0  0  0
   32.7173    1.2460   27.6644 C   0  0  0  0  0  0
   33.4825    0.2260   28.5564 C   0  0  1  0  0  0
   33.0473    0.3727   30.0566 C   0  0  0  0  0  0
   31.6110    0.8464   30.2201 C   0  0  0  0  0  0
   30.7803    1.1354   29.1975 C   0  0  0  0  0  0
   29.4129    1.7197   29.4625 C   0  0  0  0  0  0
   33.1201   -1.1997   28.0486 C   0  0  0  0  0  0
   31.7081   -1.4219   28.0119 O   0  0  0  0  0  0
   34.9972    0.4899   28.4489 C   0  0  0  0  0  0
   35.2601    1.8554   28.6654 O   0  0  0  0  0  0
   31.3049   -0.5766   26.1728 H   0  0  0  0  0  0
   30.7285    1.6875   27.1099 H   0  0  0  0  0  0
   26.9385   -4.4376   26.9294 H   0  0  0  0  0  0
   28.1180   -4.5417   28.2500 H   0  0  0  0  0  0
   26.4907   -3.9745   28.5701 H   0  0  0  0  0  0
   29.8150   -2.9594   27.6483 H   0  0  0  0  0  0
   28.7669    1.0781   26.5872 H   0  0  0  0  0  0
   26.4187    0.5599   26.9259 H   0  0  0  0  0  0
   25.1842   -2.4815   26.8719 H   0  0  0  0  0  0
   32.8912    2.2764   27.9827 H   0  0  0  0  0  0
   33.0640    1.1929   26.6309 H   0  0  0  0  0  0
   33.2604   -0.5206   30.6462 H   0  0  0  0  0  0
   33.6082    1.1838   30.5239 H   0  0  0  0  0  0
   31.2553    1.0102   31.2275 H   0  0  0  0  0  0
   28.6319    1.0873   29.0641 H   0  0  0  0  0  0
   29.2478    1.8149   30.5304 H   0  0  0  0  0  0
   29.3175    2.7041   29.0102 H   0  0  0  0  0  0
   33.5446   -1.3910   27.0627 H   0  0  0  0  0  0
   33.5643   -1.9528   28.7004 H   0  0  0  0  0  0
   35.3832    0.2586   27.4640 H   0  0  0  0  0  0
   35.5641   -0.1163   29.1606 H   0  0  0  0  0  0
   36.2217    1.9478   28.7002 H   0  0  0  0  0  0
  1  2  1  0  0  0
  1 23  1  0  0  0
  1 24  1  0  0  0
  1 25  1  0  0  0
  2  7  1  0  0  0
  2  3  2  0  0  0
  3  4  1  0  0  0
  3 26  1  0  0  0
  4  5  2  0  0  0
  4  9  1  0  0  0
  5  6  1  0  0  0
  5 27  1  0  0  0
  6  7  2  0  0  0
  6 28  1  0  0  0
  7  8  1  0  0  0
  8 29  1  0  0  0
  9 21  1  0  0  0
  9 18  1  0  0  0
  9 10  1  0  0  0
 10 22  1  0  0  0
 10 15  1  0  0  0
 10 11  1  0  0  0
 11 12  1  0  0  0
 11 30  1  0  0  0
 11 31  1  0  0  0
 12 13  1  0  0  0
 12 17  1  0  0  0
 12 19  1  0  0  0
 13 14  1  0  0  0
 13 32  1  0  0  0
 13 33  1  0  0  0
 14 15  2  0  0  0
 14 34  1  0  0  0
 15 16  1  0  0  0
 16 35  1  0  0  0
 16 36  1  0  0  0
 16 37  1  0  0  0
 17 18  1  0  0  0
 17 38  1  0  0  0
 17 39  1  0  0  0
 19 20  1  0  0  0
 19 40  1  0  0  0
 19 41  1  0  0  0
 20 42  1  0  0  0
M  END
> <s_m_entry_id>
17228

> <s_m_entry_name>
ligand_docking-pose.155

> <s_m_Source_Path>
/home/csk/Desktop/cluster/DUD-E-result/esr1

> <s_m_Source_File>
ligand_docking-pose.sdf

> <i_m_Source_File_Index>
155

> <i_lp_mmshare_version>
53161

> <i_f3d_flags>
0

> <r_lp_tautomer_probability>
0.999999999997365

> <s_lp_Force_Field>
OPLS_2005

> <r_lp_Energy>
26.591191

> <b_lp_Chiralities_Consistent>
1

> <s_lp_Variant>
301058-1

> <s_i_glide_gridfile>
glide-grid_1sj0

> <i_i_glide_lignum>
1021

> <i_i_glide_rotatable_bonds>
4

> <r_i_docking_score>
-9.367758632649

> <r_i_glide_ligand_efficiency>
-0.46838793163245

> <r_i_glide_ligand_efficiency_sa>
-1.27140045175398

> <r_i_glide_ligand_efficiency_ln>
-2.34444101639394

> <r_i_glide_gscore>
-9.367758632649

> <r_i_glide_lipo>
-4.06544767081423

> <r_i_glide_hbond>
-0.485240844260385

> <r_i_glide_metal>
0

> <r_i_glide_rewards>
-2.43849013636364

> <r_i_glide_evdw>
-30.2795848846436

> <r_i_glide_ecoul>
-7.99042415618896

> <r_i_glide_erotb>
0.333962886449766

> <r_i_glide_esite>
0

> <r_i_glide_emodel>
-58.2805847542718

> <r_i_glide_energy>
-38.2700090408325

> <r_i_glide_einternal>
7.60043621063232

> <i_i_glide_confnum>
4

> <i_i_glide_posenum>
342

> <r_i_glide_eff_state_penalty>
0

> <s_user_duplicate_titles>
301058

> <s_m_subgroup_title>
dock_pv

> <s_m_subgroupid>
dock_pv1

> <b_m_subgroup_collapsed>
0

$$$$
301229
                    3D
 Schrodinger Suite 2021-1.
 42 44  0  0  1  0            999 V2000
   30.3057   -0.1660   25.5308 C   0  0  0  0  0  0
   31.3293   -0.2028   26.6646 C   0  0  0  0  0  0
   31.9086    0.9350   27.1061 C   0  0  0  0  0  0
   32.9719    1.0425   28.1880 C   0  0  0  0  0  0
   33.2475   -0.3138   28.9112 C   0  0  2  0  0  0
   33.0259   -1.5007   27.9442 C   0  0  0  0  0  0
   31.5792   -1.5293   27.4105 C   0  0  1  0  0  0
   30.5905   -1.6012   28.6328 C   0  0  1  0  0  0
   30.8827   -0.5698   29.5823 O   0  0  0  0  0  0
   32.2241   -0.4845   30.0614 C   0  0  0  0  0  0
   29.1130   -1.5328   28.2199 C   0  0  0  0  0  0
   28.4375   -2.7078   27.8640 C   0  0  0  0  0  0
   27.1394   -2.6485   27.3613 C   0  0  0  0  0  0
   26.5066   -1.4163   27.2100 C   0  0  0  0  0  0
   27.1497   -0.2478   27.5921 C   0  0  0  0  0  0
   28.4443   -0.2998   28.0992 C   0  0  0  0  0  0
   29.0471    0.8674   28.4244 F   0  0  0  0  0  0
   25.2600   -1.3420   26.6640 O   0  0  0  0  0  0
   31.4810   -2.7511   26.4631 C   0  0  0  0  0  0
   34.6933   -0.3646   29.4639 C   0  0  0  0  0  0
   35.6600   -0.1409   28.4627 O   0  0  0  0  0  0
   30.7249   -2.5420   29.1612 H   0  0  0  0  0  0
   29.5683   -0.9630   25.6016 H   0  0  0  0  0  0
   29.7457    0.7669   25.5225 H   0  0  0  0  0  0
   30.8123   -0.2821   24.5732 H   0  0  0  0  0  0
   31.6083    1.8580   26.6640 H   0  0  0  0  0  0
   33.8463    1.3510   27.6143 H   0  0  0  0  0  0
   32.7662    1.8510   28.8903 H   0  0  0  0  0  0
   33.2695   -2.4427   28.4407 H   0  0  0  0  0  0
   33.6938   -1.4270   27.0906 H   0  0  0  0  0  0
   32.4763   -1.3420   30.6786 H   0  0  0  0  0  0
   32.2767    0.3694   30.7382 H   0  0  0  0  0  0
   28.9292   -3.6678   27.9394 H   0  0  0  0  0  0
   26.6365   -3.5581   27.0637 H   0  0  0  0  0  0
   26.6534    0.7041   27.4736 H   0  0  0  0  0  0
   24.9903   -2.1996   26.2640 H   0  0  0  0  0  0
   31.8324   -3.6632   26.9450 H   0  0  0  0  0  0
   32.0791   -2.6148   25.5609 H   0  0  0  0  0  0
   30.4600   -2.9420   26.1556 H   0  0  0  0  0  0
   34.8281    0.3670   30.2598 H   0  0  0  0  0  0
   34.9049   -1.3533   29.8640 H   0  0  0  0  0  0
   36.4207    0.3294   28.8304 H   0  0  0  0  0  0
  1  2  1  0  0  0
  1 23  1  0  0  0
  1 24  1  0  0  0
  1 25  1  0  0  0
  2  7  1  0  0  0
  2  3  2  0  0  0
  3  4  1  0  0  0
  3 26  1  0  0  0
  4  5  1  0  0  0
  4 27  1  0  0  0
  4 28  1  0  0  0
  5 10  1  0  0  0
  5  6  1  0  0  0
  5 20  1  0  0  0
  6  7  1  0  0  0
  6 29  1  0  0  0
  6 30  1  0  0  0
  7  8  1  0  0  0
  7 19  1  0  0  0
  8 22  1  0  0  0
  8  9  1  0  0  0
  8 11  1  0  0  0
  9 10  1  0  0  0
 10 31  1  0  0  0
 10 32  1  0  0  0
 11 16  1  0  0  0
 11 12  2  0  0  0
 12 13  1  0  0  0
 12 33  1  0  0  0
 13 14  2  0  0  0
 13 34  1  0  0  0
 14 15  1  0  0  0
 14 18  1  0  0  0
 15 16  2  0  0  0
 15 35  1  0  0  0
 16 17  1  0  0  0
 18 36  1  0  0  0
 19 37  1  0  0  0
 19 38  1  0  0  0
 19 39  1  0  0  0
 20 21  1  0  0  0
 20 40  1  0  0  0
 20 41  1  0  0  0
 21 42  1  0  0  0
M  END
> <s_m_entry_id>
17229

> <s_m_entry_name>
ligand_docking-pose.156

> <s_m_Source_Path>
/home/csk/Desktop/cluster/DUD-E-result/esr1

> <s_m_Source_File>
ligand_docking-pose.sdf

> <i_m_Source_File_Index>
156

> <i_lp_mmshare_version>
53161

> <i_f3d_flags>
0

> <r_lp_tautomer_probability>
0.999999999997365

> <s_lp_Force_Field>
OPLS_2005

> <r_lp_Energy>
30.794131

> <b_lp_Chiralities_Consistent>
1

> <s_lp_Variant>
301229-1

> <s_i_glide_gridfile>
glide-grid_1sj0

> <i_i_glide_lignum>
921

> <i_i_glide_rotatable_bonds>
4

> <r_i_docking_score>
-9.3576920795526

> <r_i_glide_ligand_efficiency>
-0.4456043847406

> <r_i_glide_ligand_efficiency_sa>
-1.22938870891464

> <r_i_glide_ligand_efficiency_ln>
-2.31367045767209

> <r_i_glide_gscore>
-9.3576920795526

> <r_i_glide_lipo>
-3.80643804031685

> <r_i_glide_hbond>
-0.494613628596776

> <r_i_glide_metal>
0

> <r_i_glide_rewards>
-2.71035179195071

> <r_i_glide_evdw>
-23.5723609924316

> <r_i_glide_ecoul>
-9.77807235717773

> <r_i_glide_erotb>
0.299040284509976

> <r_i_glide_esite>
0

> <r_i_glide_emodel>
-49.2550650781496

> <r_i_glide_energy>
-33.3504333496094

> <r_i_glide_einternal>
2.93275332450867

> <i_i_glide_confnum>
5

> <i_i_glide_posenum>
361

> <r_i_glide_eff_state_penalty>
0

> <s_user_duplicate_titles>
301229

> <s_m_subgroup_title>
dock_pv

> <s_m_subgroupid>
dock_pv1

> <b_m_subgroup_collapsed>
0

$$$$
630780
                    3D
 Schrodinger Suite 2021-1.
 34 36  0  0  1  0            999 V2000
   32.7136    0.0471   30.3397 C   0  0  0  0  0  0
   33.2127    0.6335   29.0247 C   0  0  0  0  0  0
   34.4150    1.3490   29.0245 C   0  0  0  0  0  0
   34.8653    1.9720   27.8641 C   0  0  0  0  0  0
   34.1230    1.8747   26.6914 C   0  0  0  0  0  0
   32.9630    1.1152   26.6650 C   0  0  0  0  0  0
   32.4936    0.4858   27.8201 C   0  0  0  0  0  0
   31.2686   -0.3352   27.7152 C   0  0  0  0  0  0
   29.9664    0.3401   27.8297 C   0  0  0  0  0  0
   29.8051    1.5520   27.9877 O   0  0  0  0  0  0
   28.8093   -0.5939   27.7464 C   0  0  0  0  0  0
   27.4916   -0.1292   27.8273 C   0  0  0  0  0  0
   26.4332   -1.0324   27.8558 C   0  0  0  0  0  0
   26.6854   -2.3985   27.7894 C   0  0  0  0  0  0
   27.9779   -2.8748   27.6397 C   0  0  0  0  0  0
   29.0281   -1.9715   27.6093 C   0  0  0  0  0  0
   30.2816   -2.5061   27.4436 O   0  0  0  0  0  0
   31.3517   -1.6747   27.4968 C   0  0  0  0  0  0
   32.6479   -2.4511   27.2667 C   0  0  0  0  0  0
   33.2600   -1.9575   26.2026 F   0  0  0  0  0  0
   33.3978   -2.3909   28.3628 F   0  0  0  0  0  0
   32.4593   -3.7324   26.9880 F   0  0  0  0  0  0
   25.6599   -3.2814   27.8647 O   0  0  0  0  0  0
   33.1474    0.5649   31.1963 H   0  0  0  0  0  0
   31.6325    0.1576   30.4296 H   0  0  0  0  0  0
   32.9593   -1.0100   30.4140 H   0  0  0  0  0  0
   34.9962    1.4489   29.9294 H   0  0  0  0  0  0
   35.7897    2.5317   27.8759 H   0  0  0  0  0  0
   34.4600    2.3577   25.7874 H   0  0  0  0  0  0
   32.4534    0.9946   25.7245 H   0  0  0  0  0  0
   27.2780    0.9298   27.8936 H   0  0  0  0  0  0
   25.4198   -0.6711   27.9426 H   0  0  0  0  0  0
   28.1712   -3.9333   27.5503 H   0  0  0  0  0  0
   25.2599   -3.3971   26.9712 H   0  0  0  0  0  0
  1  2  1  0  0  0
  1 24  1  0  0  0
  1 25  1  0  0  0
  1 26  1  0  0  0
  2  7  1  0  0  0
  2  3  2  0  0  0
  3  4  1  0  0  0
  3 27  1  0  0  0
  4  5  2  0  0  0
  4 28  1  0  0  0
  5  6  1  0  0  0
  5 29  1  0  0  0
  6  7  2  0  0  0
  6 30  1  0  0  0
  7  8  1  0  0  0
  8 18  2  0  0  0
  8  9  1  0  0  0
  9 10  2  0  0  0
  9 11  1  0  0  0
 11 16  2  0  0  0
 11 12  1  0  0  0
 12 13  2  0  0  0
 12 31  1  0  0  0
 13 14  1  0  0  0
 13 32  1  0  0  0
 14 15  2  0  0  0
 14 23  1  0  0  0
 15 16  1  0  0  0
 15 33  1  0  0  0
 16 17  1  0  0  0
 17 18  1  0  0  0
 18 19  1  0  0  0
 19 20  1  0  0  0
 19 21  1  0  0  0
 19 22  1  0  0  0
 23 34  1  0  0  0
M  END
> <s_m_entry_id>
17230

> <s_m_entry_name>
ligand_docking-pose.157

> <s_m_Source_Path>
/home/csk/Desktop/cluster/DUD-E-result/esr1

> <s_m_Source_File>
ligand_docking-pose.sdf

> <i_m_Source_File_Index>
157

> <i_lp_mmshare_version>
53161

> <i_f3d_flags>
0

> <r_lp_tautomer_probability>
1

> <s_lp_Force_Field>
OPLS_2005

> <r_lp_Energy>
15.638059

> <b_lp_Chiralities_Consistent>
1

> <s_lp_Variant>
630780-1

> <s_i_glide_gridfile>
glide-grid_1sj0

> <i_i_glide_lignum>
987

> <i_i_glide_rotatable_bonds>
3

> <r_i_docking_score>
-9.35313068788699

> <r_i_glide_ligand_efficiency>
-0.406657855995086

> <r_i_glide_ligand_efficiency_sa>
-1.15648084755295

> <r_i_glide_ligand_efficiency_ln>
-2.26167180983121

> <r_i_glide_gscore>
-9.35313068788699

> <r_i_glide_lipo>
-3.83592360397741

> <r_i_glide_hbond>
-0.16

> <r_i_glide_metal>
0

> <r_i_glide_rewards>
-2.60401331877051

> <r_i_glide_evdw>
-31.987548828125

> <r_i_glide_ecoul>
-8.90563106536865

> <r_i_glide_erotb>
0.182028336072473

> <r_i_glide_esite>
0

> <r_i_glide_emodel>
-57.3057642181091

> <r_i_glide_energy>
-40.8931798934937

> <r_i_glide_einternal>
5.308434009552

> <i_i_glide_confnum>
1

> <i_i_glide_posenum>
310

> <r_i_glide_eff_state_penalty>
0

> <s_user_duplicate_titles>
630780

> <s_m_subgroup_title>
dock_pv

> <s_m_subgroupid>
dock_pv1

> <b_m_subgroup_collapsed>
0

$$$$
125671
                    3D
 Schrodinger Suite 2021-1.
 35 38  0  0  1  0            999 V2000
   31.5383   -1.6145   24.8727 C   0  0  0  0  0  0
   31.3603   -0.1424   25.2698 C   0  0  0  0  0  0
   31.6272    0.0872   26.7415 C   0  0  0  0  0  0
   32.7722    0.7413   27.2856 C   0  0  0  0  0  0
   33.9259    1.4579   26.8926 C   0  0  0  0  0  0
   34.8948    1.7831   27.8638 C   0  0  0  0  0  0
   34.7177    1.4578   29.2189 C   0  0  0  0  0  0
   33.5280    0.8465   29.6078 C   0  0  0  0  0  0
   32.6585    0.5285   28.6373 N   0  0  0  0  0  0
   31.5338   -0.0741   29.0427 C   0  0  0  0  0  0
   30.8240   -0.3004   27.8524 C   0  0  0  0  0  0
   29.4604   -0.8816   27.7506 C   0  0  0  0  0  0
   28.3623   -0.0276   27.6013 C   0  0  0  0  0  0
   27.0761   -0.5506   27.4643 C   0  0  0  0  0  0
   26.8844   -1.9321   27.4660 C   0  0  0  0  0  0
   27.9753   -2.7883   27.6089 C   0  0  0  0  0  0
   29.2603   -2.2647   27.7586 C   0  0  0  0  0  0
   27.7841   -4.1419   27.5859 O   0  0  0  0  0  0
   31.6616   -0.1488   30.4916 C   0  0  0  0  0  0
   32.8569    0.3976   30.8267 C   0  0  0  0  0  0
   31.3438   -1.7582   23.8091 H   0  0  0  0  0  0
   32.5540   -1.9567   25.0740 H   0  0  0  0  0  0
   30.8602   -2.2656   25.4222 H   0  0  0  0  0  0
   30.3537    0.1862   25.0087 H   0  0  0  0  0  0
   32.0602    0.4318   24.6651 H   0  0  0  0  0  0
   34.0938    1.6936   25.8530 H   0  0  0  0  0  0
   35.8100    2.2727   27.5590 H   0  0  0  0  0  0
   35.4843    1.7086   29.9362 H   0  0  0  0  0  0
   28.5049    1.0431   27.5825 H   0  0  0  0  0  0
   26.2312    0.1117   27.3417 H   0  0  0  0  0  0
   25.8927   -2.3419   27.3398 H   0  0  0  0  0  0
   30.1047   -2.9290   27.8590 H   0  0  0  0  0  0
   28.5886   -4.6186   27.3502 H   0  0  0  0  0  0
   30.9336   -0.5724   31.1666 H   0  0  0  0  0  0
   33.2622    0.4981   31.8218 H   0  0  0  0  0  0
  1  2  1  0  0  0
  1 21  1  0  0  0
  1 22  1  0  0  0
  1 23  1  0  0  0
  2  3  1  0  0  0
  2 24  1  0  0  0
  2 25  1  0  0  0
  3 11  1  0  0  0
  3  4  2  0  0  0
  4  9  1  0  0  0
  4  5  1  0  0  0
  5  6  2  0  0  0
  5 26  1  0  0  0
  6  7  1  0  0  0
  6 27  1  0  0  0
  7  8  2  0  0  0
  7 28  1  0  0  0
  8 20  1  0  0  0
  8  9  1  0  0  0
  9 10  1  0  0  0
 10 11  2  0  0  0
 10 19  1  0  0  0
 11 12  1  0  0  0
 12 17  1  0  0  0
 12 13  2  0  0  0
 13 14  1  0  0  0
 13 29  1  0  0  0
 14 15  2  0  0  0
 14 30  1  0  0  0
 15 16  1  0  0  0
 15 31  1  0  0  0
 16 17  2  0  0  0
 16 18  1  0  0  0
 17 32  1  0  0  0
 18 33  1  0  0  0
 19 20  2  0  0  0
 19 34  1  0  0  0
 20 35  1  0  0  0
M  END
> <s_m_entry_id>
17231

> <s_m_entry_name>
ligand_docking-pose.158

> <s_m_Source_Path>
/home/csk/Desktop/cluster/DUD-E-result/esr1

> <s_m_Source_File>
ligand_docking-pose.sdf

> <i_m_Source_File_Index>
158

> <i_lp_mmshare_version>
53161

> <i_f3d_flags>
0

> <r_lp_tautomer_probability>
0.999999999997365

> <s_lp_Force_Field>
OPLS_2005

> <r_lp_Energy>
61.944675

> <b_lp_Chiralities_Consistent>
1

> <s_lp_Variant>
125671-1

> <s_i_glide_gridfile>
glide-grid_1sj0

> <i_i_glide_lignum>
1115

> <i_i_glide_rotatable_bonds>
3

> <r_i_docking_score>
-9.33631271627455

> <r_i_glide_ligand_efficiency>
-0.466815635813727

> <r_i_glide_ligand_efficiency_sa>
-1.2671325842894

> <r_i_glide_ligand_efficiency_ln>
-2.33657114068115

> <r_i_glide_gscore>
-9.33631271627455

> <r_i_glide_lipo>
-4.39055018652873

> <r_i_glide_hbond>
-0.32

> <r_i_glide_metal>
0

> <r_i_glide_rewards>
-2.63857891991013

> <r_i_glide_evdw>
-36.0855674743652

> <r_i_glide_ecoul>
-2.94925022125244

> <r_i_glide_erotb>
0.259482297070445

> <r_i_glide_esite>
0

> <r_i_glide_emodel>
-55.9145253906162

> <r_i_glide_energy>
-39.0348176956177

> <r_i_glide_einternal>
4.44751405715942

> <i_i_glide_confnum>
4

> <i_i_glide_posenum>
284

> <r_i_glide_eff_state_penalty>
0

> <s_user_duplicate_titles>
125671

> <s_m_subgroup_title>
dock_pv

> <s_m_subgroupid>
dock_pv1

> <b_m_subgroup_collapsed>
0

$$$$
150072
                    3D
 Schrodinger Suite 2021-1.
 46 49  0  0  1  0            999 V2000
   35.3303    1.2461   27.8292 C   0  0  0  0  0  0
   34.9347    0.7322   29.0592 C   0  0  0  0  0  0
   33.6368    0.9404   29.4904 C   0  0  0  0  0  0
   32.7491    1.6336   28.6647 C   0  0  0  0  0  0
   33.1566    2.1442   27.4355 C   0  0  0  0  0  0
   34.4591    1.9604   27.0234 C   0  0  0  0  0  0
   31.2929    1.6957   29.0354 C   0  0  0  0  0  0
   30.5895    0.6473   28.3161 N   0  0  2  0  0  0
   29.1536    0.9039   28.3453 C   0  0  0  0  0  0
   28.3086   -0.2482   27.8138 C   0  0  0  0  0  0
   26.9703   -0.0531   27.4615 C   0  0  0  0  0  0
   26.1693   -1.1353   27.1207 C   0  0  0  0  0  0
   26.6816   -2.4250   27.2206 C   0  0  0  0  0  0
   28.0242   -2.6303   27.4762 C   0  0  0  0  0  0
   28.8561   -1.5476   27.7415 C   0  0  0  0  0  0
   30.3493   -1.7599   27.9404 C   0  0  2  0  0  0
   30.9244   -0.6771   28.8482 C   0  0  0  0  0  0
   31.1407   -1.9208   26.6322 C   0  0  0  0  0  0
   30.8311   -1.1486   25.5058 C   0  0  0  0  0  0
   31.5199   -1.3428   24.3129 C   0  0  0  0  0  0
   32.5142   -2.3135   24.2380 C   0  0  0  0  0  0
   32.8612   -3.0580   25.3615 C   0  0  0  0  0  0
   32.1802   -2.8564   26.5588 C   0  0  0  0  0  0
   33.1487   -2.5417   23.0478 O   0  0  0  0  0  0
   24.8956   -0.9427   26.6629 O   0  0  0  0  0  0
   36.3361    1.0826   27.4653 H   0  0  0  0  0  0
   35.6379    0.1783   29.6646 H   0  0  0  0  0  0
   33.3122    0.5271   30.4343 H   0  0  0  0  0  0
   32.4621    2.6575   26.7911 H   0  0  0  0  0  0
   34.7868    2.3445   26.0705 H   0  0  0  0  0  0
   31.1541    1.5918   30.1140 H   0  0  0  0  0  0
   30.8926    2.6572   28.7362 H   0  0  0  0  0  0
   28.8599    1.1160   29.3730 H   0  0  0  0  0  0
   28.9568    1.8026   27.7579 H   0  0  0  0  0  0
   26.5461    0.9403   27.4541 H   0  0  0  0  0  0
   26.0600   -3.2893   27.0640 H   0  0  0  0  0  0
   28.4211   -3.6362   27.4615 H   0  0  0  0  0  0
   30.4547   -2.6905   28.4785 H   0  0  0  0  0  0
   31.9995   -0.8424   28.8722 H   0  0  0  0  0  0
   30.5864   -0.7810   29.8765 H   0  0  0  0  0  0
   30.0502   -0.4037   25.5487 H   0  0  0  0  0  0
   31.2679   -0.7524   23.4469 H   0  0  0  0  0  0
   33.6447   -3.7995   25.3095 H   0  0  0  0  0  0
   32.4602   -3.4393   27.4232 H   0  0  0  0  0  0
   33.7287   -3.3052   23.0710 H   0  0  0  0  0  0
   24.5929   -1.7721   26.2518 H   0  0  0  0  0  0
  1  6  1  0  0  0
  1  2  2  0  0  0
  1 26  1  0  0  0
  2  3  1  0  0  0
  2 27  1  0  0  0
  3  4  2  0  0  0
  3 28  1  0  0  0
  4  5  1  0  0  0
  4  7  1  0  0  0
  5  6  2  0  0  0
  5 29  1  0  0  0
  6 30  1  0  0  0
  7  8  1  0  0  0
  7 31  1  0  0  0
  7 32  1  0  0  0
  8 17  1  0  0  0
  8  9  1  0  0  0
  9 10  1  0  0  0
  9 33  1  0  0  0
  9 34  1  0  0  0
 10 15  2  0  0  0
 10 11  1  0  0  0
 11 12  2  0  0  0
 11 35  1  0  0  0
 12 13  1  0  0  0
 12 25  1  0  0  0
 13 14  2  0  0  0
 13 36  1  0  0  0
 14 15  1  0  0  0
 14 37  1  0  0  0
 15 16  1  0  0  0
 16 17  1  0  0  0
 16 18  1  0  0  0
 16 38  1  0  0  0
 17 39  1  0  0  0
 17 40  1  0  0  0
 18 23  1  0  0  0
 18 19  2  0  0  0
 19 20  1  0  0  0
 19 41  1  0  0  0
 20 21  2  0  0  0
 20 42  1  0  0  0
 21 22  1  0  0  0
 21 24  1  0  0  0
 22 23  2  0  0  0
 22 43  1  0  0  0
 23 44  1  0  0  0
 24 45  1  0  0  0
 25 46  1  0  0  0
M  END
> <s_m_entry_id>
17232

> <s_m_entry_name>
ligand_docking-pose.159

> <s_m_Source_Path>
/home/csk/Desktop/cluster/DUD-E-result/esr1

> <s_m_Source_File>
ligand_docking-pose.sdf

> <i_m_Source_File_Index>
159

> <i_lp_mmshare_version>
53161

> <i_f3d_flags>
0

> <r_lp_tautomer_probability>
0.99999999999473

> <s_lp_Force_Field>
OPLS_2005

> <r_lp_Energy>
25.844488

> <b_lp_Chiralities_Consistent>
1

> <s_lp_Variant>
150072-2

> <s_i_glide_gridfile>
glide-grid_1sj0

> <i_i_glide_lignum>
579

> <i_i_glide_rotatable_bonds>
5

> <r_i_docking_score>
-9.3194681812451

> <r_i_glide_ligand_efficiency>
-0.372778727249804

> <r_i_glide_ligand_efficiency_sa>
-1.09001160973731

> <r_i_glide_ligand_efficiency_ln>
-2.20899324087981

> <r_i_glide_gscore>
-9.3194681812451

> <r_i_glide_lipo>
-4.92536844255318

> <r_i_glide_hbond>
-0.281995318674376

> <r_i_glide_metal>
0

> <r_i_glide_rewards>
-2.04949336363636

> <r_i_glide_evdw>
-39.3700561523438

> <r_i_glide_ecoul>
-3.0264630317688

> <r_i_glide_erotb>
0.359861206001327

> <r_i_glide_esite>
0

> <r_i_glide_emodel>
-54.7641680605351

> <r_i_glide_energy>
-42.3965191841125

> <r_i_glide_einternal>
3.82355380058289

> <i_i_glide_confnum>
37

> <i_i_glide_posenum>
120

> <r_i_glide_eff_state_penalty>
0

> <s_user_duplicate_titles>
150072

> <s_m_subgroup_title>
dock_pv

> <s_m_subgroupid>
dock_pv1

> <b_m_subgroup_collapsed>
0

$$$$
149897
                    3D
 Schrodinger Suite 2021-1.
 61 65  0  0  1  0            999 V2000
   35.2415    1.5154   27.8634 C   0  0  0  0  0  0
   34.8882    0.4300   28.6683 C   0  0  0  0  0  0
   33.5599    0.0155   28.7313 C   0  0  0  0  0  0
   32.5948    0.7018   27.9912 C   0  0  0  0  0  0
   32.9653    1.7612   27.1672 C   0  0  0  0  0  0
   34.2851    2.1762   27.1021 C   0  0  0  0  0  0
   31.2503    0.4026   28.0730 N   0  0  0  0  0  0
   30.4133    1.2219   28.9479 C   0  0  0  0  0  0
   29.1493    1.5980   28.1633 C   0  0  0  0  0  0
   28.4072    0.3438   27.7376 C   0  0  0  0  0  0
   27.0391    0.3875   27.4641 C   0  0  0  0  0  0
   26.3563   -0.7522   27.0656 C   0  0  0  0  0  0
   27.0184   -1.9762   27.0266 C   0  0  0  0  0  0
   28.3804   -2.0364   27.3161 C   0  0  0  0  0  0
   29.1097   -0.8755   27.6107 C   0  0  0  0  0  0
   30.6536   -0.9065   27.7238 C   0  0  1  0  0  0
   31.2664   -1.4401   26.4149 C   0  0  0  0  0  0
   32.2056   -2.4777   26.4218 C   0  0  0  0  0  0
   32.8092   -2.8821   25.2292 C   0  0  0  0  0  0
   32.4737   -2.2504   24.0204 C   0  0  0  0  0  0
   31.5164   -1.2456   24.0149 C   0  0  0  0  0  0
   30.9165   -0.8396   25.1999 C   0  0  0  0  0  0
   33.0313   -2.5322   22.7925 O   0  0  0  0  0  0
   34.2147   -3.3128   22.7169 C   0  0  0  0  0  0
   34.8715   -3.1847   21.3243 C   0  0  0  0  0  0
   34.0674   -3.7473   20.2353 N   0  0  0  0  0  0
   32.9014   -2.9534   19.8608 C   0  0  0  0  0  0
   32.4837   -3.4435   18.4723 C   0  0  0  0  0  0
   33.7365   -4.1279   17.9239 C   0  0  0  0  0  0
   34.8033   -3.8583   18.9843 C   0  0  0  0  0  0
   25.0520   -0.6552   26.6670 O   0  0  0  0  0  0
   36.2648    1.8508   27.8048 H   0  0  0  0  0  0
   35.6468   -0.0779   29.2462 H   0  0  0  0  0  0
   33.2809   -0.8097   29.3708 H   0  0  0  0  0  0
   32.2181    2.2561   26.5743 H   0  0  0  0  0  0
   34.5563    2.9979   26.4617 H   0  0  0  0  0  0
   30.1924    0.6966   29.8775 H   0  0  0  0  0  0
   30.9307    2.1411   29.2273 H   0  0  0  0  0  0
   28.5113    2.2369   28.7715 H   0  0  0  0  0  0
   29.4178    2.1830   27.2831 H   0  0  0  0  0  0
   26.5074    1.3269   27.5148 H   0  0  0  0  0  0
   26.4927   -2.8768   26.7359 H   0  0  0  0  0  0
   28.8878   -2.9914   27.2728 H   0  0  0  0  0  0
   30.9098   -1.6089   28.5197 H   0  0  0  0  0  0
   32.4901   -2.9501   27.3500 H   0  0  0  0  0  0
   33.5406   -3.6756   25.2560 H   0  0  0  0  0  0
   31.2614   -0.7665   23.0790 H   0  0  0  0  0  0
   30.1937   -0.0371   25.1796 H   0  0  0  0  0  0
   34.0027   -4.3570   22.9477 H   0  0  0  0  0  0
   34.9258   -2.9418   23.4569 H   0  0  0  0  0  0
   35.8287   -3.7052   21.3549 H   0  0  0  0  0  0
   35.1064   -2.1395   21.1150 H   0  0  0  0  0  0
   33.1174   -1.8836   19.8639 H   0  0  0  0  0  0
   32.1070   -3.1024   20.5926 H   0  0  0  0  0  0
   32.1704   -2.6105   17.8425 H   0  0  0  0  0  0
   31.6490   -4.1421   18.5388 H   0  0  0  0  0  0
   33.5828   -5.2014   17.7998 H   0  0  0  0  0  0
   34.0299   -3.7308   16.9536 H   0  0  0  0  0  0
   35.5237   -4.6761   19.0675 H   0  0  0  0  0  0
   35.3980   -2.9666   18.7712 H   0  0  0  0  0  0
   24.7758   -1.4864   26.2560 H   0  0  0  0  0  0
  1  6  1  0  0  0
  1  2  2  0  0  0
  1 32  1  0  0  0
  2  3  1  0  0  0
  2 33  1  0  0  0
  3  4  2  0  0  0
  3 34  1  0  0  0
  4  5  1  0  0  0
  4  7  1  0  0  0
  5  6  2  0  0  0
  5 35  1  0  0  0
  6 36  1  0  0  0
  7 16  1  0  0  0
  7  8  1  0  0  0
  8  9  1  0  0  0
  8 37  1  0  0  0
  8 38  1  0  0  0
  9 10  1  0  0  0
  9 39  1  0  0  0
  9 40  1  0  0  0
 10 15  2  0  0  0
 10 11  1  0  0  0
 11 12  2  0  0  0
 11 41  1  0  0  0
 12 13  1  0  0  0
 12 31  1  0  0  0
 13 14  2  0  0  0
 13 42  1  0  0  0
 14 15  1  0  0  0
 14 43  1  0  0  0
 15 16  1  0  0  0
 16 17  1  0  0  0
 16 44  1  0  0  0
 17 22  1  0  0  0
 17 18  2  0  0  0
 18 19  1  0  0  0
 18 45  1  0  0  0
 19 20  2  0  0  0
 19 46  1  0  0  0
 20 21  1  0  0  0
 20 23  1  0  0  0
 21 22  2  0  0  0
 21 47  1  0  0  0
 22 48  1  0  0  0
 23 24  1  0  0  0
 24 25  1  0  0  0
 24 49  1  0  0  0
 24 50  1  0  0  0
 25 26  1  0  0  0
 25 51  1  0  0  0
 25 52  1  0  0  0
 26 30  1  0  0  0
 26 27  1  0  0  0
 27 28  1  0  0  0
 27 53  1  0  0  0
 27 54  1  0  0  0
 28 29  1  0  0  0
 28 55  1  0  0  0
 28 56  1  0  0  0
 29 30  1  0  0  0
 29 57  1  0  0  0
 29 58  1  0  0  0
 30 59  1  0  0  0
 30 60  1  0  0  0
 31 61  1  0  0  0
M  END
> <s_m_entry_id>
17233

> <s_m_entry_name>
ligand_docking-pose.160

> <s_m_Source_Path>
/home/csk/Desktop/cluster/DUD-E-result/esr1

> <s_m_Source_File>
ligand_docking-pose.sdf

> <i_m_Source_File_Index>
160

> <i_lp_mmshare_version>
53161

> <i_f3d_flags>
0

> <r_lp_tautomer_probability>
0.999999999997365

> <s_lp_Force_Field>
OPLS_2005

> <r_lp_Energy>
51.47573

> <b_lp_Chiralities_Consistent>
1

> <s_lp_Variant>
149897-1

> <s_i_glide_gridfile>
glide-grid_1sj0

> <i_i_glide_lignum>
616

> <i_i_glide_rotatable_bonds>
7

> <r_i_docking_score>
-9.30466529345867

> <r_i_glide_ligand_efficiency>
-0.300150493337376

> <r_i_glide_ligand_efficiency_sa>
-0.942886951496478

> <r_i_glide_ligand_efficiency_ln>
-2.0984871774205

> <r_i_glide_gscore>
-9.30466529345867

> <r_i_glide_lipo>
-5.35392264283777

> <r_i_glide_hbond>
-0.113664673053084

> <r_i_glide_metal>
0

> <r_i_glide_rewards>
-1.62548782304717

> <r_i_glide_evdw>
-51.3712692260742

> <r_i_glide_ecoul>
-0.3003249168396

> <r_i_glide_erotb>
0.402022044309006

> <r_i_glide_esite>
0

> <r_i_glide_emodel>
-74.7259350446536

> <r_i_glide_energy>
-51.6715941429138

> <r_i_glide_einternal>
5.6109824180603

> <i_i_glide_confnum>
1

> <i_i_glide_posenum>
4

> <r_i_glide_eff_state_penalty>
0

> <s_user_duplicate_titles>
149897

> <s_m_subgroup_title>
dock_pv

> <s_m_subgroupid>
dock_pv1

> <b_m_subgroup_collapsed>
0

$$$$
250756
                    3D
 Schrodinger Suite 2021-1.
 47 49  0  0  1  0            999 V2000
   34.9582    2.0999   27.3135 C   0  0  0  0  0  0
   33.4874    1.7079   27.4431 C   0  0  0  0  0  0
   33.1988    0.2500   27.0013 C   0  0  0  0  0  0
   31.8278   -0.3117   27.3813 C   0  0  0  0  0  0
   31.0823   -1.1259   26.5869 C   0  0  0  0  0  0
   31.6993   -1.8020   25.4240 C   0  0  0  0  0  0
   31.2600   -1.5873   24.1173 C   0  0  0  0  0  0
   31.8823   -2.2563   23.0640 C   0  0  0  0  0  0
   32.9414   -3.1217   23.3068 C   0  0  0  0  0  0
   33.3853   -3.3420   24.6046 C   0  0  0  0  0  0
   32.7615   -2.6864   25.6602 C   0  0  0  0  0  0
   33.5368   -3.7599   22.2542 O   0  0  0  0  0  0
   29.6706   -1.4826   26.8891 C   0  0  0  0  0  0
   29.3930   -2.6815   27.5418 C   0  0  0  0  0  0
   28.0891   -3.0411   27.8635 C   0  0  0  0  0  0
   27.0445   -2.1856   27.5372 C   0  0  0  0  0  0
   27.2990   -0.9786   26.8888 C   0  0  0  0  0  0
   28.6092   -0.6358   26.5457 C   0  0  0  0  0  0
   25.7636   -2.5419   27.8640 O   0  0  0  0  0  0
   31.4044    0.1052   28.7118 C   0  0  0  0  0  0
   30.3355    0.9761   28.8748 C   0  0  0  0  0  0
   30.0600    1.4580   30.1368 C   0  0  0  0  0  0
   30.8706    1.1061   31.2171 C   0  0  0  0  0  0
   31.9602    0.2640   31.0481 C   0  0  0  0  0  0
   32.2053   -0.2691   29.7961 C   0  0  0  0  0  0
   35.1524    3.0197   27.8640 H   0  0  0  0  0  0
   35.6223    1.3374   27.7227 H   0  0  0  0  0  0
   35.2229    2.2580   26.2720 H   0  0  0  0  0  0
   32.8601    2.4013   26.8821 H   0  0  0  0  0  0
   33.2299    1.8580   28.4903 H   0  0  0  0  0  0
   33.9370   -0.4100   27.4640 H   0  0  0  0  0  0
   33.2600    0.2095   25.9145 H   0  0  0  0  0  0
   30.4339   -0.9199   23.9185 H   0  0  0  0  0  0
   31.5375   -2.1420   22.0484 H   0  0  0  0  0  0
   34.2000   -4.0223   24.7993 H   0  0  0  0  0  0
   33.1069   -2.8675   26.6681 H   0  0  0  0  0  0
   34.1376   -4.4616   22.5101 H   0  0  0  0  0  0
   30.1976   -3.3420   27.7968 H   0  0  0  0  0  0
   27.8928   -3.9781   28.3636 H   0  0  0  0  0  0
   26.4813   -0.3111   26.6640 H   0  0  0  0  0  0
   28.8003    0.2976   26.0363 H   0  0  0  0  0  0
   25.3077   -2.9420   27.1033 H   0  0  0  0  0  0
   29.7368    1.2961   28.0358 H   0  0  0  0  0  0
   29.2045    2.0952   30.2632 H   0  0  0  0  0  0
   30.6579    1.5031   32.1983 H   0  0  0  0  0  0
   32.6266    0.0365   31.8640 H   0  0  0  0  0  0
   33.0587   -0.9181   29.6584 H   0  0  0  0  0  0
  1  2  1  0  0  0
  1 26  1  0  0  0
  1 27  1  0  0  0
  1 28  1  0  0  0
  2  3  1  0  0  0
  2 29  1  0  0  0
  2 30  1  0  0  0
  3  4  1  0  0  0
  3 31  1  0  0  0
  3 32  1  0  0  0
  4  5  2  3  0  0
  4 20  1  0  0  0
  5  6  1  0  0  0
  5 13  1  0  0  0
  6 11  1  0  0  0
  6  7  2  0  0  0
  7  8  1  0  0  0
  7 33  1  0  0  0
  8  9  2  0  0  0
  8 34  1  0  0  0
  9 10  1  0  0  0
  9 12  1  0  0  0
 10 11  2  0  0  0
 10 35  1  0  0  0
 11 36  1  0  0  0
 12 37  1  0  0  0
 13 18  1  0  0  0
 13 14  2  0  0  0
 14 15  1  0  0  0
 14 38  1  0  0  0
 15 16  2  0  0  0
 15 39  1  0  0  0
 16 17  1  0  0  0
 16 19  1  0  0  0
 17 18  2  0  0  0
 17 40  1  0  0  0
 18 41  1  0  0  0
 19 42  1  0  0  0
 20 25  1  0  0  0
 20 21  2  0  0  0
 21 22  1  0  0  0
 21 43  1  0  0  0
 22 23  2  0  0  0
 22 44  1  0  0  0
 23 24  1  0  0  0
 23 45  1  0  0  0
 24 25  2  0  0  0
 24 46  1  0  0  0
 25 47  1  0  0  0
M  END
> <s_m_entry_id>
17234

> <s_m_entry_name>
ligand_docking-pose.161

> <s_m_Source_Path>
/home/csk/Desktop/cluster/DUD-E-result/esr1

> <s_m_Source_File>
ligand_docking-pose.sdf

> <i_m_Source_File_Index>
161

> <i_lp_mmshare_version>
53161

> <i_f3d_flags>
0

> <r_lp_tautomer_probability>
1

> <s_lp_Force_Field>
OPLS_2005

> <r_lp_Energy>
27.550694

> <b_lp_Chiralities_Consistent>
1

> <s_lp_Variant>
250756-1

> <s_i_glide_gridfile>
glide-grid_1sj0

> <i_i_glide_lignum>
1431

> <i_i_glide_rotatable_bonds>
7

> <r_i_docking_score>
-9.28435348743513

> <r_i_glide_ligand_efficiency>
-0.371374139497405

> <r_i_glide_ligand_efficiency_sa>
-1.08590457023882

> <r_i_glide_ligand_efficiency_ln>
-2.20067000614439

> <r_i_glide_gscore>
-9.28435348743513

> <r_i_glide_lipo>
-5.59022740597553

> <r_i_glide_hbond>
-0.16

> <r_i_glide_metal>
0

> <r_i_glide_rewards>
-2.05623013636364

> <r_i_glide_evdw>
-33.4204521179199

> <r_i_glide_ecoul>
-3.30634117126465

> <r_i_glide_erotb>
0.689077836489729

> <r_i_glide_esite>
0

> <r_i_glide_emodel>
-41.8536684334531

> <r_i_glide_energy>
-36.7267932891846

> <r_i_glide_einternal>
12.5905342102051

> <i_i_glide_confnum>
77

> <i_i_glide_posenum>
294

> <r_i_glide_eff_state_penalty>
0

> <s_user_duplicate_titles>
250756

> <s_m_subgroup_title>
dock_pv

> <s_m_subgroupid>
dock_pv1

> <b_m_subgroup_collapsed>
0

$$$$
373300
                    3D
 Schrodinger Suite 2021-1.
 36 38  0  0  1  0            999 V2000
   29.0122    0.2912   26.6076 C   0  0  0  0  0  0
   29.8135   -0.5573   25.8631 C   0  0  0  0  0  0
   31.0548   -0.9723   26.3811 C   0  0  0  0  0  0
   31.4311   -0.5441   27.6991 C   0  0  0  0  0  0
   30.6194    0.3366   28.4615 C   0  0  0  0  0  0
   29.4145    0.7306   27.8549 C   0  0  0  0  0  0
   30.9045    0.9031   29.8505 C   0  0  0  0  0  0
   29.8266    1.4580   30.3951 F   0  0  0  0  0  0
   31.3323   -0.0220   30.7022 F   0  0  0  0  0  0
   31.8152    1.8579   29.7428 F   0  0  0  0  0  0
   32.6450   -1.1986   27.9287 N   0  0  0  0  0  0
   33.0063   -1.9504   26.8751 N   0  0  0  0  0  0
   32.1545   -1.7752   25.9025 C   0  0  0  0  0  0
   32.4095   -2.3878   24.5441 C   0  0  0  0  0  0
   31.5853   -2.0716   23.4638 C   0  0  0  0  0  0
   31.7150   -2.7129   22.2350 C   0  0  0  0  0  0
   32.7678   -3.5759   22.0214 C   0  0  0  0  0  0
   33.6529   -3.8477   23.0501 C   0  0  0  0  0  0
   33.4624   -3.2888   24.3151 C   0  0  0  0  0  0
   32.9413   -4.1423   20.7894 O   0  0  0  0  0  0
   33.5317   -1.2695   29.1001 C   0  0  0  0  0  0
   34.4114   -0.0247   29.3531 C   0  0  0  0  0  0
   35.2600    0.2580   28.2640 O   0  0  0  0  0  0
   28.0614    0.6171   26.2107 H   0  0  0  0  0  0
   29.4409   -0.8925   24.9129 H   0  0  0  0  0  0
   28.7396    1.4047   28.3637 H   0  0  0  0  0  0
   30.8014   -1.3464   23.5437 H   0  0  0  0  0  0
   31.0186   -2.5419   21.4291 H   0  0  0  0  0  0
   34.4436   -4.5416   22.8460 H   0  0  0  0  0  0
   34.1397   -3.5604   25.1100 H   0  0  0  0  0  0
   32.2086   -4.7119   20.5041 H   0  0  0  0  0  0
   32.9064   -1.4639   29.9629 H   0  0  0  0  0  0
   34.1620   -2.1580   29.0643 H   0  0  0  0  0  0
   33.8183    0.8724   29.4676 H   0  0  0  0  0  0
   34.9973   -0.1419   30.2634 H   0  0  0  0  0  0
   36.0818    0.6581   28.5830 H   0  0  0  0  0  0
  1  6  1  0  0  0
  1  2  2  0  0  0
  1 24  1  0  0  0
  2  3  1  0  0  0
  2 25  1  0  0  0
  3 13  1  0  0  0
  3  4  2  0  0  0
  4  5  1  0  0  0
  4 11  1  0  0  0
  5  6  2  0  0  0
  5  7  1  0  0  0
  6 26  1  0  0  0
  7  8  1  0  0  0
  7  9  1  0  0  0
  7 10  1  0  0  0
 11 12  1  0  0  0
 11 21  1  0  0  0
 12 13  2  0  0  0
 13 14  1  0  0  0
 14 19  1  0  0  0
 14 15  2  0  0  0
 15 16  1  0  0  0
 15 27  1  0  0  0
 16 17  2  0  0  0
 16 28  1  0  0  0
 17 18  1  0  0  0
 17 20  1  0  0  0
 18 19  2  0  0  0
 18 29  1  0  0  0
 19 30  1  0  0  0
 20 31  1  0  0  0
 21 22  1  0  0  0
 21 32  1  0  0  0
 21 33  1  0  0  0
 22 23  1  0  0  0
 22 34  1  0  0  0
 22 35  1  0  0  0
 23 36  1  0  0  0
M  END
> <s_m_entry_id>
17236

> <s_m_entry_name>
ligand_docking-pose.163

> <s_m_Source_Path>
/home/csk/Desktop/cluster/DUD-E-result/esr1

> <s_m_Source_File>
ligand_docking-pose.sdf

> <i_m_Source_File_Index>
163

> <i_lp_mmshare_version>
53161

> <i_f3d_flags>
0

> <r_lp_tautomer_probability>
0.999999999997365

> <s_lp_Force_Field>
OPLS_2005

> <r_lp_Energy>
17.037206

> <b_lp_Chiralities_Consistent>
1

> <s_lp_Variant>
373300-1

> <s_i_glide_gridfile>
glide-grid_1sj0

> <i_i_glide_lignum>
4

> <i_i_glide_rotatable_bonds>
6

> <r_i_docking_score>
-9.28049854231477

> <r_i_glide_ligand_efficiency>
-0.403499936622381

> <r_i_glide_ligand_efficiency_sa>
-1.14750014493326

> <r_i_glide_ligand_efficiency_ln>
-2.24410869843997

> <r_i_glide_gscore>
-9.28049854231477

> <r_i_glide_lipo>
-3.91287198897771

> <r_i_glide_hbond>
-0.456

> <r_i_glide_metal>
0

> <r_i_glide_rewards>
-2.98991823663123

> <r_i_glide_evdw>
-30.2526073455811

> <r_i_glide_ecoul>
-6.32764530181885

> <r_i_glide_erotb>
0.540068845846054

> <r_i_glide_esite>
0

> <r_i_glide_emodel>
-53.986250531588

> <r_i_glide_energy>
-36.5802526473999

> <r_i_glide_einternal>
5.06364393234253

> <i_i_glide_confnum>
33

> <i_i_glide_posenum>
90

> <r_i_glide_eff_state_penalty>
0

> <s_user_duplicate_titles>
373300

> <s_m_subgroup_title>
dock_pv

> <s_m_subgroupid>
dock_pv1

> <b_m_subgroup_collapsed>
0

$$$$
308500
                    3D
 Schrodinger Suite 2021-1.
 82 83  0  0  1  0            999 V2000
   40.9179   -7.9146   18.5492 C   0  0  0  0  0  0
   40.7198   -6.4367   18.9082 C   0  0  0  0  0  0
   39.3294   -5.9053   18.5244 C   0  0  0  0  0  0
   39.1556   -4.4117   18.8475 C   0  0  0  0  0  0
   37.7447   -3.8878   18.5358 C   0  0  0  0  0  0
   37.5530   -2.1346   19.2106 S   0  0  0  0  0  0
   38.6512   -1.3429   18.6521 O   0  0  0  0  0  0
   37.3879   -2.2266   20.6637 O   0  0  0  0  0  0
   35.9471   -1.4749   18.4470 C   0  0  0  0  0  0
   34.6815   -1.8433   19.2573 C   0  0  0  0  0  0
   34.4236   -3.3561   19.3782 C   0  0  0  0  0  0
   33.0008   -3.7367   19.8284 C   0  0  0  0  0  0
   32.5558   -3.2182   21.2120 C   0  0  0  0  0  0
   33.5187   -3.5397   22.3745 C   0  0  0  0  0  0
   32.8790   -3.4359   23.7751 C   0  0  0  0  0  0
   32.3504   -2.0365   24.1079 C   0  0  0  0  0  0
   31.7714   -1.9085   25.5268 C   0  0  0  0  0  0
   31.1454   -0.5197   25.7749 C   0  0  0  0  0  0
   31.3365    0.0232   27.1978 C   0  0  0  0  0  0
   30.3717    0.0925   28.1495 C   0  0  0  0  0  0
   30.5232    0.6579   29.5800 C   0  0  0  0  0  0
   31.4968    1.8128   29.8617 C   0  0  0  0  0  0
   29.0223   -0.3651   27.8243 C   0  0  0  0  0  0
   28.0568    0.6229   27.6919 C   0  0  0  0  0  0
   26.7742    0.2693   27.3382 C   0  0  0  0  0  0
   26.4560   -1.0558   27.0833 C   0  0  0  0  0  0
   27.4130   -2.0595   27.2246 C   0  0  0  0  0  0
   28.7068   -1.7133   27.6128 C   0  0  0  0  0  0
   25.1922   -1.3412   26.6641 O   0  0  0  0  0  0
   32.6814    0.5029   27.4522 C   0  0  0  0  0  0
   33.1004    1.6972   26.8678 C   0  0  0  0  0  0
   34.3826    2.1597   27.0623 C   0  0  0  0  0  0
   35.2599    1.4313   27.8414 C   0  0  0  0  0  0
   34.8300    0.2584   28.4644 C   0  0  0  0  0  0
   33.5485   -0.2228   28.2604 C   0  0  0  0  0  0
   35.6599   -0.4503   29.2627 O   0  0  0  0  0  0
   41.9154   -8.2510   18.8289 H   0  0  0  0  0  0
   40.1979   -8.5512   19.0677 H   0  0  0  0  0  0
   40.7998   -8.0815   17.4789 H   0  0  0  0  0  0
   41.4886   -5.8367   18.4197 H   0  0  0  0  0  0
   40.8708   -6.3091   19.9789 H   0  0  0  0  0  0
   38.5675   -6.4824   19.0527 H   0  0  0  0  0  0
   39.1494   -6.0695   17.4608 H   0  0  0  0  0  0
   39.8864   -3.8318   18.2821 H   0  0  0  0  0  0
   39.3824   -4.2269   19.8998 H   0  0  0  0  0  0
   36.9739   -4.5134   18.9848 H   0  0  0  0  0  0
   37.5638   -3.8408   17.4632 H   0  0  0  0  0  0
   35.8973   -1.8364   17.4225 H   0  0  0  0  0  0
   36.0562   -0.3913   18.4027 H   0  0  0  0  0  0
   33.8232   -1.3740   18.7742 H   0  0  0  0  0  0
   34.7363   -1.3981   20.2505 H   0  0  0  0  0  0
   35.1383   -3.7953   20.0729 H   0  0  0  0  0  0
   34.6110   -3.8318   18.4154 H   0  0  0  0  0  0
   32.9218   -4.8241   19.8281 H   0  0  0  0  0  0
   32.2810   -3.4055   19.0777 H   0  0  0  0  0  0
   31.5774   -3.6563   21.4268 H   0  0  0  0  0  0
   32.3992   -2.1425   21.1620 H   0  0  0  0  0  0
   34.3842   -2.8803   22.3197 H   0  0  0  0  0  0
   33.9157   -4.5436   22.2472 H   0  0  0  0  0  0
   33.6141   -3.7359   24.5226 H   0  0  0  0  0  0
   32.0569   -4.1416   23.8559 H   0  0  0  0  0  0
   31.5971   -1.7400   23.3772 H   0  0  0  0  0  0
   33.1808   -1.3421   24.0055 H   0  0  0  0  0  0
   32.5725   -2.1033   26.2424 H   0  0  0  0  0  0
   31.0205   -2.6791   25.7027 H   0  0  0  0  0  0
   30.0965   -0.5465   25.4824 H   0  0  0  0  0  0
   31.5774    0.2062   25.0860 H   0  0  0  0  0  0
   29.5537    1.0574   29.8852 H   0  0  0  0  0  0
   30.7583   -0.1714   30.2472 H   0  0  0  0  0  0
   31.2692    2.2578   30.8303 H   0  0  0  0  0  0
   32.5326    1.4883   29.9296 H   0  0  0  0  0  0
   31.4237    2.5920   29.1060 H   0  0  0  0  0  0
   28.2990    1.6672   27.8426 H   0  0  0  0  0  0
   26.0590    1.0580   27.2025 H   0  0  0  0  0  0
   27.1636   -3.0914   27.0205 H   0  0  0  0  0  0
   29.4626   -2.4791   27.7124 H   0  0  0  0  0  0
   25.0677   -2.2358   26.2761 H   0  0  0  0  0  0
   32.4493    2.2848   26.2625 H   0  0  0  0  0  0
   34.7025    3.0573   26.5676 H   0  0  0  0  0  0
   36.2767    1.7859   27.8666 H   0  0  0  0  0  0
   33.2278   -1.1420   28.7301 H   0  0  0  0  0  0
   36.5302   -0.0308   29.2571 H   0  0  0  0  0  0
  1  2  1  0  0  0
  1 37  1  0  0  0
  1 38  1  0  0  0
  1 39  1  0  0  0
  2  3  1  0  0  0
  2 40  1  0  0  0
  2 41  1  0  0  0
  3  4  1  0  0  0
  3 42  1  0  0  0
  3 43  1  0  0  0
  4  5  1  0  0  0
  4 44  1  0  0  0
  4 45  1  0  0  0
  5  6  1  0  0  0
  5 46  1  0  0  0
  5 47  1  0  0  0
  6  7  2  0  0  0
  6  8  2  0  0  0
  6  9  1  0  0  0
  9 10  1  0  0  0
  9 48  1  0  0  0
  9 49  1  0  0  0
 10 11  1  0  0  0
 10 50  1  0  0  0
 10 51  1  0  0  0
 11 12  1  0  0  0
 11 52  1  0  0  0
 11 53  1  0  0  0
 12 13  1  0  0  0
 12 54  1  0  0  0
 12 55  1  0  0  0
 13 14  1  0  0  0
 13 56  1  0  0  0
 13 57  1  0  0  0
 14 15  1  0  0  0
 14 58  1  0  0  0
 14 59  1  0  0  0
 15 16  1  0  0  0
 15 60  1  0  0  0
 15 61  1  0  0  0
 16 17  1  0  0  0
 16 62  1  0  0  0
 16 63  1  0  0  0
 17 18  1  0  0  0
 17 64  1  0  0  0
 17 65  1  0  0  0
 18 19  1  0  0  0
 18 66  1  0  0  0
 18 67  1  0  0  0
 19 20  2  0  0  0
 19 30  1  0  0  0
 20 21  1  0  0  0
 20 23  1  0  0  0
 21 22  1  0  0  0
 21 68  1  0  0  0
 21 69  1  0  0  0
 22 70  1  0  0  0
 22 71  1  0  0  0
 22 72  1  0  0  0
 23 28  1  0  0  0
 23 24  2  0  0  0
 24 25  1  0  0  0
 24 73  1  0  0  0
 25 26  2  0  0  0
 25 74  1  0  0  0
 26 27  1  0  0  0
 26 29  1  0  0  0
 27 28  2  0  0  0
 27 75  1  0  0  0
 28 76  1  0  0  0
 29 77  1  0  0  0
 30 35  1  0  0  0
 30 31  2  0  0  0
 31 32  1  0  0  0
 31 78  1  0  0  0
 32 33  2  0  0  0
 32 79  1  0  0  0
 33 34  1  0  0  0
 33 80  1  0  0  0
 34 35  2  0  0  0
 34 36  1  0  0  0
 35 81  1  0  0  0
 36 82  1  0  0  0
M  END
> <s_m_entry_id>
17237

> <s_m_entry_name>
ligand_docking-pose.164

> <s_m_Source_Path>
/home/csk/Desktop/cluster/DUD-E-result/esr1

> <s_m_Source_File>
ligand_docking-pose.sdf

> <i_m_Source_File_Index>
164

> <i_lp_mmshare_version>
53161

> <i_f3d_flags>
0

> <r_lp_tautomer_probability>
1

> <s_lp_Force_Field>
OPLS_2005

> <r_lp_Energy>
19.708414

> <b_lp_Chiralities_Consistent>
1

> <s_lp_Variant>
308500-1

> <s_i_glide_gridfile>
glide-grid_1sj0

> <i_i_glide_lignum>
1453

> <i_i_glide_rotatable_bonds>
20

> <r_i_docking_score>
-9.27842319925513

> <r_i_glide_ligand_efficiency>
-0.257733977757087

> <r_i_glide_ligand_efficiency_sa>
-0.851018843105579

> <r_i_glide_ligand_efficiency_ln>
-2.02430126805158

> <r_i_glide_gscore>
-9.27842319925513

> <r_i_glide_lipo>
-5.15755384561568

> <r_i_glide_hbond>
-0.512717013354822

> <r_i_glide_metal>
0

> <r_i_glide_rewards>
-1.0266856868644

> <r_i_glide_evdw>
-41.9190406799316

> <r_i_glide_ecoul>
-9.37877464294434

> <r_i_glide_erotb>
0.921301577018003

> <r_i_glide_esite>
0

> <r_i_glide_emodel>
-72.5386330006622

> <r_i_glide_energy>
-51.297815322876

> <r_i_glide_einternal>
17.6253070831299

> <i_i_glide_confnum>
2

> <i_i_glide_posenum>
84

> <r_i_glide_eff_state_penalty>
0

> <s_user_duplicate_titles>
308500

> <s_m_subgroup_title>
dock_pv

> <s_m_subgroupid>
dock_pv1

> <b_m_subgroup_collapsed>
0

$$$$
568777
                    3D
 Schrodinger Suite 2021-1.
 42 43  0  0  1  0            999 V2000
   32.7452    1.0587   31.1347 C   0  0  0  0  0  0
   31.4603    0.5427   30.4686 C   0  0  0  0  0  0
   31.7186   -0.4750   29.3235 C   0  0  0  0  0  0
   31.5349    0.0107   27.8345 C   0  0  2  0  0  0
   32.4497    1.2547   27.6472 C   0  0  0  0  0  0
   30.0497    0.4601   27.5686 C   0  0  0  0  0  0
   28.9012   -0.5629   27.6192 C   0  0  0  0  0  0
   27.5971   -0.0773   27.4641 C   0  0  0  0  0  0
   26.5072   -0.9419   27.5308 C   0  0  0  0  0  0
   26.7207   -2.2999   27.7494 C   0  0  0  0  0  0
   28.0089   -2.8057   27.8640 C   0  0  0  0  0  0
   29.0936   -1.9398   27.8024 C   0  0  0  0  0  0
   25.6600   -3.1515   27.8640 O   0  0  0  0  0  0
   31.9766   -1.0447   26.7766 C   0  0  0  0  0  0
   31.8448   -0.7539   25.4089 C   0  0  0  0  0  0
   32.2500   -1.6641   24.4370 C   0  0  0  0  0  0
   32.7910   -2.8839   24.8192 C   0  0  0  0  0  0
   32.8799   -3.2194   26.1650 C   0  0  0  0  0  0
   32.5005   -2.2975   27.1359 C   0  0  0  0  0  0
   33.2600   -3.7420   23.8634 O   0  0  0  0  0  0
   32.5244    1.8390   31.8635 H   0  0  0  0  0  0
   33.2602    0.2549   31.6596 H   0  0  0  0  0  0
   33.4412    1.4691   30.4043 H   0  0  0  0  0  0
   30.8636    1.3894   30.1347 H   0  0  0  0  0  0
   30.8603    0.0637   31.2420 H   0  0  0  0  0  0
   31.0803   -1.3356   29.5138 H   0  0  0  0  0  0
   32.7306   -0.8619   29.4527 H   0  0  0  0  0  0
   32.1732    2.0769   28.3072 H   0  0  0  0  0  0
   33.4943    1.0132   27.8509 H   0  0  0  0  0  0
   32.4106    1.6553   26.6350 H   0  0  0  0  0  0
   29.7844    1.2575   28.2619 H   0  0  0  0  0  0
   29.9858    0.9363   26.5897 H   0  0  0  0  0  0
   27.4221    0.9773   27.3065 H   0  0  0  0  0  0
   25.5041   -0.5561   27.4261 H   0  0  0  0  0  0
   28.1685   -3.8635   28.0150 H   0  0  0  0  0  0
   30.0684   -2.3765   27.9078 H   0  0  0  0  0  0
   25.2600   -3.3420   26.9835 H   0  0  0  0  0  0
   31.4460    0.1931   25.0826 H   0  0  0  0  0  0
   32.1693   -1.4125   23.3899 H   0  0  0  0  0  0
   33.2680   -4.1800   26.4654 H   0  0  0  0  0  0
   32.6154   -2.5875   28.1673 H   0  0  0  0  0  0
   33.6599   -4.5354   24.2292 H   0  0  0  0  0  0
  1  2  1  0  0  0
  1 21  1  0  0  0
  1 22  1  0  0  0
  1 23  1  0  0  0
  2  3  1  0  0  0
  2 24  1  0  0  0
  2 25  1  0  0  0
  3  4  1  0  0  0
  3 26  1  0  0  0
  3 27  1  0  0  0
  4  5  1  0  0  0
  4  6  1  0  0  0
  4 14  1  0  0  0
  5 28  1  0  0  0
  5 29  1  0  0  0
  5 30  1  0  0  0
  6  7  1  0  0  0
  6 31  1  0  0  0
  6 32  1  0  0  0
  7 12  1  0  0  0
  7  8  2  0  0  0
  8  9  1  0  0  0
  8 33  1  0  0  0
  9 10  2  0  0  0
  9 34  1  0  0  0
 10 11  1  0  0  0
 10 13  1  0  0  0
 11 12  2  0  0  0
 11 35  1  0  0  0
 12 36  1  0  0  0
 13 37  1  0  0  0
 14 19  1  0  0  0
 14 15  2  0  0  0
 15 16  1  0  0  0
 15 38  1  0  0  0
 16 17  2  0  0  0
 16 39  1  0  0  0
 17 18  1  0  0  0
 17 20  1  0  0  0
 18 19  2  0  0  0
 18 40  1  0  0  0
 19 41  1  0  0  0
 20 42  1  0  0  0
M  END
> <s_m_entry_id>
17238

> <s_m_entry_name>
ligand_docking-pose.165

> <s_m_Source_Path>
/home/csk/Desktop/cluster/DUD-E-result/esr1

> <s_m_Source_File>
ligand_docking-pose.sdf

> <i_m_Source_File_Index>
165

> <i_lp_mmshare_version>
53161

> <i_f3d_flags>
0

> <r_lp_tautomer_probability>
0.99999999999473

> <s_lp_Force_Field>
OPLS_2005

> <r_lp_Energy>
16.350924

> <b_lp_Chiralities_Consistent>
1

> <s_lp_Variant>
568777-2

> <s_i_glide_gridfile>
glide-grid_1sj0

> <i_i_glide_lignum>
1435

> <i_i_glide_rotatable_bonds>
7

> <r_i_docking_score>
-9.26992787141464

> <r_i_glide_ligand_efficiency>
-0.463496393570732

> <r_i_glide_ligand_efficiency_sa>
-1.25812277468027

> <r_i_glide_ligand_efficiency_ln>
-2.31995720353144

> <r_i_glide_gscore>
-9.26992787141464

> <r_i_glide_lipo>
-4.6498054779919

> <r_i_glide_hbond>
-0.255841737405036

> <r_i_glide_metal>
0

> <r_i_glide_rewards>
-2.44626522354127

> <r_i_glide_evdw>
-35.3405914306641

> <r_i_glide_ecoul>
-7.53113508224487

> <r_i_glide_erotb>
0.978684401393498

> <r_i_glide_esite>
0

> <r_i_glide_emodel>
-59.4376470434149

> <r_i_glide_energy>
-42.8717265129089

> <r_i_glide_einternal>
11.3905506134033

> <i_i_glide_confnum>
52

> <i_i_glide_posenum>
262

> <r_i_glide_eff_state_penalty>
0

> <s_user_duplicate_titles>
568777

> <s_m_subgroup_title>
dock_pv

> <s_m_subgroupid>
dock_pv1

> <b_m_subgroup_collapsed>
0

$$$$
67416
                    3D
 Schrodinger Suite 2021-1.
 53 56  0  0  1  0            999 V2000
   32.0198    1.4532   29.0624 C   0  0  0  0  0  0
   30.7806    0.7869   28.5038 C   0  0  0  0  0  0
   30.6563   -0.4782   27.9308 C   0  0  0  0  0  0
   29.2929   -0.7756   27.5846 C   0  0  0  0  0  0
   28.7185   -1.9641   27.0836 C   0  0  0  0  0  0
   27.3539   -2.0192   26.7917 C   0  0  0  0  0  0
   26.5381   -0.9045   26.9782 C   0  0  0  0  0  0
   27.0645    0.2848   27.4652 C   0  0  0  0  0  0
   28.4281    0.3343   27.7893 C   0  0  0  0  0  0
   29.2819    1.6845   28.4774 S   0  0  0  0  0  0
   25.2080   -0.9564   26.6634 O   0  0  0  0  0  0
   31.7748   -1.3878   27.6984 C   0  0  0  0  0  0
   32.4796   -1.7441   28.6461 O   0  0  0  0  0  0
   32.0404   -1.8246   26.2854 C   0  0  0  0  0  0
   31.5331   -1.0958   25.1985 C   0  0  0  0  0  0
   31.8232   -1.4769   23.8963 C   0  0  0  0  0  0
   32.6191   -2.5898   23.6438 C   0  0  0  0  0  0
   33.1464   -3.3139   24.7208 C   0  0  0  0  0  0
   32.8590   -2.9346   26.0324 C   0  0  0  0  0  0
   32.8268   -2.8826   22.3127 O   0  0  0  0  0  0
   33.4803   -4.0946   21.9373 C   0  0  0  0  0  0
   33.6351   -4.1204   20.4033 C   0  0  0  0  0  0
   34.3526   -2.9620   19.8460 N   0  0  0  0  0  0
   34.2532   -2.9688   18.3804 C   0  0  0  0  0  0
   34.9040   -1.7193   17.7510 C   0  0  0  0  0  0
   36.3594   -1.5378   18.2094 C   0  0  0  0  0  0
   36.4295   -1.5813   19.7433 C   0  0  0  0  0  0
   35.7411   -2.8366   20.3204 C   0  0  0  0  0  0
   32.8131    1.5020   28.3154 H   0  0  0  0  0  0
   31.8275    2.4722   29.3956 H   0  0  0  0  0  0
   32.4195    0.9053   29.9172 H   0  0  0  0  0  0
   29.3307   -2.8398   26.9272 H   0  0  0  0  0  0
   26.9278   -2.9372   26.4054 H   0  0  0  0  0  0
   26.4256    1.1443   27.6023 H   0  0  0  0  0  0
   24.9619   -1.8092   26.2641 H   0  0  0  0  0  0
   30.9213   -0.2150   25.3433 H   0  0  0  0  0  0
   31.4386   -0.9034   23.0702 H   0  0  0  0  0  0
   33.7811   -4.1690   24.5554 H   0  0  0  0  0  0
   33.2666   -3.5128   26.8498 H   0  0  0  0  0  0
   34.4589   -4.1982   22.4119 H   0  0  0  0  0  0
   32.8612   -4.9419   22.2438 H   0  0  0  0  0  0
   34.1213   -5.0484   20.0966 H   0  0  0  0  0  0
   32.6291   -4.1445   19.9781 H   0  0  0  0  0  0
   34.6961   -3.8831   17.9824 H   0  0  0  0  0  0
   33.1981   -2.9903   18.0986 H   0  0  0  0  0  0
   34.8745   -1.8092   16.6650 H   0  0  0  0  0  0
   34.3031   -0.8361   17.9791 H   0  0  0  0  0  0
   36.7657   -0.6020   17.8311 H   0  0  0  0  0  0
   36.9739   -2.3392   17.7957 H   0  0  0  0  0  0
   35.9826   -0.6869   20.1825 H   0  0  0  0  0  0
   37.4725   -1.5609   20.0600 H   0  0  0  0  0  0
   35.7566   -2.7636   21.4076 H   0  0  0  0  0  0
   36.2981   -3.7400   20.0647 H   0  0  0  0  0  0
  1  2  1  0  0  0
  1 29  1  0  0  0
  1 30  1  0  0  0
  1 31  1  0  0  0
  2 10  1  0  0  0
  2  3  2  0  0  0
  3  4  1  0  0  0
  3 12  1  0  0  0
  4  9  2  0  0  0
  4  5  1  0  0  0
  5  6  2  0  0  0
  5 32  1  0  0  0
  6  7  1  0  0  0
  6 33  1  0  0  0
  7  8  2  0  0  0
  7 11  1  0  0  0
  8  9  1  0  0  0
  8 34  1  0  0  0
  9 10  1  0  0  0
 11 35  1  0  0  0
 12 13  2  0  0  0
 12 14  1  0  0  0
 14 19  1  0  0  0
 14 15  2  0  0  0
 15 16  1  0  0  0
 15 36  1  0  0  0
 16 17  2  0  0  0
 16 37  1  0  0  0
 17 18  1  0  0  0
 17 20  1  0  0  0
 18 19  2  0  0  0
 18 38  1  0  0  0
 19 39  1  0  0  0
 20 21  1  0  0  0
 21 22  1  0  0  0
 21 40  1  0  0  0
 21 41  1  0  0  0
 22 23  1  0  0  0
 22 42  1  0  0  0
 22 43  1  0  0  0
 23 28  1  0  0  0
 23 24  1  0  0  0
 24 25  1  0  0  0
 24 44  1  0  0  0
 24 45  1  0  0  0
 25 26  1  0  0  0
 25 46  1  0  0  0
 25 47  1  0  0  0
 26 27  1  0  0  0
 26 48  1  0  0  0
 26 49  1  0  0  0
 27 28  1  0  0  0
 27 50  1  0  0  0
 27 51  1  0  0  0
 28 52  1  0  0  0
 28 53  1  0  0  0
M  END
> <s_m_entry_id>
17239

> <s_m_entry_name>
ligand_docking-pose.166

> <s_m_Source_Path>
/home/csk/Desktop/cluster/DUD-E-result/esr1

> <s_m_Source_File>
ligand_docking-pose.sdf

> <i_m_Source_File_Index>
166

> <i_lp_mmshare_version>
53161

> <i_f3d_flags>
0

> <r_lp_tautomer_probability>
1

> <s_lp_Force_Field>
OPLS_2005

> <r_lp_Energy>
37.573414

> <b_lp_Chiralities_Consistent>
1

> <s_lp_Variant>
67416-1

> <s_i_glide_gridfile>
glide-grid_1sj0

> <i_i_glide_lignum>
914

> <i_i_glide_rotatable_bonds>
7

> <r_i_docking_score>
-9.26589477187243

> <r_i_glide_ligand_efficiency>
-0.330924813281158

> <r_i_glide_ligand_efficiency_sa>
-1.00488263741342

> <r_i_glide_ligand_efficiency_ln>
-2.13884057184034

> <r_i_glide_gscore>
-9.26589477187243

> <r_i_glide_lipo>
-4.60864502213965

> <r_i_glide_hbond>
-0.184365846172244

> <r_i_glide_metal>
0

> <r_i_glide_rewards>
-1.86204254347803

> <r_i_glide_evdw>
-48.3267669677734

> <r_i_glide_ecoul>
-4.21359062194824

> <r_i_glide_erotb>
0.437535581598392

> <r_i_glide_esite>
0

> <r_i_glide_emodel>
-80.7018649137215

> <r_i_glide_energy>
-52.5403575897217

> <r_i_glide_einternal>
4.84558486938477

> <i_i_glide_confnum>
16

> <i_i_glide_posenum>
117

> <r_i_glide_eff_state_penalty>
0

> <s_user_duplicate_titles>
67416

> <s_m_subgroup_title>
dock_pv

> <s_m_subgroupid>
dock_pv1

> <b_m_subgroup_collapsed>
0

$$$$
354394
                    3D
 Schrodinger Suite 2021-1.
 37 40  0  0  1  0            999 V2000
   28.8235   -2.4520   27.7665 C   0  0  0  0  0  0
   28.6934   -0.9166   27.6688 C   0  0  0  0  0  0
   29.9361   -0.0919   27.1655 C   0  0  1  0  0  0
   29.6902    1.4257   27.3564 C   0  0  0  0  0  0
   29.6835    1.8217   28.8533 C   0  0  0  0  0  0
   30.8575    1.2299   29.6578 C   0  0  0  0  0  0
   30.9523    1.4580   30.8625 O   0  0  0  0  0  0
   31.6815    0.1997   29.0083 C   0  0  0  0  0  0
   31.2351   -0.4445   27.8946 C   0  0  0  0  0  0
   31.8180   -1.5335   27.1035 C   0  0  0  0  0  0
   32.6985   -2.5420   27.4679 C   0  0  0  0  0  0
   33.1414   -3.4805   26.5437 C   0  0  0  0  0  0
   32.9210   -3.1914   25.1998 C   0  0  0  0  0  0
   32.0214   -2.1867   24.7956 C   0  0  0  0  0  0
   31.3677   -1.4394   25.7908 C   0  0  0  0  0  0
   30.2428   -0.5090   25.7179 C   0  0  0  0  0  0
   29.6600   -0.1420   24.7062 O   0  0  0  0  0  0
   32.0269   -2.2915   23.3729 C   0  0  0  0  0  0
   32.8621   -3.1972   22.9451 N   0  0  0  0  0  0
   33.4114   -3.7420   24.0368 N   0  0  0  0  0  0
   33.0335   -0.0571   29.7035 C   0  0  0  0  0  0
   33.9500   -0.5086   28.8504 F   0  0  0  0  0  0
   33.5558    1.0580   30.2244 F   0  0  0  0  0  0
   32.8600   -0.9420   30.6735 F   0  0  0  0  0  0
   34.0600   -4.5116   23.9504 H   0  0  0  0  0  0
   27.8904   -2.8986   28.1111 H   0  0  0  0  0  0
   29.0580   -2.9038   26.8049 H   0  0  0  0  0  0
   29.6013   -2.7443   28.4721 H   0  0  0  0  0  0
   27.8297   -0.6849   27.0414 H   0  0  0  0  0  0
   28.4074   -0.5788   28.6638 H   0  0  0  0  0  0
   30.4602    1.9898   26.8350 H   0  0  0  0  0  0
   28.7457    1.7193   26.8942 H   0  0  0  0  0  0
   29.6600    2.9018   28.9818 H   0  0  0  0  0  0
   28.7879    1.4213   29.3145 H   0  0  0  0  0  0
   32.9766   -2.6685   28.5035 H   0  0  0  0  0  0
   33.6600   -4.3643   26.8674 H   0  0  0  0  0  0
   31.4452   -1.7420   22.6641 H   0  0  0  0  0  0
  1  2  1  0  0  0
  1 26  1  0  0  0
  1 27  1  0  0  0
  1 28  1  0  0  0
  2  3  1  0  0  0
  2 29  1  0  0  0
  2 30  1  0  0  0
  3  9  1  0  0  0
  3 16  1  0  0  0
  3  4  1  0  0  0
  4  5  1  0  0  0
  4 31  1  0  0  0
  4 32  1  0  0  0
  5  6  1  0  0  0
  5 33  1  0  0  0
  5 34  1  0  0  0
  6  7  2  0  0  0
  6  8  1  0  0  0
  8  9  2  0  0  0
  8 21  1  0  0  0
  9 10  1  0  0  0
 10 15  1  0  0  0
 10 11  2  0  0  0
 11 12  1  0  0  0
 11 35  1  0  0  0
 12 13  2  0  0  0
 12 36  1  0  0  0
 13 20  1  0  0  0
 13 14  1  0  0  0
 14 15  2  0  0  0
 14 18  1  0  0  0
 15 16  1  0  0  0
 16 17  2  0  0  0
 18 19  2  0  0  0
 18 37  1  0  0  0
 19 20  1  0  0  0
 20 25  1  0  0  0
 21 22  1  0  0  0
 21 23  1  0  0  0
 21 24  1  0  0  0
M  END
> <s_m_entry_id>
17240

> <s_m_entry_name>
ligand_docking-pose.167

> <s_m_Source_Path>
/home/csk/Desktop/cluster/DUD-E-result/esr1

> <s_m_Source_File>
ligand_docking-pose.sdf

> <i_m_Source_File_Index>
167

> <i_lp_mmshare_version>
53161

> <i_f3d_flags>
0

> <r_lp_tautomer_probability>
1

> <s_lp_Force_Field>
OPLS_2005

> <r_lp_Energy>
48.402319

> <b_lp_Chiralities_Consistent>
1

> <s_lp_Variant>
354394-1

> <s_i_glide_gridfile>
glide-grid_1sj0

> <i_i_glide_lignum>
1097

> <i_i_glide_rotatable_bonds>
2

> <r_i_docking_score>
-9.24146565552596

> <r_i_glide_ligand_efficiency>
-0.385061068980248

> <r_i_glide_ligand_efficiency_sa>
-1.11070832138112

> <r_i_glide_ligand_efficiency_ln>
-2.21190679459396

> <r_i_glide_gscore>
-9.24146565552596

> <r_i_glide_lipo>
-4.02310650622594

> <r_i_glide_hbond>
-0.0382434823330525

> <r_i_glide_metal>
0

> <r_i_glide_rewards>
-3.74521822266289

> <r_i_glide_evdw>
-28.6561431884766

> <r_i_glide_ecoul>
-0.0139352325350046

> <r_i_glide_erotb>
0

> <r_i_glide_esite>
0

> <r_i_glide_emodel>
-28.3971445968376

> <r_i_glide_energy>
-28.6700784210116

> <r_i_glide_einternal>
1.77567744255066

> <i_i_glide_confnum>
1

> <i_i_glide_posenum>
81

> <r_i_glide_eff_state_penalty>
0

> <s_user_duplicate_titles>
354394

> <s_m_subgroup_title>
dock_pv

> <s_m_subgroupid>
dock_pv1

> <b_m_subgroup_collapsed>
0

$$$$
125524
                    3D
 Schrodinger Suite 2021-1.
 41 45  0  0  1  0            999 V2000
   31.4675   -1.7012   24.0959 C   0  0  0  0  0  0
   31.9849   -2.1439   22.8782 C   0  0  0  0  0  0
   32.9279   -3.1527   22.8316 C   0  0  0  0  0  0
   33.3481   -3.7411   24.0063 C   0  0  0  0  0  0
   32.8098   -3.3420   25.2219 C   0  0  0  0  0  0
   31.8701   -2.3038   25.2937 C   0  0  0  0  0  0
   31.4042   -1.7774   26.6057 C   0  0  0  0  0  0
   32.0986   -1.9210   27.7531 C   0  0  0  0  0  0
   33.2578   -2.5422   28.3315 C   0  0  0  0  0  0
   33.6589   -1.7447   29.3448 C   0  0  0  0  0  0
   32.6730   -0.7034   29.4850 C   0  0  0  0  0  0
   32.5688    0.4731   30.1271 C   0  0  0  0  0  0
   31.4166    1.3265   29.8301 C   0  0  0  0  0  0
   30.4238    0.9425   28.9751 C   0  0  0  0  0  0
   29.2666    1.8581   28.6204 C   0  0  0  0  0  0
   28.4446    1.5694   27.3305 C   0  0  0  0  0  0
   27.9234    0.1226   27.1457 C   0  0  0  0  0  0
   28.9088   -0.8169   26.3864 C   0  0  0  0  0  0
   30.3802   -0.6443   26.8315 C   0  0  1  0  0  0
   30.4163   -0.4693   28.3569 C   0  0  1  0  0  0
   31.6504   -1.0957   28.6961 N   0  0  0  0  0  0
   33.4223   -3.5694   21.6255 O   0  0  0  0  0  0
   30.7566   -0.8896   24.0947 H   0  0  0  0  0  0
   31.6599   -1.7436   21.9397 H   0  0  0  0  0  0
   34.0557   -4.5444   23.9811 H   0  0  0  0  0  0
   33.1279   -3.8783   26.0957 H   0  0  0  0  0  0
   33.8178   -3.3737   27.9482 H   0  0  0  0  0  0
   34.5944   -1.8417   29.8647 H   0  0  0  0  0  0
   33.3703    0.8382   30.7526 H   0  0  0  0  0  0
   31.3928    2.3036   30.2727 H   0  0  0  0  0  0
   28.5901    1.8582   29.4633 H   0  0  0  0  0  0
   29.6602    2.8741   28.5829 H   0  0  0  0  0  0
   27.5926    2.2500   27.3282 H   0  0  0  0  0  0
   29.0253    1.8579   26.4536 H   0  0  0  0  0  0
   27.6938   -0.2951   28.1269 H   0  0  0  0  0  0
   26.9518    0.1335   26.6578 H   0  0  0  0  0  0
   28.5934   -1.8510   26.5329 H   0  0  0  0  0  0
   28.8411   -0.6302   25.3158 H   0  0  0  0  0  0
   30.7768    0.2557   26.3569 H   0  0  0  0  0  0
   29.6432   -1.0754   28.8302 H   0  0  0  0  0  0
   33.9009   -4.4006   21.6663 H   0  0  0  0  0  0
  1  6  1  0  0  0
  1  2  2  0  0  0
  1 23  1  0  0  0
  2  3  1  0  0  0
  2 24  1  0  0  0
  3  4  2  0  0  0
  3 22  1  0  0  0
  4  5  1  0  0  0
  4 25  1  0  0  0
  5  6  2  0  0  0
  5 26  1  0  0  0
  6  7  1  0  0  0
  7 19  1  0  0  0
  7  8  2  0  0  0
  8 21  1  0  0  0
  8  9  1  0  0  0
  9 10  2  0  0  0
  9 27  1  0  0  0
 10 11  1  0  0  0
 10 28  1  0  0  0
 11 21  1  0  0  0
 11 12  2  0  0  0
 12 13  1  0  0  0
 12 29  1  0  0  0
 13 14  2  0  0  0
 13 30  1  0  0  0
 14 20  1  0  0  0
 14 15  1  0  0  0
 15 16  1  0  0  0
 15 31  1  0  0  0
 15 32  1  0  0  0
 16 17  1  0  0  0
 16 33  1  0  0  0
 16 34  1  0  0  0
 17 18  1  0  0  0
 17 35  1  0  0  0
 17 36  1  0  0  0
 18 19  1  0  0  0
 18 37  1  0  0  0
 18 38  1  0  0  0
 19 20  1  0  0  0
 19 39  1  0  0  0
 20 21  1  0  0  0
 20 40  1  0  0  0
 22 41  1  0  0  0
M  END
> <s_m_entry_id>
17241

> <s_m_entry_name>
ligand_docking-pose.168

> <s_m_Source_Path>
/home/csk/Desktop/cluster/DUD-E-result/esr1

> <s_m_Source_File>
ligand_docking-pose.sdf

> <i_m_Source_File_Index>
168

> <i_lp_mmshare_version>
53161

> <i_f3d_flags>
0

> <r_lp_tautomer_probability>
1

> <s_lp_Force_Field>
OPLS_2005

> <r_lp_Energy>
84.050988

> <b_lp_Chiralities_Consistent>
1

> <s_lp_Variant>
125524-1

> <s_i_glide_gridfile>
glide-grid_1sj0

> <i_i_glide_lignum>
157

> <i_i_glide_rotatable_bonds>
2

> <r_i_docking_score>
-9.23996666008837

> <r_i_glide_ligand_efficiency>
-0.419998484549471

> <r_i_glide_ligand_efficiency_sa>
-1.17685227131071

> <r_i_glide_ligand_efficiency_ln>
-2.25858488769857

> <r_i_glide_gscore>
-9.23996666008837

> <r_i_glide_lipo>
-5.24664638375188

> <r_i_glide_hbond>
0

> <r_i_glide_metal>
0

> <r_i_glide_rewards>
-2.55727902415008

> <r_i_glide_evdw>
-32.4621925354004

> <r_i_glide_ecoul>
-0.202504679560661

> <r_i_glide_erotb>
0.21744407651771

> <r_i_glide_esite>
0

> <r_i_glide_emodel>
-43.7299411253369

> <r_i_glide_energy>
-32.6646972149611

> <r_i_glide_einternal>
0.432119607925415

> <i_i_glide_confnum>
2

> <i_i_glide_posenum>
180

> <r_i_glide_eff_state_penalty>
0

> <s_user_duplicate_titles>
125524

> <s_m_subgroup_title>
dock_pv

> <s_m_subgroupid>
dock_pv1

> <b_m_subgroup_collapsed>
0

$$$$
313777
                    3D
 Schrodinger Suite 2021-1.
 32 35  0  0  1  0            999 V2000
   30.5586    1.8048   28.5670 C   0  0  0  0  0  0
   29.1910    1.7979   28.3195 C   0  0  0  0  0  0
   28.5762    0.6747   27.7169 C   0  0  0  0  0  0
   27.1845    0.6435   27.4650 C   0  0  0  0  0  0
   26.5703   -0.5305   27.0541 C   0  0  0  0  0  0
   27.3239   -1.6614   26.7714 C   0  0  0  0  0  0
   28.7104   -1.6331   26.9041 C   0  0  0  0  0  0
   29.3714   -0.4646   27.3809 C   0  0  0  0  0  0
   30.7874   -0.3853   27.5560 C   0  0  0  0  0  0
   31.3486    0.7379   28.1664 C   0  0  0  0  0  0
   31.7169   -1.4378   27.0713 C   0  0  0  0  0  0
   31.9487   -1.8191   25.7127 C   0  0  0  0  0  0
   31.4723   -1.4769   24.4355 C   0  0  0  0  0  0
   32.0286   -2.1263   23.3258 C   0  0  0  0  0  0
   33.0479   -3.0689   23.4666 C   0  0  0  0  0  0
   33.5456   -3.4012   24.7220 C   0  0  0  0  0  0
   32.9565   -2.7829   25.8242 C   0  0  0  0  0  0
   33.2574   -2.9914   27.1343 O   0  0  0  0  0  0
   32.4867   -2.1123   27.8997 N   0  0  0  0  0  0
   33.5604   -3.6916   22.3623 O   0  0  0  0  0  0
   25.2153   -0.5419   26.8756 O   0  0  0  0  0  0
   31.0149    2.6568   29.0508 H   0  0  0  0  0  0
   28.5841    2.6348   28.6312 H   0  0  0  0  0  0
   26.5876    1.5169   27.6870 H   0  0  0  0  0  0
   26.8296   -2.5577   26.4204 H   0  0  0  0  0  0
   29.2854   -2.5160   26.6660 H   0  0  0  0  0  0
   32.4166    0.7912   28.3230 H   0  0  0  0  0  0
   30.6876   -0.7440   24.3112 H   0  0  0  0  0  0
   31.6600   -1.8916   22.3395 H   0  0  0  0  0  0
   34.3232   -4.1391   24.8375 H   0  0  0  0  0  0
   33.0427   -3.5480   21.5666 H   0  0  0  0  0  0
   24.8504    0.3511   26.8982 H   0  0  0  0  0  0
  1 10  1  0  0  0
  1  2  2  0  0  0
  1 22  1  0  0  0
  2  3  1  0  0  0
  2 23  1  0  0  0
  3  8  2  0  0  0
  3  4  1  0  0  0
  4  5  2  0  0  0
  4 24  1  0  0  0
  5  6  1  0  0  0
  5 21  1  0  0  0
  6  7  2  0  0  0
  6 25  1  0  0  0
  7  8  1  0  0  0
  7 26  1  0  0  0
  8  9  1  0  0  0
  9 10  2  0  0  0
  9 11  1  0  0  0
 10 27  1  0  0  0
 11 19  2  0  0  0
 11 12  1  0  0  0
 12 17  2  0  0  0
 12 13  1  0  0  0
 13 14  2  0  0  0
 13 28  1  0  0  0
 14 15  1  0  0  0
 14 29  1  0  0  0
 15 16  2  0  0  0
 15 20  1  0  0  0
 16 17  1  0  0  0
 16 30  1  0  0  0
 17 18  1  0  0  0
 18 19  1  0  0  0
 20 31  1  0  0  0
 21 32  1  0  0  0
M  END
> <s_m_entry_id>
17242

> <s_m_entry_name>
ligand_docking-pose.169

> <s_m_Source_Path>
/home/csk/Desktop/cluster/DUD-E-result/esr1

> <s_m_Source_File>
ligand_docking-pose.sdf

> <i_m_Source_File_Index>
169

> <i_lp_mmshare_version>
53161

> <i_f3d_flags>
0

> <r_lp_tautomer_probability>
1

> <s_lp_Force_Field>
OPLS_2005

> <r_lp_Energy>
39.585133

> <b_lp_Chiralities_Consistent>
1

> <s_lp_Variant>
313777-1

> <s_i_glide_gridfile>
glide-grid_1sj0

> <i_i_glide_lignum>
46

> <i_i_glide_rotatable_bonds>
3

> <r_i_docking_score>
-9.23020060517355

> <r_i_glide_ligand_efficiency>
-0.439533362151121

> <r_i_glide_ligand_efficiency_sa>
-1.21263921793417

> <r_i_glide_ligand_efficiency_ln>
-2.28214844825265

> <r_i_glide_gscore>
-9.23020060517355

> <r_i_glide_lipo>
-4.36167750526759

> <r_i_glide_hbond>
-0.32

> <r_i_glide_metal>
0

> <r_i_glide_rewards>
-2.41858540909091

> <r_i_glide_evdw>
-37.3730735778809

> <r_i_glide_ecoul>
-3.30327272415161

> <r_i_glide_erotb>
0.234206896701733

> <r_i_glide_esite>
0

> <r_i_glide_emodel>
-58.7745002198769

> <r_i_glide_energy>
-40.6763463020325

> <r_i_glide_einternal>
4.09047985076904

> <i_i_glide_confnum>
3

> <i_i_glide_posenum>
11

> <r_i_glide_eff_state_penalty>
0

> <s_user_duplicate_titles>
313777

> <s_m_subgroup_title>
dock_pv

> <s_m_subgroupid>
dock_pv1

> <b_m_subgroup_collapsed>
0

$$$$
301212
                    3D
 Schrodinger Suite 2021-1.
 42 44  0  0  1  0            999 V2000
   30.3190   -0.1647   25.5526 C   0  0  0  0  0  0
   31.3463   -0.2005   26.6828 C   0  0  0  0  0  0
   31.9351    0.9359   27.1145 C   0  0  0  0  0  0
   32.9825    1.0471   28.2100 C   0  0  0  0  0  0
   33.2660   -0.3113   28.9292 C   0  0  2  0  0  0
   33.0342   -1.4987   27.9665 C   0  0  0  0  0  0
   31.5845   -1.5208   27.4407 C   0  0  1  0  0  0
   30.5934   -1.5747   28.6634 C   0  0  1  0  0  0
   30.9130   -0.5815   29.6433 O   0  0  0  0  0  0
   32.2624   -0.4893   30.0936 C   0  0  0  0  0  0
   29.1106   -1.4765   28.2513 C   0  0  0  0  0  0
   28.4567   -2.6558   27.8641 C   0  0  0  0  0  0
   27.1642   -2.6200   27.3478 C   0  0  0  0  0  0
   26.5050   -1.4018   27.2152 C   0  0  0  0  0  0
   27.1165   -0.2293   27.6297 C   0  0  0  0  0  0
   28.4068   -0.2505   28.1547 C   0  0  0  0  0  0
   29.0536    1.2868   28.6303 Cl  0  0  0  0  0  0
   25.2600   -1.3420   26.6640 O   0  0  0  0  0  0
   31.4799   -2.7495   26.5012 C   0  0  0  0  0  0
   34.7169   -0.3578   29.4637 C   0  0  0  0  0  0
   35.6600   -0.1305   28.4427 O   0  0  0  0  0  0
   30.7111   -2.5311   29.1709 H   0  0  0  0  0  0
   29.5747   -0.9542   25.6345 H   0  0  0  0  0  0
   29.7664    0.7723   25.5399 H   0  0  0  0  0  0
   30.8202   -0.2927   24.5937 H   0  0  0  0  0  0
   31.6436    1.8580   26.6640 H   0  0  0  0  0  0
   33.8573    1.3706   27.6459 H   0  0  0  0  0  0
   32.7615    1.8501   28.9139 H   0  0  0  0  0  0
   33.2752   -2.4402   28.4653 H   0  0  0  0  0  0
   33.6995   -1.4315   27.1101 H   0  0  0  0  0  0
   32.5306   -1.3420   30.7099 H   0  0  0  0  0  0
   32.3212    0.3661   30.7683 H   0  0  0  0  0  0
   28.9644   -3.6084   27.9256 H   0  0  0  0  0  0
   26.6867   -3.5358   27.0286 H   0  0  0  0  0  0
   26.5867    0.7071   27.5286 H   0  0  0  0  0  0
   24.9968   -2.2015   26.2640 H   0  0  0  0  0  0
   31.8273   -3.6592   26.9904 H   0  0  0  0  0  0
   32.0810   -2.6231   25.5996 H   0  0  0  0  0  0
   30.4600   -2.9420   26.1901 H   0  0  0  0  0  0
   34.8599    0.3779   30.2544 H   0  0  0  0  0  0
   34.9403   -1.3439   29.8640 H   0  0  0  0  0  0
   36.4314    0.3328   28.7970 H   0  0  0  0  0  0
  1  2  1  0  0  0
  1 23  1  0  0  0
  1 24  1  0  0  0
  1 25  1  0  0  0
  2  7  1  0  0  0
  2  3  2  0  0  0
  3  4  1  0  0  0
  3 26  1  0  0  0
  4  5  1  0  0  0
  4 27  1  0  0  0
  4 28  1  0  0  0
  5 10  1  0  0  0
  5  6  1  0  0  0
  5 20  1  0  0  0
  6  7  1  0  0  0
  6 29  1  0  0  0
  6 30  1  0  0  0
  7  8  1  0  0  0
  7 19  1  0  0  0
  8 22  1  0  0  0
  8  9  1  0  0  0
  8 11  1  0  0  0
  9 10  1  0  0  0
 10 31  1  0  0  0
 10 32  1  0  0  0
 11 16  1  0  0  0
 11 12  2  0  0  0
 12 13  1  0  0  0
 12 33  1  0  0  0
 13 14  2  0  0  0
 13 34  1  0  0  0
 14 15  1  0  0  0
 14 18  1  0  0  0
 15 16  2  0  0  0
 15 35  1  0  0  0
 16 17  1  0  0  0
 18 36  1  0  0  0
 19 37  1  0  0  0
 19 38  1  0  0  0
 19 39  1  0  0  0
 20 21  1  0  0  0
 20 40  1  0  0  0
 20 41  1  0  0  0
 21 42  1  0  0  0
M  END
> <s_m_entry_id>
17243

> <s_m_entry_name>
ligand_docking-pose.170

> <s_m_Source_Path>
/home/csk/Desktop/cluster/DUD-E-result/esr1

> <s_m_Source_File>
ligand_docking-pose.sdf

> <i_m_Source_File_Index>
170

> <i_lp_mmshare_version>
53161

> <i_f3d_flags>
0

> <r_lp_tautomer_probability>
0.999999999997365

> <s_lp_Force_Field>
OPLS_2005

> <r_lp_Energy>
31.069878

> <b_lp_Chiralities_Consistent>
1

> <s_lp_Variant>
301212-1

> <s_i_glide_gridfile>
glide-grid_1sj0

> <i_i_glide_lignum>
919

> <i_i_glide_rotatable_bonds>
4

> <r_i_docking_score>
-9.22421437417824

> <r_i_glide_ligand_efficiency>
-0.439248303532297

> <r_i_glide_ligand_efficiency_sa>
-1.21185276281981

> <r_i_glide_ligand_efficiency_ln>
-2.28066836473538

> <r_i_glide_gscore>
-9.22421437417824

> <r_i_glide_lipo>
-4.1222830302648

> <r_i_glide_hbond>
-0.494609784359254

> <r_i_glide_metal>
0

> <r_i_glide_rewards>
-2.17674102852831

> <r_i_glide_evdw>
-24.3567504882812

> <r_i_glide_ecoul>
-9.89635944366455

> <r_i_glide_erotb>
0.271710909937868

> <r_i_glide_esite>
0

> <r_i_glide_emodel>
-49.6894551774159

> <r_i_glide_energy>
-34.2531099319458

> <r_i_glide_einternal>
4.35306072235107

> <i_i_glide_confnum>
5

> <i_i_glide_posenum>
173

> <r_i_glide_eff_state_penalty>
0

> <s_user_duplicate_titles>
301212

> <s_m_subgroup_title>
dock_pv

> <s_m_subgroupid>
dock_pv1

> <b_m_subgroup_collapsed>
0

$$$$
5622
                    3D
 Schrodinger Suite 2021-1.
 42 43  0  0  1  0            999 V2000
   28.9476    1.6870   28.2548 C   0  0  0  0  0  0
   30.0802    0.6568   28.4189 C   0  0  0  0  0  0
   30.1646   -0.4414   27.3052 C   0  0  2  0  0  0
   28.9475   -1.3807   27.3970 C   0  0  0  0  0  0
   29.0334   -2.6020   28.0715 C   0  0  0  0  0  0
   27.9102   -3.3891   28.2640 C   0  0  0  0  0  0
   26.6713   -2.9178   27.8640 C   0  0  0  0  0  0
   26.5682   -1.7420   27.1206 C   0  0  0  0  0  0
   27.7131   -0.9883   26.8659 C   0  0  0  0  0  0
   25.5576   -3.6025   28.2640 O   0  0  0  0  0  0
   31.5501   -1.1966   27.2695 C   0  0  1  0  0  0
   31.7207   -2.0947   26.0140 C   0  0  0  0  0  0
   32.9064   -3.0716   26.0818 C   0  0  0  0  0  0
   32.7418   -0.2628   27.4612 C   0  0  0  0  0  0
   32.8600    0.8770   26.6640 C   0  0  0  0  0  0
   33.8391    1.8190   26.9357 C   0  0  0  0  0  0
   34.7224    1.5865   27.9800 C   0  0  0  0  0  0
   34.6621    0.4256   28.7436 C   0  0  0  0  0  0
   33.6600   -0.5008   28.4896 C   0  0  0  0  0  0
   35.6600    2.5222   28.2640 O   0  0  0  0  0  0
   30.0793    0.0660   26.3422 H   0  0  0  0  0  0
   31.5922   -1.8438   28.1418 H   0  0  0  0  0  0
   28.9724    2.4189   29.0629 H   0  0  0  0  0  0
   29.0514    2.2314   27.3159 H   0  0  0  0  0  0
   27.9593    1.2324   28.2640 H   0  0  0  0  0  0
   30.0322    0.1864   29.3996 H   0  0  0  0  0  0
   30.9890    1.2523   28.4609 H   0  0  0  0  0  0
   29.9516   -2.9420   28.5088 H   0  0  0  0  0  0
   27.9861   -4.3105   28.8221 H   0  0  0  0  0  0
   25.6061   -1.4002   26.7687 H   0  0  0  0  0  0
   27.6295   -0.0632   26.3157 H   0  0  0  0  0  0
   24.9363   -3.6789   27.5256 H   0  0  0  0  0  0
   30.8248   -2.6932   25.8642 H   0  0  0  0  0  0
   31.8116   -1.4743   25.1211 H   0  0  0  0  0  0
   32.9260   -3.7216   25.2065 H   0  0  0  0  0  0
   33.8570   -2.5420   26.1117 H   0  0  0  0  0  0
   32.8471   -3.7108   26.9634 H   0  0  0  0  0  0
   32.1631    1.0497   25.8640 H   0  0  0  0  0  0
   33.9149    2.7170   26.3417 H   0  0  0  0  0  0
   35.3650    0.2555   29.5461 H   0  0  0  0  0  0
   33.5859   -1.3826   29.1098 H   0  0  0  0  0  0
   36.4326    2.1234   28.6858 H   0  0  0  0  0  0
  1  2  1  0  0  0
  1 23  1  0  0  0
  1 24  1  0  0  0
  1 25  1  0  0  0
  2  3  1  0  0  0
  2 26  1  0  0  0
  2 27  1  0  0  0
  3 21  1  0  0  0
  3  4  1  0  0  0
  3 11  1  0  0  0
  4  9  1  0  0  0
  4  5  2  0  0  0
  5  6  1  0  0  0
  5 28  1  0  0  0
  6  7  2  0  0  0
  6 29  1  0  0  0
  7  8  1  0  0  0
  7 10  1  0  0  0
  8  9  2  0  0  0
  8 30  1  0  0  0
  9 31  1  0  0  0
 10 32  1  0  0  0
 11 22  1  0  0  0
 11 12  1  0  0  0
 11 14  1  0  0  0
 12 13  1  0  0  0
 12 33  1  0  0  0
 12 34  1  0  0  0
 13 35  1  0  0  0
 13 36  1  0  0  0
 13 37  1  0  0  0
 14 19  1  0  0  0
 14 15  2  0  0  0
 15 16  1  0  0  0
 15 38  1  0  0  0
 16 17  2  0  0  0
 16 39  1  0  0  0
 17 18  1  0  0  0
 17 20  1  0  0  0
 18 19  2  0  0  0
 18 40  1  0  0  0
 19 41  1  0  0  0
 20 42  1  0  0  0
M  END
> <s_m_entry_id>
17244

> <s_m_entry_name>
ligand_docking-pose.171

> <s_m_Source_Path>
/home/csk/Desktop/cluster/DUD-E-result/esr1

> <s_m_Source_File>
ligand_docking-pose.sdf

> <i_m_Source_File_Index>
171

> <i_lp_mmshare_version>
53161

> <i_f3d_flags>
0

> <r_lp_tautomer_probability>
0.99999999999473

> <s_lp_Force_Field>
OPLS_2005

> <r_lp_Energy>
13.773364

> <b_lp_Chiralities_Consistent>
1

> <s_lp_Variant>
5622-1

> <s_i_glide_gridfile>
glide-grid_1sj0

> <i_i_glide_lignum>
1501

> <i_i_glide_rotatable_bonds>
7

> <r_i_docking_score>
-9.21793538041911

> <r_i_glide_ligand_efficiency>
-0.460896769020955

> <r_i_glide_ligand_efficiency_sa>
-1.25106630801287

> <r_i_glide_ligand_efficiency_ln>
-2.30694519786238

> <r_i_glide_gscore>
-9.21793538041911

> <r_i_glide_lipo>
-4.29843181336329

> <r_i_glide_hbond>
-0.456

> <r_i_glide_metal>
0

> <r_i_glide_rewards>
-2.46568581818182

> <r_i_glide_evdw>
-32.6110229492188

> <r_i_glide_ecoul>
-7.34186601638794

> <r_i_glide_erotb>
0.734013301045124

> <r_i_glide_esite>
0

> <r_i_glide_emodel>
-57.6630777783128

> <r_i_glide_energy>
-39.9528889656067

> <r_i_glide_einternal>
8.82540416717529

> <i_i_glide_confnum>
5

> <i_i_glide_posenum>
349

> <r_i_glide_eff_state_penalty>
0

> <s_user_duplicate_titles>
5622

> <s_m_subgroup_title>
dock_pv

> <s_m_subgroupid>
dock_pv1

> <b_m_subgroup_collapsed>
0

$$$$
301213
                    3D
 Schrodinger Suite 2021-1.
 42 44  0  0  1  0            999 V2000
   30.7658   -0.7289   25.0490 C   0  0  0  0  0  0
   31.7569   -0.5484   26.1950 C   0  0  0  0  0  0
   32.4881    0.5786   26.2814 C   0  0  0  0  0  0
   33.4485    0.9371   27.3934 C   0  0  0  0  0  0
   33.5812   -0.1735   28.4852 C   0  0  2  0  0  0
   33.3230   -1.5609   27.8564 C   0  0  0  0  0  0
   31.8978   -1.6577   27.2588 C   0  0  1  0  0  0
   30.8932   -1.4247   28.4489 C   0  0  1  0  0  0
   31.1901   -0.1850   29.1122 O   0  0  0  0  0  0
   32.5148   -0.0096   29.6020 C   0  0  0  0  0  0
   29.4197   -1.4231   28.0412 C   0  0  0  0  0  0
   28.7185   -2.6167   27.8313 C   0  0  0  0  0  0
   27.3993   -2.5851   27.3738 C   0  0  0  0  0  0
   26.7614   -1.3613   27.1592 C   0  0  0  0  0  0
   27.4425   -0.1686   27.4212 C   0  0  0  0  0  0
   28.7617   -0.2043   27.8473 C   0  0  0  0  0  0
   26.8600    1.0367   27.2466 F   0  0  0  0  0  0
   25.4852   -1.3420   26.6640 O   0  0  0  0  0  0
   31.8085   -3.0362   26.5490 C   0  0  0  0  0  0
   35.0078   -0.1015   29.0681 C   0  0  0  0  0  0
   35.2600    1.2056   29.5405 O   0  0  0  0  0  0
   31.0076   -2.2088   29.1958 H   0  0  0  0  0  0
   29.8738   -1.2681   25.3632 H   0  0  0  0  0  0
   30.4313    0.2333   24.6640 H   0  0  0  0  0  0
   31.2253   -1.2864   24.2327 H   0  0  0  0  0  0
   32.4600    1.2671   25.4651 H   0  0  0  0  0  0
   34.3966    1.0581   26.8669 H   0  0  0  0  0  0
   33.2264    1.9133   27.8268 H   0  0  0  0  0  0
   33.4873   -2.3493   28.5950 H   0  0  0  0  0  0
   34.0396   -1.7416   27.0638 H   0  0  0  0  0  0
   32.6988   -0.7007   30.4270 H   0  0  0  0  0  0
   32.5772    0.9873   30.0402 H   0  0  0  0  0  0
   29.2040   -3.5707   27.9808 H   0  0  0  0  0  0
   26.8783   -3.5105   27.1707 H   0  0  0  0  0  0
   29.2772    0.7322   28.0039 H   0  0  0  0  0  0
   25.2075   -2.1987   26.2822 H   0  0  0  0  0  0
   32.2085   -3.8452   27.1502 H   0  0  0  0  0  0
   32.4009   -3.0478   25.6325 H   0  0  0  0  0  0
   30.7949   -3.3033   26.2639 H   0  0  0  0  0  0
   35.1602   -0.8277   29.8640 H   0  0  0  0  0  0
   35.7508   -0.3259   28.3011 H   0  0  0  0  0  0
   36.2137    1.3658   29.4644 H   0  0  0  0  0  0
  1  2  1  0  0  0
  1 23  1  0  0  0
  1 24  1  0  0  0
  1 25  1  0  0  0
  2  7  1  0  0  0
  2  3  2  0  0  0
  3  4  1  0  0  0
  3 26  1  0  0  0
  4  5  1  0  0  0
  4 27  1  0  0  0
  4 28  1  0  0  0
  5 10  1  0  0  0
  5  6  1  0  0  0
  5 20  1  0  0  0
  6  7  1  0  0  0
  6 29  1  0  0  0
  6 30  1  0  0  0
  7  8  1  0  0  0
  7 19  1  0  0  0
  8 22  1  0  0  0
  8  9  1  0  0  0
  8 11  1  0  0  0
  9 10  1  0  0  0
 10 31  1  0  0  0
 10 32  1  0  0  0
 11 16  1  0  0  0
 11 12  2  0  0  0
 12 13  1  0  0  0
 12 33  1  0  0  0
 13 14  2  0  0  0
 13 34  1  0  0  0
 14 15  1  0  0  0
 14 18  1  0  0  0
 15 16  2  0  0  0
 15 17  1  0  0  0
 16 35  1  0  0  0
 18 36  1  0  0  0
 19 37  1  0  0  0
 19 38  1  0  0  0
 19 39  1  0  0  0
 20 21  1  0  0  0
 20 40  1  0  0  0
 20 41  1  0  0  0
 21 42  1  0  0  0
M  END
> <s_m_entry_id>
17245

> <s_m_entry_name>
ligand_docking-pose.172

> <s_m_Source_Path>
/home/csk/Desktop/cluster/DUD-E-result/esr1

> <s_m_Source_File>
ligand_docking-pose.sdf

> <i_m_Source_File_Index>
172

> <i_lp_mmshare_version>
53161

> <i_f3d_flags>
0

> <r_lp_tautomer_probability>
0.999999999997365

> <s_lp_Force_Field>
OPLS_2005

> <r_lp_Energy>
30.044428

> <b_lp_Chiralities_Consistent>
1

> <s_lp_Variant>
301213-1

> <s_i_glide_gridfile>
glide-grid_1sj0

> <i_i_glide_lignum>
920

> <i_i_glide_rotatable_bonds>
4

> <r_i_docking_score>
-9.20849767812008

> <r_i_glide_ligand_efficiency>
-0.43849988943429

> <r_i_glide_ligand_efficiency_sa>
-1.20978794507297

> <r_i_glide_ligand_efficiency_ln>
-2.27678244339358

> <r_i_glide_gscore>
-9.20849767812008

> <r_i_glide_lipo>
-3.84004347647583

> <r_i_glide_hbond>
-0.456

> <r_i_glide_metal>
0

> <r_i_glide_rewards>
-2.54825329047552

> <r_i_glide_evdw>
-24.204029083252

> <r_i_glide_ecoul>
-9.68693161010742

> <r_i_glide_erotb>
0.299040284509976

> <r_i_glide_esite>
0

> <r_i_glide_emodel>
-49.3175720966125

> <r_i_glide_energy>
-33.8909606933594

> <r_i_glide_einternal>
1.3492431640625

> <i_i_glide_confnum>
5

> <i_i_glide_posenum>
215

> <r_i_glide_eff_state_penalty>
0

> <s_user_duplicate_titles>
301213

> <s_m_subgroup_title>
dock_pv

> <s_m_subgroupid>
dock_pv1

> <b_m_subgroup_collapsed>
0

$$$$
308682
                    3D
 Schrodinger Suite 2021-1.
 82 83  0  0  1  0            999 V2000
   33.1671   -8.4762   17.1914 C   0  0  0  0  0  0
   34.4648   -7.6586   17.2880 C   0  0  0  0  0  0
   34.3725   -6.4449   18.2369 C   0  0  0  0  0  0
   33.3318   -5.3747   17.8412 C   0  0  0  0  0  0
   33.5472   -4.7026   16.4700 C   0  0  0  0  0  0
   35.1438   -3.8666   16.2081 S   0  0  0  0  0  0
   34.7835   -2.1527   16.7132 C   0  0  0  0  0  0
   34.3229   -1.9129   18.1660 C   0  0  0  0  0  0
   35.3347   -2.4510   19.1973 C   0  0  0  0  0  0
   34.9940   -2.1452   20.5928 N   0  0  2  0  0  0
   36.1919   -2.4266   21.3841 C   0  0  0  0  0  0
   33.8478   -2.9450   21.0621 C   0  0  0  0  0  0
   33.4507   -2.6520   22.5287 C   0  0  0  0  0  0
   32.2289   -3.4386   23.0249 C   0  0  0  0  0  0
   32.1349   -3.4783   24.5651 C   0  0  0  0  0  0
   31.9154   -2.1346   25.2560 C   0  0  0  0  0  0
   31.5250   -2.3619   26.7284 C   0  0  0  0  0  0
   31.2587   -1.0618   27.4779 C   0  0  0  0  0  0
   30.0550   -0.6185   27.9324 C   0  0  0  0  0  0
   29.8440    0.7545   28.6084 C   0  0  0  0  0  0
   30.7730    1.2144   29.7479 C   0  0  0  0  0  0
   28.8172   -1.4175   27.8343 C   0  0  0  0  0  0
   28.7870   -2.7475   28.2615 C   0  0  0  0  0  0
   27.6071   -3.4614   28.2642 C   0  0  0  0  0  0
   26.4357   -2.7956   27.9527 C   0  0  0  0  0  0
   26.4410   -1.5021   27.4458 C   0  0  0  0  0  0
   27.6444   -0.8185   27.3605 C   0  0  0  0  0  0
   25.2602   -3.3986   28.2501 O   0  0  0  0  0  0
   32.4495   -0.2357   27.5967 C   0  0  0  0  0  0
   33.5177   -0.6071   28.4179 C   0  0  0  0  0  0
   34.6042    0.2497   28.5305 C   0  0  0  0  0  0
   34.6001    1.4370   27.8042 C   0  0  0  0  0  0
   33.5535    1.8045   26.9800 C   0  0  0  0  0  0
   32.4750    0.9520   26.8748 C   0  0  0  0  0  0
   35.6602    2.2592   27.8680 O   0  0  0  0  0  0
   33.3015   -9.3588   16.5643 H   0  0  0  0  0  0
   32.8379   -8.8171   18.1732 H   0  0  0  0  0  0
   32.3615   -7.8872   16.7558 H   0  0  0  0  0  0
   34.7662   -7.3320   16.2933 H   0  0  0  0  0  0
   35.2654   -8.3129   17.6375 H   0  0  0  0  0  0
   35.3555   -5.9810   18.3182 H   0  0  0  0  0  0
   34.1409   -6.8016   19.2442 H   0  0  0  0  0  0
   33.3042   -4.6158   18.6188 H   0  0  0  0  0  0
   32.3379   -5.8129   17.8627 H   0  0  0  0  0  0
   32.7491   -3.9781   16.3054 H   0  0  0  0  0  0
   33.4258   -5.4382   15.6751 H   0  0  0  0  0  0
   34.0600   -1.7410   16.0157 H   0  0  0  0  0  0
   35.6974   -1.5829   16.5404 H   0  0  0  0  0  0
   33.3423   -2.3679   18.3005 H   0  0  0  0  0  0
   34.1786   -0.8461   18.3198 H   0  0  0  0  0  0
   36.3044   -2.0214   18.9461 H   0  0  0  0  0  0
   35.4722   -3.5257   19.0676 H   0  0  0  0  0  0
   37.0450   -1.8452   21.0291 H   0  0  0  0  0  0
   36.0595   -2.1581   22.4295 H   0  0  0  0  0  0
   36.4613   -3.4814   21.3392 H   0  0  0  0  0  0
   34.0714   -4.0082   20.9579 H   0  0  0  0  0  0
   32.9721   -2.7798   20.4308 H   0  0  0  0  0  0
   33.2575   -1.5906   22.6689 H   0  0  0  0  0  0
   34.2767   -2.9204   23.1849 H   0  0  0  0  0  0
   32.2783   -4.4674   22.6564 H   0  0  0  0  0  0
   31.3198   -3.0176   22.5937 H   0  0  0  0  0  0
   33.0445   -3.9311   24.9669 H   0  0  0  0  0  0
   31.3144   -4.1231   24.8834 H   0  0  0  0  0  0
   31.1181   -1.5838   24.7550 H   0  0  0  0  0  0
   32.8171   -1.5264   25.1832 H   0  0  0  0  0  0
   32.3107   -2.9131   27.2514 H   0  0  0  0  0  0
   30.6563   -3.0100   26.7178 H   0  0  0  0  0  0
   29.8063    1.5093   27.8219 H   0  0  0  0  0  0
   28.8559    0.7646   29.0563 H   0  0  0  0  0  0
   30.5258    2.2486   29.9794 H   0  0  0  0  0  0
   30.6526    0.6189   30.6522 H   0  0  0  0  0  0
   31.8329    1.2398   29.5148 H   0  0  0  0  0  0
   29.6603   -3.2335   28.6561 H   0  0  0  0  0  0
   27.5834   -4.4720   28.6424 H   0  0  0  0  0  0
   25.5173   -1.0143   27.1705 H   0  0  0  0  0  0
   27.6478    0.2015   27.0078 H   0  0  0  0  0  0
   24.8435   -3.6119   27.3946 H   0  0  0  0  0  0
   33.4987   -1.5349   28.9741 H   0  0  0  0  0  0
   35.4391   -0.0189   29.1600 H   0  0  0  0  0  0
   33.5864    2.7335   26.4297 H   0  0  0  0  0  0
   31.6291    1.2085   26.2639 H   0  0  0  0  0  0
   36.4078    1.8575   28.3308 H   0  0  0  0  0  0
  1  2  1  0  0  0
  1 36  1  0  0  0
  1 37  1  0  0  0
  1 38  1  0  0  0
  2  3  1  0  0  0
  2 39  1  0  0  0
  2 40  1  0  0  0
  3  4  1  0  0  0
  3 41  1  0  0  0
  3 42  1  0  0  0
  4  5  1  0  0  0
  4 43  1  0  0  0
  4 44  1  0  0  0
  5  6  1  0  0  0
  5 45  1  0  0  0
  5 46  1  0  0  0
  6  7  1  0  0  0
  7  8  1  0  0  0
  7 47  1  0  0  0
  7 48  1  0  0  0
  8  9  1  0  0  0
  8 49  1  0  0  0
  8 50  1  0  0  0
  9 10  1  0  0  0
  9 51  1  0  0  0
  9 52  1  0  0  0
 10 11  1  0  0  0
 10 12  1  0  0  0
 11 53  1  0  0  0
 11 54  1  0  0  0
 11 55  1  0  0  0
 12 13  1  0  0  0
 12 56  1  0  0  0
 12 57  1  0  0  0
 13 14  1  0  0  0
 13 58  1  0  0  0
 13 59  1  0  0  0
 14 15  1  0  0  0
 14 60  1  0  0  0
 14 61  1  0  0  0
 15 16  1  0  0  0
 15 62  1  0  0  0
 15 63  1  0  0  0
 16 17  1  0  0  0
 16 64  1  0  0  0
 16 65  1  0  0  0
 17 18  1  0  0  0
 17 66  1  0  0  0
 17 67  1  0  0  0
 18 19  2  0  0  0
 18 29  1  0  0  0
 19 20  1  0  0  0
 19 22  1  0  0  0
 20 21  1  0  0  0
 20 68  1  0  0  0
 20 69  1  0  0  0
 21 70  1  0  0  0
 21 71  1  0  0  0
 21 72  1  0  0  0
 22 27  1  0  0  0
 22 23  2  0  0  0
 23 24  1  0  0  0
 23 73  1  0  0  0
 24 25  2  0  0  0
 24 74  1  0  0  0
 25 26  1  0  0  0
 25 28  1  0  0  0
 26 27  2  0  0  0
 26 75  1  0  0  0
 27 76  1  0  0  0
 28 77  1  0  0  0
 29 34  1  0  0  0
 29 30  2  0  0  0
 30 31  1  0  0  0
 30 78  1  0  0  0
 31 32  2  0  0  0
 31 79  1  0  0  0
 32 33  1  0  0  0
 32 35  1  0  0  0
 33 34  2  0  0  0
 33 80  1  0  0  0
 34 81  1  0  0  0
 35 82  1  0  0  0
M  END
> <s_m_entry_id>
17246

> <s_m_entry_name>
ligand_docking-pose.173

> <s_m_Source_Path>
/home/csk/Desktop/cluster/DUD-E-result/esr1

> <s_m_Source_File>
ligand_docking-pose.sdf

> <i_m_Source_File_Index>
173

> <i_lp_mmshare_version>
53161

> <i_f3d_flags>
0

> <r_lp_tautomer_probability>
1

> <s_lp_Force_Field>
OPLS_2005

> <r_lp_Energy>
27.123628

> <b_lp_Chiralities_Consistent>
1

> <s_lp_Variant>
308682-1

> <s_i_glide_gridfile>
glide-grid_1sj0

> <i_i_glide_lignum>
1450

> <i_i_glide_rotatable_bonds>
20

> <r_i_docking_score>
-9.20418714256011

> <r_i_glide_ligand_efficiency>
-0.262976775501717

> <r_i_glide_ligand_efficiency_sa>
-0.860214469686242

> <r_i_glide_ligand_efficiency_ln>
-2.02052335371948

> <r_i_glide_gscore>
-9.20418714256011

> <r_i_glide_lipo>
-5.43460523743996

> <r_i_glide_hbond>
-0.458100093317612

> <r_i_glide_metal>
0

> <r_i_glide_rewards>
-0.915161045454545

> <r_i_glide_evdw>
-43.5980453491211

> <r_i_glide_ecoul>
-7.97482872009277

> <r_i_glide_erotb>
0.979805809121984

> <r_i_glide_esite>
0

> <r_i_glide_emodel>
-65.8491609212174

> <r_i_glide_energy>
-51.5728740692139

> <r_i_glide_einternal>
17.6705322265625

> <i_i_glide_confnum>
7

> <i_i_glide_posenum>
122

> <r_i_glide_eff_state_penalty>
0

> <s_user_duplicate_titles>
308682

> <s_m_subgroup_title>
dock_pv

> <s_m_subgroupid>
dock_pv1

> <b_m_subgroup_collapsed>
0

$$$$
333907
                    3D
 Schrodinger Suite 2021-1.
 37 40  0  0  1  0            999 V2000
   27.4724    1.2596   27.7647 C   0  0  0  0  0  0
   28.7497    1.7990   27.8518 C   0  0  0  0  0  0
   29.7804    1.2314   27.1176 C   0  0  0  0  0  0
   29.5376    0.1017   26.3347 C   0  0  0  0  0  0
   28.2729   -0.4945   26.3405 C   0  0  0  0  0  0
   27.2373    0.0843   27.0640 C   0  0  0  0  0  0
   30.6189   -0.5420   25.5495 C   0  0  0  0  0  0
   31.9318   -0.8140   25.8793 C   0  0  0  0  0  0
   32.3925   -1.7859   24.9276 C   0  0  0  0  0  0
   33.4946   -2.6427   24.8459 C   0  0  0  0  0  0
   33.6526   -3.4378   23.7156 C   0  0  0  0  0  0
   32.7672   -3.3784   22.6514 C   0  0  0  0  0  0
   31.6600   -2.5420   22.6885 C   0  0  0  0  0  0
   31.4680   -1.7809   23.8536 C   0  0  0  0  0  0
   30.4267   -0.9817   24.2640 N   0  0  0  0  0  0
   32.6974   -0.2452   27.0045 C   0  0  0  0  0  0
   33.2600    1.0143   26.7799 C   0  0  0  0  0  0
   34.0755    1.5847   27.7451 C   0  0  0  0  0  0
   34.2794    0.9107   28.9425 C   0  0  0  0  0  0
   33.6600   -0.3115   29.2017 C   0  0  0  0  0  0
   32.8663   -0.9020   28.2218 C   0  0  0  0  0  0
   35.1185    1.4559   29.8640 O   0  0  0  0  0  0
   29.5593   -0.8221   23.7746 H   0  0  0  0  0  0
   26.6494    1.7431   28.2640 H   0  0  0  0  0  0
   28.9404    2.6580   28.4734 H   0  0  0  0  0  0
   30.7588    1.6805   27.1598 H   0  0  0  0  0  0
   28.0850   -1.4015   25.7843 H   0  0  0  0  0  0
   26.2486   -0.3511   27.0432 H   0  0  0  0  0  0
   34.1986   -2.6956   25.6585 H   0  0  0  0  0  0
   34.4600   -4.1345   23.6599 H   0  0  0  0  0  0
   32.9226   -4.0179   21.7926 H   0  0  0  0  0  0
   30.9501   -2.5420   21.8743 H   0  0  0  0  0  0
   33.1149    1.5223   25.8376 H   0  0  0  0  0  0
   34.5530    2.5352   27.5573 H   0  0  0  0  0  0
   33.8228   -0.8142   30.1433 H   0  0  0  0  0  0
   32.4091   -1.8653   28.3947 H   0  0  0  0  0  0
   35.8950    1.8580   29.4613 H   0  0  0  0  0  0
  1  6  1  0  0  0
  1  2  2  0  0  0
  1 24  1  0  0  0
  2  3  1  0  0  0
  2 25  1  0  0  0
  3  4  2  0  0  0
  3 26  1  0  0  0
  4  5  1  0  0  0
  4  7  1  0  0  0
  5  6  2  0  0  0
  5 27  1  0  0  0
  6 28  1  0  0  0
  7 15  1  0  0  0
  7  8  2  0  0  0
  8  9  1  0  0  0
  8 16  1  0  0  0
  9 14  2  0  0  0
  9 10  1  0  0  0
 10 11  2  0  0  0
 10 29  1  0  0  0
 11 12  1  0  0  0
 11 30  1  0  0  0
 12 13  2  0  0  0
 12 31  1  0  0  0
 13 14  1  0  0  0
 13 32  1  0  0  0
 14 15  1  0  0  0
 15 23  1  0  0  0
 16 21  1  0  0  0
 16 17  2  0  0  0
 17 18  1  0  0  0
 17 33  1  0  0  0
 18 19  2  0  0  0
 18 34  1  0  0  0
 19 20  1  0  0  0
 19 22  1  0  0  0
 20 21  2  0  0  0
 20 35  1  0  0  0
 21 36  1  0  0  0
 22 37  1  0  0  0
M  END
> <s_m_entry_id>
17247

> <s_m_entry_name>
ligand_docking-pose.174

> <s_m_Source_Path>
/home/csk/Desktop/cluster/DUD-E-result/esr1

> <s_m_Source_File>
ligand_docking-pose.sdf

> <i_m_Source_File_Index>
174

> <i_lp_mmshare_version>
53161

> <i_f3d_flags>
0

> <r_lp_tautomer_probability>
0.999999999997365

> <s_lp_Force_Field>
OPLS_2005

> <r_lp_Energy>
15.519417

> <b_lp_Chiralities_Consistent>
1

> <s_lp_Variant>
333907-1

> <s_i_glide_gridfile>
glide-grid_1sj0

> <i_i_glide_lignum>
238

> <i_i_glide_rotatable_bonds>
3

> <r_i_docking_score>
-9.20269175536738

> <r_i_glide_ligand_efficiency>
-0.418304170698517

> <r_i_glide_ligand_efficiency_sa>
-1.17210473726676

> <r_i_glide_ligand_efficiency_ln>
-2.24947354134957

> <r_i_glide_gscore>
-9.20269175536738

> <r_i_glide_lipo>
-5.48668941043038

> <r_i_glide_hbond>
-0.158354890601876

> <r_i_glide_metal>
0

> <r_i_glide_rewards>
-2.27685815253165

> <r_i_glide_evdw>
-28.7360420227051

> <r_i_glide_ecoul>
-1.93089783191681

> <r_i_glide_erotb>
0.445647474119305

> <r_i_glide_esite>
0

> <r_i_glide_emodel>
-43.3135710714102

> <r_i_glide_energy>
-30.6669398546219

> <r_i_glide_einternal>
6.04039907455444

> <i_i_glide_confnum>
5

> <i_i_glide_posenum>
263

> <r_i_glide_eff_state_penalty>
0

> <s_user_duplicate_titles>
333907

> <s_m_subgroup_title>
dock_pv

> <s_m_subgroupid>
dock_pv1

> <b_m_subgroup_collapsed>
0

$$$$
373326
                    3D
 Schrodinger Suite 2021-1.
 39 42  0  0  1  0            999 V2000
   27.8702   -0.3305   26.6646 C   0  0  0  0  0  0
   28.9665   -0.9336   26.0547 C   0  0  0  0  0  0
   30.2549   -0.4705   26.3584 C   0  0  0  0  0  0
   30.4121    0.5798   27.3024 C   0  0  0  0  0  0
   29.3043    1.2064   27.8957 C   0  0  0  0  0  0
   28.0396    0.7329   27.5416 C   0  0  0  0  0  0
   29.4249    2.2351   28.7609 F   0  0  0  0  0  0
   31.7873    0.7536   27.4085 N   0  0  0  0  0  0
   32.4572   -0.0991   26.6164 N   0  0  0  0  0  0
   31.5857   -0.7903   25.9391 C   0  0  0  0  0  0
   32.0492   -1.7187   24.8835 C   0  0  0  0  0  0
   33.1478   -2.5537   25.0994 C   0  0  0  0  0  0
   33.5988   -3.3813   24.0802 C   0  0  0  0  0  0
   32.9370   -3.3982   22.8545 C   0  0  0  0  0  0
   31.8330   -2.5815   22.6416 C   0  0  0  0  0  0
   31.3898   -1.7405   23.6580 C   0  0  0  0  0  0
   33.3689   -4.2335   21.8650 O   0  0  0  0  0  0
   32.5644    1.6428   28.2732 C   0  0  0  0  0  0
   33.2535    0.8804   29.4197 C   0  0  0  0  0  0
   34.6487    0.5518   28.8853 C   0  0  0  0  0  0
   35.0079    1.7028   27.9306 C   0  0  0  0  0  0
   33.6920    2.3833   27.5217 C   0  0  0  0  0  0
   26.8729   -0.6779   26.4342 H   0  0  0  0  0  0
   28.8206   -1.7414   25.3609 H   0  0  0  0  0  0
   27.1640    1.2023   27.9633 H   0  0  0  0  0  0
   33.6569   -2.5503   26.0521 H   0  0  0  0  0  0
   34.4425   -4.0255   24.2602 H   0  0  0  0  0  0
   31.3145   -2.5958   21.6948 H   0  0  0  0  0  0
   30.5368   -1.1022   23.4793 H   0  0  0  0  0  0
   32.7137   -4.4077   21.1812 H   0  0  0  0  0  0
   31.8105    2.3299   28.6490 H   0  0  0  0  0  0
   32.7110   -0.0135   29.7330 H   0  0  0  0  0  0
   33.3372    1.5178   30.3002 H   0  0  0  0  0  0
   34.6240   -0.3894   28.3311 H   0  0  0  0  0  0
   35.3832    0.4321   29.6853 H   0  0  0  0  0  0
   35.5670    1.3412   27.0649 H   0  0  0  0  0  0
   35.6562    2.4186   28.4405 H   0  0  0  0  0  0
   33.7080    3.4222   27.8558 H   0  0  0  0  0  0
   33.5461    2.4118   26.4393 H   0  0  0  0  0  0
  1  6  1  0  0  0
  1  2  2  0  0  0
  1 23  1  0  0  0
  2  3  1  0  0  0
  2 24  1  0  0  0
  3 10  1  0  0  0
  3  4  2  0  0  0
  4  5  1  0  0  0
  4  8  1  0  0  0
  5  6  2  0  0  0
  5  7  1  0  0  0
  6 25  1  0  0  0
  8  9  1  0  0  0
  8 18  1  0  0  0
  9 10  2  0  0  0
 10 11  1  0  0  0
 11 16  1  0  0  0
 11 12  2  0  0  0
 12 13  1  0  0  0
 12 26  1  0  0  0
 13 14  2  0  0  0
 13 27  1  0  0  0
 14 15  1  0  0  0
 14 17  1  0  0  0
 15 16  2  0  0  0
 15 28  1  0  0  0
 16 29  1  0  0  0
 17 30  1  0  0  0
 18 22  1  0  0  0
 18 19  1  0  0  0
 18 31  1  0  0  0
 19 20  1  0  0  0
 19 32  1  0  0  0
 19 33  1  0  0  0
 20 21  1  0  0  0
 20 34  1  0  0  0
 20 35  1  0  0  0
 21 22  1  0  0  0
 21 36  1  0  0  0
 21 37  1  0  0  0
 22 38  1  0  0  0
 22 39  1  0  0  0
M  END
> <s_m_entry_id>
17248

> <s_m_entry_name>
ligand_docking-pose.175

> <s_m_Source_Path>
/home/csk/Desktop/cluster/DUD-E-result/esr1

> <s_m_Source_File>
ligand_docking-pose.sdf

> <i_m_Source_File_Index>
175

> <i_lp_mmshare_version>
53161

> <i_f3d_flags>
0

> <r_lp_tautomer_probability>
0.999999999997365

> <s_lp_Force_Field>
OPLS_2005

> <r_lp_Energy>
36.436702

> <b_lp_Chiralities_Consistent>
1

> <s_lp_Variant>
373326-1

> <s_i_glide_gridfile>
glide-grid_1sj0

> <i_i_glide_lignum>
8

> <i_i_glide_rotatable_bonds>
3

> <r_i_docking_score>
-9.19763648659022

> <r_i_glide_ligand_efficiency>
-0.418074385754101

> <r_i_glide_ligand_efficiency_sa>
-1.17146087081557

> <r_i_glide_ligand_efficiency_ln>
-2.24823784926503

> <r_i_glide_gscore>
-9.19763648659022

> <r_i_glide_lipo>
-4.71335387084263

> <r_i_glide_hbond>
0

> <r_i_glide_metal>
0

> <r_i_glide_rewards>
-2.81665197215178

> <r_i_glide_evdw>
-38.3477249145508

> <r_i_glide_ecoul>
-1.11627495288849

> <r_i_glide_erotb>
0.417196845065

> <r_i_glide_esite>
0

> <r_i_glide_emodel>
-58.6499739135108

> <r_i_glide_energy>
-39.4639998674393

> <r_i_glide_einternal>
2.10190629959106

> <i_i_glide_confnum>
46

> <i_i_glide_posenum>
173

> <r_i_glide_eff_state_penalty>
0

> <s_user_duplicate_titles>
373326

> <s_m_subgroup_title>
dock_pv

> <s_m_subgroupid>
dock_pv1

> <b_m_subgroup_collapsed>
0

$$$$
354014
                    3D
 Schrodinger Suite 2021-1.
 37 40  0  0  1  0            999 V2000
   32.5271    0.7881   31.1110 C   0  0  0  0  0  0
   31.1847    0.9360   30.3766 C   0  0  0  0  0  0
   31.1279    0.7875   28.8092 C   0  0  1  0  0  0
   32.1075    1.7363   28.0677 C   0  0  0  0  0  0
   33.5858    1.2857   28.0367 C   0  0  0  0  0  0
   33.8072   -0.1917   28.3831 C   0  0  0  0  0  0
   34.8648   -0.5420   28.8994 O   0  0  0  0  0  0
   32.6587   -1.0994   28.1613 C   0  0  0  0  0  0
   31.3823   -0.6400   28.2958 C   0  0  0  0  0  0
   30.0466   -1.2324   27.9914 C   0  0  0  0  0  0
   29.6382   -2.5199   27.6057 C   0  0  0  0  0  0
   28.3091   -2.8519   27.3391 C   0  0  0  0  0  0
   27.3969   -1.8047   27.3220 C   0  0  0  0  0  0
   27.7692   -0.4870   27.6499 C   0  0  0  0  0  0
   29.0904   -0.2159   28.0327 C   0  0  0  0  0  0
   29.6680    1.0624   28.4485 C   0  0  0  0  0  0
   29.0937    2.1467   28.5208 O   0  0  0  0  0  0
   26.5754    0.2581   27.4640 C   0  0  0  0  0  0
   25.5849   -0.4955   27.0641 N   0  0  0  0  0  0
   26.0600   -1.7420   26.9930 N   0  0  0  0  0  0
   33.0753   -2.4986   27.7225 C   0  0  0  0  0  0
   25.4799   -2.4881   26.6004 H   0  0  0  0  0  0
   32.4069    1.0580   32.1593 H   0  0  0  0  0  0
   32.9009   -0.2355   31.0747 H   0  0  0  0  0  0
   33.2908    1.4573   30.7192 H   0  0  0  0  0  0
   30.4830    0.2580   30.8546 H   0  0  0  0  0  0
   30.8246    1.9205   30.6507 H   0  0  0  0  0  0
   31.7833    1.8579   27.0327 H   0  0  0  0  0  0
   32.0601    2.7224   28.5215 H   0  0  0  0  0  0
   33.9558    1.4171   27.0196 H   0  0  0  0  0  0
   34.2309    1.8994   28.6642 H   0  0  0  0  0  0
   30.3170   -3.3319   27.4640 H   0  0  0  0  0  0
   28.0236   -3.8572   27.0641 H   0  0  0  0  0  0
   26.4600    1.3230   27.5927 H   0  0  0  0  0  0
   33.6600   -2.4334   26.8083 H   0  0  0  0  0  0
   33.6601   -2.9946   28.4977 H   0  0  0  0  0  0
   32.2666   -3.1589   27.4640 H   0  0  0  0  0  0
  1  2  1  0  0  0
  1 23  1  0  0  0
  1 24  1  0  0  0
  1 25  1  0  0  0
  2  3  1  0  0  0
  2 26  1  0  0  0
  2 27  1  0  0  0
  3  9  1  0  0  0
  3 16  1  0  0  0
  3  4  1  0  0  0
  4  5  1  0  0  0
  4 28  1  0  0  0
  4 29  1  0  0  0
  5  6  1  0  0  0
  5 30  1  0  0  0
  5 31  1  0  0  0
  6  7  2  0  0  0
  6  8  1  0  0  0
  8  9  2  0  0  0
  8 21  1  0  0  0
  9 10  1  0  0  0
 10 15  1  0  0  0
 10 11  2  0  0  0
 11 12  1  0  0  0
 11 32  1  0  0  0
 12 13  2  0  0  0
 12 33  1  0  0  0
 13 20  1  0  0  0
 13 14  1  0  0  0
 14 15  2  0  0  0
 14 18  1  0  0  0
 15 16  1  0  0  0
 16 17  2  0  0  0
 18 19  2  0  0  0
 18 34  1  0  0  0
 19 20  1  0  0  0
 20 22  1  0  0  0
 21 35  1  0  0  0
 21 36  1  0  0  0
 21 37  1  0  0  0
M  END
> <s_m_entry_id>
17249

> <s_m_entry_name>
ligand_docking-pose.176

> <s_m_Source_Path>
/home/csk/Desktop/cluster/DUD-E-result/esr1

> <s_m_Source_File>
ligand_docking-pose.sdf

> <i_m_Source_File_Index>
176

> <i_lp_mmshare_version>
53161

> <i_f3d_flags>
0

> <r_lp_tautomer_probability>
1

> <s_lp_Force_Field>
OPLS_2005

> <r_lp_Energy>
46.238193

> <b_lp_Chiralities_Consistent>
1

> <s_lp_Variant>
354014-2

> <s_i_glide_gridfile>
glide-grid_1sj0

> <i_i_glide_lignum>
1096

> <i_i_glide_rotatable_bonds>
1

> <r_i_docking_score>
-9.1948396180674

> <r_i_glide_ligand_efficiency>
-0.437849505622257

> <r_i_glide_ligand_efficiency_sa>
-1.20799358545185

> <r_i_glide_ligand_efficiency_ln>
-2.27340551564426

> <r_i_glide_gscore>
-9.1948396180674

> <r_i_glide_lipo>
-3.63950386282695

> <r_i_glide_hbond>
-0.16

> <r_i_glide_metal>
0

> <r_i_glide_rewards>
-3.16508870443351

> <r_i_glide_evdw>
-32.3494491577148

> <r_i_glide_ecoul>
-3.62881231307983

> <r_i_glide_erotb>
0

> <r_i_glide_esite>
-0.0684527459592257

> <r_i_glide_emodel>
-44.4850461359825

> <r_i_glide_energy>
-35.9782614707947

> <r_i_glide_einternal>
5.73588037490845

> <i_i_glide_confnum>
1

> <i_i_glide_posenum>
276

> <r_i_glide_eff_state_penalty>
0

> <s_user_duplicate_titles>
354014

> <s_m_subgroup_title>
dock_pv

> <s_m_subgroupid>
dock_pv1

> <b_m_subgroup_collapsed>
0

$$$$
630825
                    3D
 Schrodinger Suite 2021-1.
 35 37  0  0  1  0            999 V2000
   33.0862    0.7991   31.2114 C   0  0  0  0  0  0
   33.4460    0.9972   29.7529 C   0  0  0  0  0  0
   34.7165    1.4423   29.3755 C   0  0  0  0  0  0
   34.9997    1.7010   28.0355 C   0  0  0  0  0  0
   34.0275    1.4741   27.0639 C   0  0  0  0  0  0
   32.7796    0.9629   27.4156 C   0  0  0  0  0  0
   32.4851    0.7600   28.7732 C   0  0  0  0  0  0
   31.9090    0.6578   26.3871 O   0  0  0  0  0  0
   30.8789   -0.1935   26.6144 C   0  0  0  0  0  0
   29.5893    0.4318   26.9387 C   0  0  0  0  0  0
   29.3772    1.6439   26.9993 O   0  0  0  0  0  0
   28.5228   -0.5687   27.2202 C   0  0  0  0  0  0
   27.2169   -0.1693   27.5263 C   0  0  0  0  0  0
   26.2557   -1.1219   27.8549 C   0  0  0  0  0  0
   26.5824   -2.4720   27.8640 C   0  0  0  0  0  0
   27.8586   -2.8902   27.5180 C   0  0  0  0  0  0
   28.8201   -1.9407   27.2014 C   0  0  0  0  0  0
   30.0690   -2.4213   26.8789 O   0  0  0  0  0  0
   31.0530   -1.5350   26.5732 C   0  0  0  0  0  0
   32.3601   -2.2442   26.2231 C   0  0  0  0  0  0
   32.1724   -3.5473   26.0330 F   0  0  0  0  0  0
   32.8599   -1.7410   25.0945 F   0  0  0  0  0  0
   33.2380   -2.0862   27.2110 F   0  0  0  0  0  0
   25.6496   -3.3982   28.2174 O   0  0  0  0  0  0
   33.6596    1.4588   31.8612 H   0  0  0  0  0  0
   32.0346    1.0346   31.3866 H   0  0  0  0  0  0
   33.2598   -0.2347   31.5078 H   0  0  0  0  0  0
   35.4812    1.6118   30.1184 H   0  0  0  0  0  0
   35.9788    2.0579   27.7502 H   0  0  0  0  0  0
   34.2614    1.6491   26.0259 H   0  0  0  0  0  0
   31.5173    0.3947   29.0753 H   0  0  0  0  0  0
   26.9405    0.8768   27.5330 H   0  0  0  0  0  0
   25.2589   -0.8056   28.1116 H   0  0  0  0  0  0
   28.1135   -3.9388   27.5057 H   0  0  0  0  0  0
   25.2579   -3.7408   27.3948 H   0  0  0  0  0  0
  1  2  1  0  0  0
  1 25  1  0  0  0
  1 26  1  0  0  0
  1 27  1  0  0  0
  2  7  1  0  0  0
  2  3  2  0  0  0
  3  4  1  0  0  0
  3 28  1  0  0  0
  4  5  2  0  0  0
  4 29  1  0  0  0
  5  6  1  0  0  0
  5 30  1  0  0  0
  6  7  2  0  0  0
  6  8  1  0  0  0
  7 31  1  0  0  0
  8  9  1  0  0  0
  9 19  2  0  0  0
  9 10  1  0  0  0
 10 11  2  0  0  0
 10 12  1  0  0  0
 12 17  2  0  0  0
 12 13  1  0  0  0
 13 14  2  0  0  0
 13 32  1  0  0  0
 14 15  1  0  0  0
 14 33  1  0  0  0
 15 16  2  0  0  0
 15 24  1  0  0  0
 16 17  1  0  0  0
 16 34  1  0  0  0
 17 18  1  0  0  0
 18 19  1  0  0  0
 19 20  1  0  0  0
 20 21  1  0  0  0
 20 22  1  0  0  0
 20 23  1  0  0  0
 24 35  1  0  0  0
M  END
> <s_m_entry_id>
17250

> <s_m_entry_name>
ligand_docking-pose.177

> <s_m_Source_Path>
/home/csk/Desktop/cluster/DUD-E-result/esr1

> <s_m_Source_File>
ligand_docking-pose.sdf

> <i_m_Source_File_Index>
177

> <i_lp_mmshare_version>
53161

> <i_f3d_flags>
0

> <r_lp_tautomer_probability>
1

> <s_lp_Force_Field>
OPLS_2005

> <r_lp_Energy>
15.355627

> <b_lp_Chiralities_Consistent>
1

> <s_lp_Variant>
630825-1

> <s_i_glide_gridfile>
glide-grid_1sj0

> <i_i_glide_lignum>
1018

> <i_i_glide_rotatable_bonds>
4

> <r_i_docking_score>
-9.19173777843109

> <r_i_glide_ligand_efficiency>
-0.382989074101295

> <r_i_glide_ligand_efficiency_sa>
-1.10473165393975

> <r_i_glide_ligand_efficiency_ln>
-2.20000463174157

> <r_i_glide_gscore>
-9.19173777843109

> <r_i_glide_lipo>
-3.8633857738627

> <r_i_glide_hbond>
-0.16

> <r_i_glide_metal>
0

> <r_i_glide_rewards>
-2.73782724954626

> <r_i_glide_evdw>
-38.212646484375

> <r_i_glide_ecoul>
-5.69274091720581

> <r_i_glide_erotb>
0.334018706777492

> <r_i_glide_esite>
0

> <r_i_glide_emodel>
-60.8974942142826

> <r_i_glide_energy>
-43.9053874015808

> <r_i_glide_einternal>
11.740758895874

> <i_i_glide_confnum>
1

> <i_i_glide_posenum>
199

> <r_i_glide_eff_state_penalty>
0

> <s_user_duplicate_titles>
630825

> <s_m_subgroup_title>
dock_pv

> <s_m_subgroupid>
dock_pv1

> <b_m_subgroup_collapsed>
0

$$$$
149599
                    3D
 Schrodinger Suite 2021-1.
 41 43  0  0  1  0            999 V2000
   30.7889   -1.1754   25.0541 C   0  0  0  0  0  0
   31.4100   -1.3632   26.4542 C   0  0  0  0  0  0
   31.7462   -2.8291   26.7568 C   0  0  0  0  0  0
   30.6459   -0.6429   27.6380 C   0  0  2  0  0  0
   29.0956   -0.6563   27.4784 C   0  0  0  0  0  0
   28.3726   -1.8242   27.1771 C   0  0  0  0  0  0
   26.9937   -1.8019   26.9718 C   0  0  0  0  0  0
   26.2988   -0.6066   27.0857 C   0  0  0  0  0  0
   26.9780    0.5434   27.4619 C   0  0  0  0  0  0
   28.3572    0.5333   27.6640 C   0  0  0  0  0  0
   29.0635    1.8075   28.0773 C   0  0  0  0  0  0
   30.3593    1.4862   28.8204 C   0  0  0  0  0  0
   31.1937    0.7108   27.9071 N   0  0  0  0  0  0
   32.5512    0.9387   27.9613 C   0  0  0  0  0  0
   33.0838    1.8073   27.0151 C   0  0  0  0  0  0
   34.4403    2.0499   26.9872 C   0  0  0  0  0  0
   35.2597    1.4577   27.9275 C   0  0  0  0  0  0
   34.7444    0.6096   28.9058 C   0  0  0  0  0  0
   33.3759    0.3481   28.9250 C   0  0  0  0  0  0
   24.9611   -0.5419   26.8064 O   0  0  0  0  0  0
   29.8633   -1.7330   24.9380 H   0  0  0  0  0  0
   30.5681   -0.1277   24.8590 H   0  0  0  0  0  0
   31.4678   -1.5162   24.2714 H   0  0  0  0  0  0
   32.4012   -0.9261   26.3439 H   0  0  0  0  0  0
   30.8590   -3.3769   27.0416 H   0  0  0  0  0  0
   32.1936   -3.3312   25.8982 H   0  0  0  0  0  0
   32.4582   -2.9019   27.5804 H   0  0  0  0  0  0
   30.8481   -1.2010   28.5540 H   0  0  0  0  0  0
   28.8737   -2.7699   27.0632 H   0  0  0  0  0  0
   26.4688   -2.7050   26.6925 H   0  0  0  0  0  0
   26.4429    1.4727   27.5722 H   0  0  0  0  0  0
   28.4184    2.4251   28.7001 H   0  0  0  0  0  0
   29.2932    2.3851   27.1828 H   0  0  0  0  0  0
   30.1883    0.9732   29.7682 H   0  0  0  0  0  0
   30.8506    2.4308   29.0617 H   0  0  0  0  0  0
   32.4601    2.2598   26.2644 H   0  0  0  0  0  0
   34.8606    2.6609   26.2115 H   0  0  0  0  0  0
   36.3133    1.6649   27.8627 H   0  0  0  0  0  0
   35.4045    0.1516   29.6282 H   0  0  0  0  0  0
   32.9623   -0.3175   29.6687 H   0  0  0  0  0  0
   24.6656    0.3707   26.6967 H   0  0  0  0  0  0
  1  2  1  0  0  0
  1 21  1  0  0  0
  1 22  1  0  0  0
  1 23  1  0  0  0
  2  3  1  0  0  0
  2  4  1  0  0  0
  2 24  1  0  0  0
  3 25  1  0  0  0
  3 26  1  0  0  0
  3 27  1  0  0  0
  4 13  1  0  0  0
  4  5  1  0  0  0
  4 28  1  0  0  0
  5 10  2  0  0  0
  5  6  1  0  0  0
  6  7  2  0  0  0
  6 29  1  0  0  0
  7  8  1  0  0  0
  7 30  1  0  0  0
  8  9  2  0  0  0
  8 20  1  0  0  0
  9 10  1  0  0  0
  9 31  1  0  0  0
 10 11  1  0  0  0
 11 12  1  0  0  0
 11 32  1  0  0  0
 11 33  1  0  0  0
 12 13  1  0  0  0
 12 34  1  0  0  0
 12 35  1  0  0  0
 13 14  1  0  0  0
 14 19  1  0  0  0
 14 15  2  0  0  0
 15 16  1  0  0  0
 15 36  1  0  0  0
 16 17  2  0  0  0
 16 37  1  0  0  0
 17 18  1  0  0  0
 17 38  1  0  0  0
 18 19  2  0  0  0
 18 39  1  0  0  0
 19 40  1  0  0  0
 20 41  1  0  0  0
M  END
> <s_m_entry_id>
17251

> <s_m_entry_name>
ligand_docking-pose.178

> <s_m_Source_Path>
/home/csk/Desktop/cluster/DUD-E-result/esr1

> <s_m_Source_File>
ligand_docking-pose.sdf

> <i_m_Source_File_Index>
178

> <i_lp_mmshare_version>
53161

> <i_f3d_flags>
0

> <r_lp_tautomer_probability>
0.999999999997365

> <s_lp_Force_Field>
OPLS_2005

> <r_lp_Energy>
26.785206

> <b_lp_Chiralities_Consistent>
1

> <s_lp_Variant>
149599-1

> <s_i_glide_gridfile>
glide-grid_1sj0

> <i_i_glide_lignum>
1246

> <i_i_glide_rotatable_bonds>
3

> <r_i_docking_score>
-9.18525552443941

> <r_i_glide_ligand_efficiency>
-0.459262776221971

> <r_i_glide_ligand_efficiency_sa>
-1.24663096917834

> <r_i_glide_ligand_efficiency_ln>
-2.29876650776445

> <r_i_glide_gscore>
-9.18525552443941

> <r_i_glide_lipo>
-4.10287048250835

> <r_i_glide_hbond>
-0.362182154138519

> <r_i_glide_metal>
0

> <r_i_glide_rewards>
-2.70318887670674

> <r_i_glide_evdw>
-33.238208770752

> <r_i_glide_ecoul>
-4.03027677536011

> <r_i_glide_erotb>
0.249437943755818

> <r_i_glide_esite>
0

> <r_i_glide_emodel>
-52.7803156841419

> <r_i_glide_energy>
-37.2684855461121

> <r_i_glide_einternal>
4.38068962097168

> <i_i_glide_confnum>
10

> <i_i_glide_posenum>
342

> <r_i_glide_eff_state_penalty>
0

> <s_user_duplicate_titles>
149599

> <s_m_subgroup_title>
dock_pv

> <s_m_subgroupid>
dock_pv1

> <b_m_subgroup_collapsed>
0

$$$$
124915
                    3D
 Schrodinger Suite 2021-1.
 32 35  0  0  1  0            999 V2000
   30.6844   -0.5419   25.0235 C   0  0  0  0  0  0
   31.1396   -0.1912   26.4252 C   0  0  0  0  0  0
   32.2730    0.5848   26.8176 C   0  0  0  0  0  0
   33.2904    1.4065   26.2861 C   0  0  0  0  0  0
   34.3473    1.8231   27.1269 C   0  0  0  0  0  0
   34.3933    1.4681   28.4875 C   0  0  0  0  0  0
   33.3217    0.7600   29.0249 C   0  0  0  0  0  0
   32.3606    0.3716   28.1739 N   0  0  0  0  0  0
   31.3528   -0.3135   28.7225 C   0  0  0  0  0  0
   30.5156   -0.5879   27.6315 C   0  0  0  0  0  0
   29.2129   -1.2764   27.6821 C   0  0  0  0  0  0
   29.1677   -2.5420   28.2457 C   0  0  0  0  0  0
   27.9846   -3.2603   28.2640 C   0  0  0  0  0  0
   26.8356   -2.6598   27.7711 C   0  0  0  0  0  0
   26.8624   -1.3948   27.1890 C   0  0  0  0  0  0
   28.0648   -0.6989   27.1366 C   0  0  0  0  0  0
   25.6601   -3.3276   27.8641 O   0  0  0  0  0  0
   31.6737   -0.3817   30.1418 C   0  0  0  0  0  0
   32.8599    0.2532   30.3189 C   0  0  0  0  0  0
   31.5094   -0.5441   24.3102 H   0  0  0  0  0  0
   30.2301   -1.5321   24.9796 H   0  0  0  0  0  0
   29.9349    0.1616   24.6634 H   0  0  0  0  0  0
   33.2763    1.6798   25.2429 H   0  0  0  0  0  0
   35.1577    2.4049   26.7113 H   0  0  0  0  0  0
   35.2234    1.7899   29.1010 H   0  0  0  0  0  0
   30.0600   -2.9504   28.6643 H   0  0  0  0  0  0
   27.9471   -4.2479   28.6993 H   0  0  0  0  0  0
   25.9610   -0.9557   26.7873 H   0  0  0  0  0  0
   28.1033    0.2814   26.6838 H   0  0  0  0  0  0
   25.2599   -3.3603   26.9640 H   0  0  0  0  0  0
   31.0772   -0.8636   30.9023 H   0  0  0  0  0  0
   33.3947    0.3818   31.2481 H   0  0  0  0  0  0
  1  2  1  0  0  0
  1 20  1  0  0  0
  1 21  1  0  0  0
  1 22  1  0  0  0
  2 10  1  0  0  0
  2  3  2  0  0  0
  3  8  1  0  0  0
  3  4  1  0  0  0
  4  5  2  0  0  0
  4 23  1  0  0  0
  5  6  1  0  0  0
  5 24  1  0  0  0
  6  7  2  0  0  0
  6 25  1  0  0  0
  7 19  1  0  0  0
  7  8  1  0  0  0
  8  9  1  0  0  0
  9 10  2  0  0  0
  9 18  1  0  0  0
 10 11  1  0  0  0
 11 16  1  0  0  0
 11 12  2  0  0  0
 12 13  1  0  0  0
 12 26  1  0  0  0
 13 14  2  0  0  0
 13 27  1  0  0  0
 14 15  1  0  0  0
 14 17  1  0  0  0
 15 16  2  0  0  0
 15 28  1  0  0  0
 16 29  1  0  0  0
 17 30  1  0  0  0
 18 19  2  0  0  0
 18 31  1  0  0  0
 19 32  1  0  0  0
M  END
> <s_m_entry_id>
17252

> <s_m_entry_name>
ligand_docking-pose.179

> <s_m_Source_Path>
/home/csk/Desktop/cluster/DUD-E-result/esr1

> <s_m_Source_File>
ligand_docking-pose.sdf

> <i_m_Source_File_Index>
179

> <i_lp_mmshare_version>
53161

> <i_f3d_flags>
0

> <r_lp_tautomer_probability>
0.999999999997365

> <s_lp_Force_Field>
OPLS_2005

> <r_lp_Energy>
62.434965

> <b_lp_Chiralities_Consistent>
1

> <s_lp_Variant>
124915-1

> <s_i_glide_gridfile>
glide-grid_1sj0

> <i_i_glide_lignum>
872

> <i_i_glide_rotatable_bonds>
2

> <r_i_docking_score>
-9.18516464531215

> <r_i_glide_ligand_efficiency>
-0.483429718174324

> <r_i_glide_ligand_efficiency_sa>
-1.28998465575146

> <r_i_glide_ligand_efficiency_ln>
-2.32863651683445

> <r_i_glide_gscore>
-9.18516464531215

> <r_i_glide_lipo>
-4.025845693126

> <r_i_glide_hbond>
-0.16

> <r_i_glide_metal>
0

> <r_i_glide_rewards>
-2.66050808237162

> <r_i_glide_evdw>
-29.4232769012451

> <r_i_glide_ecoul>
-7.68614625930786

> <r_i_glide_erotb>
0.285274914143898

> <r_i_glide_esite>
0

> <r_i_glide_emodel>
-55.3808953833696

> <r_i_glide_energy>
-37.109423160553

> <r_i_glide_einternal>
2.41823077201843

> <i_i_glide_confnum>
3

> <i_i_glide_posenum>
185

> <r_i_glide_eff_state_penalty>
0

> <s_user_duplicate_titles>
124915

> <s_m_subgroup_title>
dock_pv

> <s_m_subgroupid>
dock_pv1

> <b_m_subgroup_collapsed>
0

$$$$
398425
                    3D
 Schrodinger Suite 2021-1.
 46 49  0  0  1  0            999 V2000
   30.8893    1.3918   31.3400 C   0  0  0  0  0  0
   31.2600    0.0277   31.2665 O   0  0  0  0  0  0
   32.6214   -0.2049   30.9390 C   0  0  0  0  0  0
   32.9600    0.2606   29.5308 C   0  0  0  0  0  0
   34.0896    1.0580   29.3351 C   0  0  0  0  0  0
   34.4277    1.4937   28.0585 C   0  0  0  0  0  0
   33.6600    1.1165   26.9677 C   0  0  0  0  0  0
   32.5878    0.2416   27.1194 C   0  0  0  0  0  0
   32.1884   -0.1230   28.4233 C   0  0  0  0  0  0
   31.0642   -0.9098   28.6431 O   0  0  0  0  0  0
   30.0643   -0.7276   27.6317 C   0  0  1  0  0  0
   30.6776   -1.1932   26.2948 C   0  0  1  0  0  0
   31.9396   -0.4045   25.8992 C   0  0  2  0  0  0
   32.8687   -1.4443   25.2426 C   0  0  0  0  0  0
   32.0674   -2.6856   25.0536 C   0  0  0  0  0  0
   31.1707   -2.6445   26.2690 C   0  0  0  0  0  0
   32.8712   -3.7420   25.0016 F   0  0  0  0  0  0
   31.4127   -2.5420   23.9027 F   0  0  0  0  0  0
   28.7605   -1.4797   27.8922 C   0  0  0  0  0  0
   27.5313   -0.8429   27.6920 C   0  0  0  0  0  0
   26.3497   -1.5674   27.8141 C   0  0  0  0  0  0
   26.4065   -2.9292   28.1048 C   0  0  0  0  0  0
   27.6196   -3.5800   28.2640 C   0  0  0  0  0  0
   28.7878   -2.8378   28.2176 C   0  0  0  0  0  0
   25.2600   -3.6399   28.2640 O   0  0  0  0  0  0
   35.5394    2.2580   27.8640 O   0  0  0  0  0  0
   29.8021    0.3326   27.5714 H   0  0  0  0  0  0
   29.9287   -1.0636   25.5085 H   0  0  0  0  0  0
   31.6255    0.3179   25.1591 H   0  0  0  0  0  0
   29.8693    1.4580   31.7142 H   0  0  0  0  0  0
   30.9173    1.8580   30.3554 H   0  0  0  0  0  0
   31.5407    1.9420   32.0201 H   0  0  0  0  0  0
   33.2600    0.2625   31.6893 H   0  0  0  0  0  0
   32.8219   -1.2734   30.9886 H   0  0  0  0  0  0
   34.7085    1.3529   30.1700 H   0  0  0  0  0  0
   33.9601    1.4242   25.9762 H   0  0  0  0  0  0
   33.2600   -1.2024   24.2639 H   0  0  0  0  0  0
   33.6600   -1.7522   25.9243 H   0  0  0  0  0  0
   31.7566   -2.8979   27.1544 H   0  0  0  0  0  0
   30.3620   -3.3420   26.2640 H   0  0  0  0  0  0
   27.4854    0.2040   27.4284 H   0  0  0  0  0  0
   25.3990   -1.0761   27.6718 H   0  0  0  0  0  0
   27.6546   -4.6359   28.4866 H   0  0  0  0  0  0
   29.7180   -3.3420   28.3900 H   0  0  0  0  0  0
   24.8600   -3.7420   27.3793 H   0  0  0  0  0  0
   35.8717    2.2581   26.9617 H   0  0  0  0  0  0
  1  2  1  0  0  0
  1 30  1  0  0  0
  1 31  1  0  0  0
  1 32  1  0  0  0
  2  3  1  0  0  0
  3  4  1  0  0  0
  3 33  1  0  0  0
  3 34  1  0  0  0
  4  9  1  0  0  0
  4  5  2  0  0  0
  5  6  1  0  0  0
  5 35  1  0  0  0
  6  7  2  0  0  0
  6 26  1  0  0  0
  7  8  1  0  0  0
  7 36  1  0  0  0
  8 13  1  0  0  0
  8  9  2  0  0  0
  9 10  1  0  0  0
 10 11  1  0  0  0
 11 27  1  0  0  0
 11 12  1  0  0  0
 11 19  1  0  0  0
 12 28  1  0  0  0
 12 16  1  0  0  0
 12 13  1  0  0  0
 13 29  1  0  0  0
 13 14  1  0  0  0
 14 15  1  0  0  0
 14 37  1  0  0  0
 14 38  1  0  0  0
 15 16  1  0  0  0
 15 17  1  0  0  0
 15 18  1  0  0  0
 16 39  1  0  0  0
 16 40  1  0  0  0
 19 24  1  0  0  0
 19 20  2  0  0  0
 20 21  1  0  0  0
 20 41  1  0  0  0
 21 22  2  0  0  0
 21 42  1  0  0  0
 22 23  1  0  0  0
 22 25  1  0  0  0
 23 24  2  0  0  0
 23 43  1  0  0  0
 24 44  1  0  0  0
 25 45  1  0  0  0
 26 46  1  0  0  0
M  END
> <s_m_entry_id>
17253

> <s_m_entry_name>
ligand_docking-pose.180

> <s_m_Source_Path>
/home/csk/Desktop/cluster/DUD-E-result/esr1

> <s_m_Source_File>
ligand_docking-pose.sdf

> <i_m_Source_File_Index>
180

> <i_lp_mmshare_version>
53161

> <i_f3d_flags>
0

> <r_lp_tautomer_probability>
0.999999999997365

> <s_lp_Force_Field>
OPLS_2005

> <r_lp_Energy>
36.252998

> <b_lp_Chiralities_Consistent>
1

> <s_lp_Variant>
398425-1

> <s_i_glide_gridfile>
glide-grid_1sj0

> <i_i_glide_lignum>
1796

> <i_i_glide_rotatable_bonds>
5

> <r_i_docking_score>
-9.18022183412788

> <r_i_glide_ligand_efficiency>
-0.353085455158765

> <r_i_glide_ligand_efficiency_sa>
-1.04601427158366

> <r_i_glide_ligand_efficiency_ln>
-2.15594497498017

> <r_i_glide_gscore>
-9.18022183412788

> <r_i_glide_lipo>
-4.48108134950223

> <r_i_glide_hbond>
-0.275645527091661

> <r_i_glide_metal>
0

> <r_i_glide_rewards>
-2.47631414622193

> <r_i_glide_evdw>
-27.0710697174072

> <r_i_glide_ecoul>
-5.3223090171814

> <r_i_glide_erotb>
0.204719027135511

> <r_i_glide_esite>
0

> <r_i_glide_emodel>
-30.9161915348951

> <r_i_glide_energy>
-32.3933787345886

> <r_i_glide_einternal>
9.59775257110596

> <i_i_glide_confnum>
1

> <i_i_glide_posenum>
319

> <r_i_glide_eff_state_penalty>
0

> <s_user_duplicate_titles>
398425

> <s_m_subgroup_title>
dock_pv

> <s_m_subgroupid>
dock_pv1

> <b_m_subgroup_collapsed>
0

$$$$
350795
                    3D
 Schrodinger Suite 2021-1.
 40 43  0  0  1  0            999 V2000
   33.1555   -1.1881   29.0416 C   0  0  0  0  0  0
   31.8484   -0.6388   28.4636 C   0  0  0  0  0  0
   31.3695   -0.9973   27.2377 C   0  0  0  0  0  0
   31.9599   -1.8693   26.1917 C   0  0  0  0  0  0
   33.0559   -2.7344   26.2170 C   0  0  0  0  0  0
   33.4997   -3.3419   25.0429 C   0  0  0  0  0  0
   32.8552   -3.0964   23.8352 C   0  0  0  0  0  0
   31.7592   -2.2376   23.8028 C   0  0  0  0  0  0
   31.2972   -1.6519   24.9841 C   0  0  0  0  0  0
   30.1879   -0.6601   25.1566 C   0  0  0  0  0  0
   30.0255   -0.4770   26.6772 C   0  0  2  0  0  0
   29.9629    1.0157   27.1235 C   0  0  0  0  0  0
   29.9894    1.1395   28.6653 C   0  0  0  0  0  0
   31.1726    0.3846   29.3015 C   0  0  0  0  0  0
   31.4196    0.5469   30.4970 O   0  0  0  0  0  0
   28.7906   -1.2898   27.1588 C   0  0  0  0  0  0
   28.9134   -2.6390   27.5228 C   0  0  0  0  0  0
   27.7940   -3.3913   27.8640 C   0  0  0  0  0  0
   26.5368   -2.7960   27.8639 C   0  0  0  0  0  0
   26.3919   -1.4573   27.5109 C   0  0  0  0  0  0
   27.5104   -0.7131   27.1504 C   0  0  0  0  0  0
   33.2969   -3.7137   22.6962 O   0  0  0  0  0  0
   33.4803   -0.7063   29.9652 H   0  0  0  0  0  0
   33.0566   -2.2533   29.2520 H   0  0  0  0  0  0
   33.9679   -1.0463   28.3287 H   0  0  0  0  0  0
   33.5898   -2.9474   27.1274 H   0  0  0  0  0  0
   34.3447   -4.0119   25.0636 H   0  0  0  0  0  0
   31.2613   -2.0432   22.8655 H   0  0  0  0  0  0
   30.4841    0.2579   24.6719 H   0  0  0  0  0  0
   29.2635   -0.9847   24.6784 H   0  0  0  0  0  0
   29.0970    1.5334   26.7117 H   0  0  0  0  0  0
   30.8183    1.5560   26.7162 H   0  0  0  0  0  0
   29.0884    0.6754   29.0639 H   0  0  0  0  0  0
   29.9995    2.1775   28.9980 H   0  0  0  0  0  0
   29.8724   -3.1346   27.5071 H   0  0  0  0  0  0
   27.9001   -4.4367   28.1147 H   0  0  0  0  0  0
   25.6635   -3.3840   28.1044 H   0  0  0  0  0  0
   25.4109   -1.0065   27.4839 H   0  0  0  0  0  0
   27.3548    0.3083   26.8426 H   0  0  0  0  0  0
   32.7042   -3.6197   21.9463 H   0  0  0  0  0  0
  1  2  1  0  0  0
  1 23  1  0  0  0
  1 24  1  0  0  0
  1 25  1  0  0  0
  2 14  1  0  0  0
  2  3  2  0  0  0
  3 11  1  0  0  0
  3  4  1  0  0  0
  4  9  2  0  0  0
  4  5  1  0  0  0
  5  6  2  0  0  0
  5 26  1  0  0  0
  6  7  1  0  0  0
  6 27  1  0  0  0
  7  8  2  0  0  0
  7 22  1  0  0  0
  8  9  1  0  0  0
  8 28  1  0  0  0
  9 10  1  0  0  0
 10 11  1  0  0  0
 10 29  1  0  0  0
 10 30  1  0  0  0
 11 12  1  0  0  0
 11 16  1  0  0  0
 12 13  1  0  0  0
 12 31  1  0  0  0
 12 32  1  0  0  0
 13 14  1  0  0  0
 13 33  1  0  0  0
 13 34  1  0  0  0
 14 15  2  0  0  0
 16 21  1  0  0  0
 16 17  2  0  0  0
 17 18  1  0  0  0
 17 35  1  0  0  0
 18 19  2  0  0  0
 18 36  1  0  0  0
 19 20  1  0  0  0
 19 37  1  0  0  0
 20 21  2  0  0  0
 20 38  1  0  0  0
 21 39  1  0  0  0
 22 40  1  0  0  0
M  END
> <s_m_entry_id>
17254

> <s_m_entry_name>
ligand_docking-pose.181

> <s_m_Source_Path>
/home/csk/Desktop/cluster/DUD-E-result/esr1

> <s_m_Source_File>
ligand_docking-pose.sdf

> <i_m_Source_File_Index>
181

> <i_lp_mmshare_version>
53161

> <i_f3d_flags>
0

> <r_lp_tautomer_probability>
1

> <s_lp_Force_Field>
OPLS_2005

> <r_lp_Energy>
30.83169

> <b_lp_Chiralities_Consistent>
1

> <s_lp_Variant>
350795-2

> <s_i_glide_gridfile>
glide-grid_1sj0

> <i_i_glide_lignum>
863

> <i_i_glide_rotatable_bonds>
2

> <r_i_docking_score>
-9.17493210682281

> <r_i_glide_ligand_efficiency>
-0.417042368491946

> <r_i_glide_ligand_efficiency_sa>
-1.16856911786008

> <r_i_glide_ligand_efficiency_ln>
-2.2426880706875

> <r_i_glide_gscore>
-9.17493210682281

> <r_i_glide_lipo>
-4.70333954040319

> <r_i_glide_hbond>
0

> <r_i_glide_metal>
0

> <r_i_glide_rewards>
-2.62252740862022

> <r_i_glide_evdw>
-39.2361106872559

> <r_i_glide_ecoul>
-0.689463555812836

> <r_i_glide_erotb>
0.216159909935314

> <r_i_glide_esite>
0

> <r_i_glide_emodel>
-60.1660886154756

> <r_i_glide_energy>
-39.9255742430687

> <r_i_glide_einternal>
1.53505456447601

> <i_i_glide_confnum>
2

> <i_i_glide_posenum>
81

> <r_i_glide_eff_state_penalty>
0

> <s_user_duplicate_titles>
350795

> <s_m_subgroup_title>
dock_pv

> <s_m_subgroupid>
dock_pv1

> <b_m_subgroup_collapsed>
0

$$$$
250137
                    3D
 Schrodinger Suite 2021-1.
 50 52  0  0  1  0            999 V2000
   34.8572    1.2966   29.3491 C   0  0  0  0  0  0
   34.7762    1.9940   27.9819 C   0  0  0  0  0  0
   33.4319    1.8008   27.2471 C   0  0  0  0  0  0
   33.1423    0.3291   26.8426 C   0  0  0  0  0  0
   31.7938   -0.2827   27.2003 C   0  0  0  0  0  0
   31.1037   -1.1330   26.3982 C   0  0  0  0  0  0
   31.7526   -1.7901   25.2410 C   0  0  0  0  0  0
   32.8177   -2.6645   25.5001 C   0  0  0  0  0  0
   33.4599   -3.3289   24.4610 C   0  0  0  0  0  0
   33.0358   -3.1223   23.1542 C   0  0  0  0  0  0
   31.9786   -2.2621   22.8874 C   0  0  0  0  0  0
   31.3318   -1.5906   23.9264 C   0  0  0  0  0  0
   33.6498   -3.7655   22.1152 O   0  0  0  0  0  0
   29.7301   -1.5736   26.7241 C   0  0  0  0  0  0
   28.5932   -0.8986   26.2667 C   0  0  0  0  0  0
   27.3223   -1.3460   26.6381 C   0  0  0  0  0  0
   27.1968   -2.4629   27.4645 C   0  0  0  0  0  0
   28.3232   -3.1437   27.9034 C   0  0  0  0  0  0
   29.5823   -2.6925   27.5347 C   0  0  0  0  0  0
   25.9667   -2.9086   27.8641 O   0  0  0  0  0  0
   31.3420    0.0813   28.5347 C   0  0  0  0  0  0
   30.3069    0.9872   28.7149 C   0  0  0  0  0  0
   30.0602    1.4577   29.9899 C   0  0  0  0  0  0
   30.8600    1.0582   31.0637 C   0  0  0  0  0  0
   31.8647    0.1179   30.8809 C   0  0  0  0  0  0
   32.0869   -0.3933   29.6157 C   0  0  0  0  0  0
   35.7377    1.6114   29.8987 H   0  0  0  0  0  0
   34.0022    1.5389   29.9752 H   0  0  0  0  0  0
   34.9173    0.2130   29.2550 H   0  0  0  0  0  0
   35.6024    1.6616   27.3508 H   0  0  0  0  0  0
   34.9356    3.0567   28.1479 H   0  0  0  0  0  0
   33.4379    2.4167   26.3461 H   0  0  0  0  0  0
   32.6386    2.2235   27.8617 H   0  0  0  0  0  0
   33.8603   -0.3210   27.3430 H   0  0  0  0  0  0
   33.2599    0.2564   25.7672 H   0  0  0  0  0  0
   33.1471   -2.8364   26.5150 H   0  0  0  0  0  0
   34.2743   -4.0029   24.6756 H   0  0  0  0  0  0
   31.6582   -2.1424   21.8646 H   0  0  0  0  0  0
   30.5031   -0.9313   23.7133 H   0  0  0  0  0  0
   34.2519   -4.4613   22.3840 H   0  0  0  0  0  0
   28.6927   -0.0275   25.6350 H   0  0  0  0  0  0
   26.4398   -0.8287   26.2921 H   0  0  0  0  0  0
   28.2229   -4.0170   28.5313 H   0  0  0  0  0  0
   30.4600   -3.2173   27.8632 H   0  0  0  0  0  0
   25.3907   -3.0822   27.1004 H   0  0  0  0  0  0
   29.7305    1.3518   27.8764 H   0  0  0  0  0  0
   29.2545    2.1569   30.1239 H   0  0  0  0  0  0
   30.6791    1.4568   32.0504 H   0  0  0  0  0  0
   32.5017   -0.1964   31.6904 H   0  0  0  0  0  0
   32.8941   -1.0966   29.4662 H   0  0  0  0  0  0
  1  2  1  0  0  0
  1 27  1  0  0  0
  1 28  1  0  0  0
  1 29  1  0  0  0
  2  3  1  0  0  0
  2 30  1  0  0  0
  2 31  1  0  0  0
  3  4  1  0  0  0
  3 32  1  0  0  0
  3 33  1  0  0  0
  4  5  1  0  0  0
  4 34  1  0  0  0
  4 35  1  0  0  0
  5  6  2  3  0  0
  5 21  1  0  0  0
  6  7  1  0  0  0
  6 14  1  0  0  0
  7 12  1  0  0  0
  7  8  2  0  0  0
  8  9  1  0  0  0
  8 36  1  0  0  0
  9 10  2  0  0  0
  9 37  1  0  0  0
 10 11  1  0  0  0
 10 13  1  0  0  0
 11 12  2  0  0  0
 11 38  1  0  0  0
 12 39  1  0  0  0
 13 40  1  0  0  0
 14 19  1  0  0  0
 14 15  2  0  0  0
 15 16  1  0  0  0
 15 41  1  0  0  0
 16 17  2  0  0  0
 16 42  1  0  0  0
 17 18  1  0  0  0
 17 20  1  0  0  0
 18 19  2  0  0  0
 18 43  1  0  0  0
 19 44  1  0  0  0
 20 45  1  0  0  0
 21 26  1  0  0  0
 21 22  2  0  0  0
 22 23  1  0  0  0
 22 46  1  0  0  0
 23 24  2  0  0  0
 23 47  1  0  0  0
 24 25  1  0  0  0
 24 48  1  0  0  0
 25 26  2  0  0  0
 25 49  1  0  0  0
 26 50  1  0  0  0
M  END
> <s_m_entry_id>
17255

> <s_m_entry_name>
ligand_docking-pose.182

> <s_m_Source_Path>
/home/csk/Desktop/cluster/DUD-E-result/esr1

> <s_m_Source_File>
ligand_docking-pose.sdf

> <i_m_Source_File_Index>
182

> <i_lp_mmshare_version>
53161

> <i_f3d_flags>
0

> <r_lp_tautomer_probability>
1

> <s_lp_Force_Field>
OPLS_2005

> <r_lp_Energy>
27.658075

> <b_lp_Chiralities_Consistent>
1

> <s_lp_Variant>
250137-1

> <s_i_glide_gridfile>
glide-grid_1sj0

> <i_i_glide_lignum>
1436

> <i_i_glide_rotatable_bonds>
8

> <r_i_docking_score>
-9.17217663488853

> <r_i_glide_ligand_efficiency>
-0.352776024418789

> <r_i_glide_ligand_efficiency_sa>
-1.04509758423404

> <r_i_glide_ligand_efficiency_ln>
-2.15405558633726

> <r_i_glide_gscore>
-9.17217663488853

> <r_i_glide_lipo>
-5.60395488283341

> <r_i_glide_hbond>
-0.16

> <r_i_glide_metal>
0

> <r_i_glide_rewards>
-1.96059436363636

> <r_i_glide_evdw>
-36.4015235900879

> <r_i_glide_ecoul>
-2.85163831710815

> <r_i_glide_erotb>
0.800194538651865

> <r_i_glide_esite>
0

> <r_i_glide_emodel>
-44.0422333772698

> <r_i_glide_energy>
-39.253161907196

> <r_i_glide_einternal>
14.0453538894653

> <i_i_glide_confnum>
48

> <i_i_glide_posenum>
35

> <r_i_glide_eff_state_penalty>
0

> <s_user_duplicate_titles>
250137

> <s_m_subgroup_title>
dock_pv

> <s_m_subgroupid>
dock_pv1

> <b_m_subgroup_collapsed>
0

$$$$
223342
                    3D
 Schrodinger Suite 2021-1.
 32 33  0  0  1  0            999 V2000
   28.6521   -0.1870   27.9265 C   0  0  0  0  0  0
   27.3393   -0.1689   27.4640 C   0  0  0  0  0  0
   26.7070   -1.3657   27.1396 C   0  0  0  0  0  0
   27.3684   -2.5829   27.2844 C   0  0  0  0  0  0
   28.6763   -2.6033   27.7613 C   0  0  0  0  0  0
   29.3209   -1.4062   28.0850 C   0  0  0  0  0  0
   30.7709   -1.4412   28.5592 C   0  0  2  0  0  0
   31.0367   -0.4778   29.6538 C   0  0  0  0  0  0
   31.2600    0.2760   30.5056 N   0  0  0  0  0  0
   31.7504   -1.3307   27.3546 C   0  0  2  0  0  0
   32.3659   -2.6121   26.9697 C   0  0  0  0  0  0
   32.8600   -3.6113   26.6640 N   0  0  0  0  0  0
   32.8362   -0.2893   27.5664 C   0  0  0  0  0  0
   32.7285    0.9435   26.9261 C   0  0  0  0  0  0
   33.6807    1.9271   27.1557 C   0  0  0  0  0  0
   34.7308    1.6629   28.0274 C   0  0  0  0  0  0
   34.8470    0.4371   28.6733 C   0  0  0  0  0  0
   33.8913   -0.5420   28.4474 C   0  0  0  0  0  0
   35.6600    2.6238   28.2640 O   0  0  0  0  0  0
   25.4266   -1.3420   26.6640 O   0  0  0  0  0  0
   29.1446    0.7460   28.1604 H   0  0  0  0  0  0
   26.8155    0.7686   27.3432 H   0  0  0  0  0  0
   26.8745   -3.5078   27.0209 H   0  0  0  0  0  0
   29.1900   -3.5490   27.8635 H   0  0  0  0  0  0
   30.9182   -2.4017   29.0483 H   0  0  0  0  0  0
   31.1927   -1.0354   26.4640 H   0  0  0  0  0  0
   31.9005    1.1336   26.2640 H   0  0  0  0  0  0
   33.6068    2.8865   26.6660 H   0  0  0  0  0  0
   35.6600    0.2457   29.3574 H   0  0  0  0  0  0
   33.9678   -1.4889   28.9632 H   0  0  0  0  0  0
   36.4526    2.2434   28.6640 H   0  0  0  0  0  0
   25.1540   -2.2005   26.2761 H   0  0  0  0  0  0
  1  6  1  0  0  0
  1  2  2  0  0  0
  1 21  1  0  0  0
  2  3  1  0  0  0
  2 22  1  0  0  0
  3  4  2  0  0  0
  3 20  1  0  0  0
  4  5  1  0  0  0
  4 23  1  0  0  0
  5  6  2  0  0  0
  5 24  1  0  0  0
  6  7  1  0  0  0
  7  8  1  0  0  0
  7 10  1  0  0  0
  7 25  1  0  0  0
  8  9  3  0  0  0
 10 11  1  0  0  0
 10 13  1  0  0  0
 10 26  1  0  0  0
 11 12  3  0  0  0
 13 18  1  0  0  0
 13 14  2  0  0  0
 14 15  1  0  0  0
 14 27  1  0  0  0
 15 16  2  0  0  0
 15 28  1  0  0  0
 16 17  1  0  0  0
 16 19  1  0  0  0
 17 18  2  0  0  0
 17 29  1  0  0  0
 18 30  1  0  0  0
 19 31  1  0  0  0
 20 32  1  0  0  0
M  END
> <s_m_entry_id>
17256

> <s_m_entry_name>
ligand_docking-pose.183

> <s_m_Source_Path>
/home/csk/Desktop/cluster/DUD-E-result/esr1

> <s_m_Source_File>
ligand_docking-pose.sdf

> <i_m_Source_File_Index>
183

> <i_lp_mmshare_version>
53161

> <i_f3d_flags>
0

> <r_lp_tautomer_probability>
0.99999999999473

> <s_lp_Force_Field>
OPLS_2005

> <r_lp_Energy>
10.583469

> <b_lp_Chiralities_Consistent>
1

> <s_lp_Variant>
223342-1

> <s_i_glide_gridfile>
glide-grid_1sj0

> <i_i_glide_lignum>
439

> <i_i_glide_rotatable_bonds>
5

> <r_i_docking_score>
-9.17140372980575

> <r_i_glide_ligand_efficiency>
-0.458570186490288

> <r_i_glide_ligand_efficiency_sa>
-1.24475099141147

> <r_i_glide_ligand_efficiency_ln>
-2.29529986043041

> <r_i_glide_gscore>
-9.17140372980575

> <r_i_glide_lipo>
-3.21860206408004

> <r_i_glide_hbond>
-0.456

> <r_i_glide_metal>
0

> <r_i_glide_rewards>
-3.01384125223445

> <r_i_glide_evdw>
-29.0430603027344

> <r_i_glide_ecoul>
-10.4349050521851

> <r_i_glide_erotb>
0.534428359473214

> <r_i_glide_esite>
0

> <r_i_glide_emodel>
-60.1072388577069

> <r_i_glide_energy>
-39.4779653549194

> <r_i_glide_einternal>
5.58986377716064

> <i_i_glide_confnum>
4

> <i_i_glide_posenum>
341

> <r_i_glide_eff_state_penalty>
0

> <s_user_duplicate_titles>
223342

> <s_m_subgroup_title>
dock_pv

> <s_m_subgroupid>
dock_pv1

> <b_m_subgroup_collapsed>
0

$$$$
88891
                    3D
 Schrodinger Suite 2021-1.
 48 51  0  0  1  0            999 V2000
   34.1804    1.6339   27.2769 C   0  0  0  0  0  0
   33.3409    0.7351   28.2397 C   0  0  2  0  0  0
   33.2126   -0.6989   27.6299 C   0  0  0  0  0  0
   31.8373   -1.3660   27.7304 C   0  0  0  0  0  0
   30.7400   -0.4596   27.1223 C   0  0  1  0  0  0
   29.3090   -0.9184   27.3847 C   0  0  0  0  0  0
   28.9826   -2.2400   27.1371 C   0  0  0  0  0  0
   27.6870   -2.6851   27.3070 C   0  0  0  0  0  0
   26.6747   -1.8065   27.6467 C   0  0  0  0  0  0
   26.9675   -0.4798   27.8640 C   0  0  0  0  0  0
   28.2860   -0.0410   27.8103 C   0  0  0  0  0  0
   28.6082    1.3659   28.2150 C   0  0  0  0  0  0
   29.6735    1.8582   27.2827 C   0  0  0  0  0  0
   30.9816    1.0580   27.3340 C   0  0  1  0  0  0
   31.9536    1.4016   28.4935 C   0  0  1  0  0  0
   31.5453    1.0172   29.9231 C   0  0  0  0  0  0
   32.8617    0.9094   30.6911 C   0  0  0  0  0  0
   33.9726    0.6287   29.6596 C   0  0  2  0  0  0
   35.0941    1.4580   29.8640 O   0  0  0  0  0  0
   25.4174   -2.2645   27.8640 O   0  0  0  0  0  0
   27.4508   -4.1420   27.3572 C   0  0  0  0  0  0
   27.6600   -4.5420   28.6760 O   0  0  0  0  0  0
   34.3098   -0.3937   29.8400 H   0  0  0  0  0  0
   35.1911    1.2437   27.1502 H   0  0  0  0  0  0
   33.7443    1.7000   26.2802 H   0  0  0  0  0  0
   34.2755    2.6550   27.6488 H   0  0  0  0  0  0
   33.2600   -0.5830   26.5474 H   0  0  0  0  0  0
   34.0564   -1.3420   27.8655 H   0  0  0  0  0  0
   31.8992   -2.3016   27.1721 H   0  0  0  0  0  0
   31.6187   -1.6360   28.7630 H   0  0  0  0  0  0
   30.8172   -0.6009   26.0410 H   0  0  0  0  0  0
   29.7544   -2.9441   26.8618 H   0  0  0  0  0  0
   26.1781    0.1926   28.1572 H   0  0  0  0  0  0
   27.7277    2.0082   28.1537 H   0  0  0  0  0  0
   28.9417    1.3927   29.2502 H   0  0  0  0  0  0
   29.2823    1.8580   26.2639 H   0  0  0  0  0  0
   29.8435    2.8910   27.5273 H   0  0  0  0  0  0
   31.5281    1.3745   26.4519 H   0  0  0  0  0  0
   32.0816    2.4862   28.5010 H   0  0  0  0  0  0
   30.9078    1.7786   30.3733 H   0  0  0  0  0  0
   30.9879    0.0827   29.9588 H   0  0  0  0  0  0
   33.0422    1.8580   31.1985 H   0  0  0  0  0  0
   32.8162    0.1398   31.4628 H   0  0  0  0  0  0
   35.8575    1.0939   29.4010 H   0  0  0  0  0  0
   25.1850   -2.9420   27.2071 H   0  0  0  0  0  0
   26.4600   -4.3842   27.0269 H   0  0  0  0  0  0
   28.0600   -4.6980   26.6640 H   0  0  0  0  0  0
   28.5181   -4.2080   28.9465 H   0  0  0  0  0  0
  1  2  1  0  0  0
  1 24  1  0  0  0
  1 25  1  0  0  0
  1 26  1  0  0  0
  2 15  1  0  0  0
  2 18  1  0  0  0
  2  3  1  0  0  0
  3  4  1  0  0  0
  3 27  1  0  0  0
  3 28  1  0  0  0
  4  5  1  0  0  0
  4 29  1  0  0  0
  4 30  1  0  0  0
  5 14  1  0  0  0
  5  6  1  0  0  0
  5 31  1  0  0  0
  6 11  2  0  0  0
  6  7  1  0  0  0
  7  8  2  0  0  0
  7 32  1  0  0  0
  8  9  1  0  0  0
  8 21  1  0  0  0
  9 10  2  0  0  0
  9 20  1  0  0  0
 10 11  1  0  0  0
 10 33  1  0  0  0
 11 12  1  0  0  0
 12 13  1  0  0  0
 12 34  1  0  0  0
 12 35  1  0  0  0
 13 14  1  0  0  0
 13 36  1  0  0  0
 13 37  1  0  0  0
 14 15  1  0  0  0
 14 38  1  0  0  0
 15 16  1  0  0  0
 15 39  1  0  0  0
 16 17  1  0  0  0
 16 40  1  0  0  0
 16 41  1  0  0  0
 17 18  1  0  0  0
 17 42  1  0  0  0
 17 43  1  0  0  0
 18 23  1  0  0  0
 18 19  1  0  0  0
 19 44  1  0  0  0
 20 45  1  0  0  0
 21 22  1  0  0  0
 21 46  1  0  0  0
 21 47  1  0  0  0
 22 48  1  0  0  0
M  END
> <s_m_entry_id>
17257

> <s_m_entry_name>
ligand_docking-pose.184

> <s_m_Source_Path>
/home/csk/Desktop/cluster/DUD-E-result/esr1

> <s_m_Source_File>
ligand_docking-pose.sdf

> <i_m_Source_File_Index>
184

> <i_lp_mmshare_version>
53161

> <i_f3d_flags>
0

> <r_lp_tautomer_probability>
0.999999999997365

> <s_lp_Force_Field>
OPLS_2005

> <r_lp_Energy>
50.283362

> <b_lp_Chiralities_Consistent>
1

> <s_lp_Variant>
88891-1

> <s_i_glide_gridfile>
glide-grid_1sj0

> <i_i_glide_lignum>
731

> <i_i_glide_rotatable_bonds>
4

> <r_i_docking_score>
-9.16643195822603

> <r_i_glide_ligand_efficiency>
-0.416655998101183

> <r_i_glide_ligand_efficiency_sa>
-1.16748649283008

> <r_i_glide_ligand_efficiency_ln>
-2.24061032431999

> <r_i_glide_gscore>
-9.16643195822603

> <r_i_glide_lipo>
-4.510283911993

> <r_i_glide_hbond>
-0.219952033562225

> <r_i_glide_metal>
0

> <r_i_glide_rewards>
-2.24721859090909

> <r_i_glide_evdw>
-24.9296321868896

> <r_i_glide_ecoul>
-7.22284078598022

> <r_i_glide_erotb>
0.1409303054798

> <r_i_glide_esite>
0

> <r_i_glide_emodel>
-44.5556606300627

> <r_i_glide_energy>
-32.1524729728699

> <r_i_glide_einternal>
1.32860326766968

> <i_i_glide_confnum>
2

> <i_i_glide_posenum>
123

> <r_i_glide_eff_state_penalty>
0

> <s_user_duplicate_titles>
88891

> <s_m_subgroup_title>
dock_pv

> <s_m_subgroupid>
dock_pv1

> <b_m_subgroup_collapsed>
0

$$$$
75452
                    3D
 Schrodinger Suite 2021-1.
 43 45  0  0  1  0            999 V2000
   33.3208    2.1783   26.7077 C   0  0  0  0  0  0
   33.2180    0.6580   26.5353 C   0  0  0  0  0  0
   31.9504   -0.0074   27.0596 C   0  0  0  0  0  0
   31.2470   -0.9500   26.3737 C   0  0  0  0  0  0
   31.8504   -1.6730   25.2329 C   0  0  0  0  0  0
   32.8600   -2.5996   25.5205 C   0  0  0  0  0  0
   33.4491   -3.3420   24.5035 C   0  0  0  0  0  0
   33.0235   -3.1675   23.1923 C   0  0  0  0  0  0
   32.0207   -2.2502   22.8961 C   0  0  0  0  0  0
   31.4328   -1.4967   23.9128 C   0  0  0  0  0  0
   29.9085   -1.4452   26.7819 C   0  0  0  0  0  0
   28.7625   -1.0880   26.0642 C   0  0  0  0  0  0
   27.5160   -1.6118   26.4174 C   0  0  0  0  0  0
   27.4146   -2.4852   27.4989 C   0  0  0  0  0  0
   28.5471   -2.8224   28.2308 C   0  0  0  0  0  0
   29.7860   -2.2936   27.8810 C   0  0  0  0  0  0
   26.2045   -3.0187   27.8640 O   0  0  0  0  0  0
   31.5594    0.4401   28.3951 C   0  0  0  0  0  0
   32.4310    0.1808   29.4593 C   0  0  0  0  0  0
   32.0826    0.5543   30.7474 C   0  0  0  0  0  0
   30.8600    1.1768   30.9574 C   0  0  0  0  0  0
   30.0045    1.4580   29.8900 C   0  0  0  0  0  0
   30.3517    1.0958   28.6032 C   0  0  0  0  0  0
   34.2142    2.5684   26.2189 H   0  0  0  0  0  0
   32.4600    2.6580   26.2640 H   0  0  0  0  0  0
   33.3657    2.4701   27.7574 H   0  0  0  0  0  0
   34.0600    0.2315   27.0641 H   0  0  0  0  0  0
   33.2822    0.4408   25.4739 H   0  0  0  0  0  0
   33.1851   -2.7533   26.5397 H   0  0  0  0  0  0
   34.2179   -4.0642   24.7321 H   0  0  0  0  0  0
   33.4652   -3.7552   22.4002 H   0  0  0  0  0  0
   31.6889   -2.1420   21.8743 H   0  0  0  0  0  0
   30.6490   -0.7928   23.6774 H   0  0  0  0  0  0
   28.8435   -0.4174   25.2215 H   0  0  0  0  0  0
   26.6355   -1.3466   25.8505 H   0  0  0  0  0  0
   28.4600   -3.5008   29.0640 H   0  0  0  0  0  0
   30.6603   -2.5420   28.4602 H   0  0  0  0  0  0
   25.5998   -3.1132   27.1111 H   0  0  0  0  0  0
   33.3724   -0.3239   29.2940 H   0  0  0  0  0  0
   32.7508    0.3526   31.5711 H   0  0  0  0  0  0
   30.5722    1.4580   31.9596 H   0  0  0  0  0  0
   29.0533    1.9322   30.0608 H   0  0  0  0  0  0
   29.6802    1.3005   27.7816 H   0  0  0  0  0  0
  1  2  1  0  0  0
  1 24  1  0  0  0
  1 25  1  0  0  0
  1 26  1  0  0  0
  2  3  1  0  0  0
  2 27  1  0  0  0
  2 28  1  0  0  0
  3  4  2  0  0  0
  3 18  1  0  0  0
  4  5  1  0  0  0
  4 11  1  0  0  0
  5 10  1  0  0  0
  5  6  2  0  0  0
  6  7  1  0  0  0
  6 29  1  0  0  0
  7  8  2  0  0  0
  7 30  1  0  0  0
  8  9  1  0  0  0
  8 31  1  0  0  0
  9 10  2  0  0  0
  9 32  1  0  0  0
 10 33  1  0  0  0
 11 16  1  0  0  0
 11 12  2  0  0  0
 12 13  1  0  0  0
 12 34  1  0  0  0
 13 14  2  0  0  0
 13 35  1  0  0  0
 14 15  1  0  0  0
 14 17  1  0  0  0
 15 16  2  0  0  0
 15 36  1  0  0  0
 16 37  1  0  0  0
 17 38  1  0  0  0
 18 23  1  0  0  0
 18 19  2  0  0  0
 19 20  1  0  0  0
 19 39  1  0  0  0
 20 21  2  0  0  0
 20 40  1  0  0  0
 21 22  1  0  0  0
 21 41  1  0  0  0
 22 23  2  0  0  0
 22 42  1  0  0  0
 23 43  1  0  0  0
M  END
> <s_m_entry_id>
17258

> <s_m_entry_name>
ligand_docking-pose.185

> <s_m_Source_Path>
/home/csk/Desktop/cluster/DUD-E-result/esr1

> <s_m_Source_File>
ligand_docking-pose.sdf

> <i_m_Source_File_Index>
185

> <i_lp_mmshare_version>
53161

> <i_f3d_flags>
0

> <r_lp_tautomer_probability>
1

> <s_lp_Force_Field>
OPLS_2005

> <r_lp_Energy>
28.702256

> <b_lp_Chiralities_Consistent>
1

> <s_lp_Variant>
75452-1

> <s_i_glide_gridfile>
glide-grid_1sj0

> <i_i_glide_lignum>
1383

> <i_i_glide_rotatable_bonds>
5

> <r_i_docking_score>
-9.15825483890202

> <r_i_glide_ligand_efficiency>
-0.39818499299574

> <r_i_glide_ligand_efficiency_sa>
-1.13238515226948

> <r_i_glide_ligand_efficiency_ln>
-2.21454906251014

> <r_i_glide_gscore>
-9.15825483890202

> <r_i_glide_lipo>
-5.479562920787

> <r_i_glide_hbond>
-0.16

> <r_i_glide_metal>
0

> <r_i_glide_rewards>
-2.26095272727273

> <r_i_glide_evdw>
-31.8718299865723

> <r_i_glide_ecoul>
-3.19295024871826

> <r_i_glide_erotb>
0.814794845794058

> <r_i_glide_esite>
0

> <r_i_glide_emodel>
-41.9064567201734

> <r_i_glide_energy>
-35.0647802352905

> <r_i_glide_einternal>
6.71161842346191

> <i_i_glide_confnum>
48

> <i_i_glide_posenum>
209

> <r_i_glide_eff_state_penalty>
0

> <s_user_duplicate_titles>
75452

> <s_m_subgroup_title>
dock_pv

> <s_m_subgroupid>
dock_pv1

> <b_m_subgroup_collapsed>
0

$$$$
393983
                    3D
 Schrodinger Suite 2021-1.
 34 37  0  0  1  0            999 V2000
   29.0345    0.2533   28.1397 C   0  0  0  0  0  0
   29.8657    0.8680   29.0640 C   0  0  0  0  0  0
   31.2647    0.6489   29.0522 C   0  0  0  0  0  0
   31.8238   -0.1034   27.9724 C   0  0  0  0  0  0
   33.2373   -0.1507   27.8903 C   0  0  0  0  0  0
   34.0656    0.4155   28.8475 C   0  0  0  0  0  0
   33.5086    1.0425   29.9463 C   0  0  0  0  0  0
   32.1303    1.1530   30.0717 C   0  0  0  0  0  0
   31.6527    1.7385   31.2102 O   0  0  0  0  0  0
   30.9479   -0.7581   27.0258 C   0  0  0  0  0  0
   29.5637   -0.5747   27.1638 C   0  0  0  0  0  0
   31.4239   -1.5436   25.9293 N   0  0  0  0  0  0
   32.3677   -2.5315   26.0055 C   0  0  0  0  0  0
   32.8603   -3.0215   27.0228 O   0  0  0  0  0  0
   32.6901   -2.8973   24.6062 C   0  0  0  0  0  0
   33.6601   -3.7413   24.0770 C   0  0  0  0  0  0
   33.6600   -4.0032   22.7001 C   0  0  0  0  0  0
   32.6815   -3.4381   21.8828 C   0  0  0  0  0  0
   31.7653   -2.5442   22.4296 C   0  0  0  0  0  0
   31.8037   -2.2641   23.7962 C   0  0  0  0  0  0
   31.0147   -1.3380   24.6427 C   0  0  0  0  0  0
   30.1565   -0.5426   24.2640 O   0  0  0  0  0  0
   32.6119   -3.7421   20.5492 O   0  0  0  0  0  0
   27.9657    0.4008   28.1935 H   0  0  0  0  0  0
   29.4347    1.4745   29.8480 H   0  0  0  0  0  0
   33.6730   -0.6552   27.0641 H   0  0  0  0  0  0
   35.1400    0.3465   28.7486 H   0  0  0  0  0  0
   34.1611    1.4576   30.6981 H   0  0  0  0  0  0
   32.3589    2.0207   31.7941 H   0  0  0  0  0  0
   28.8781   -1.0522   26.4779 H   0  0  0  0  0  0
   34.4249   -4.1445   24.7193 H   0  0  0  0  0  0
   34.4109   -4.6458   22.2637 H   0  0  0  0  0  0
   31.0266   -2.1422   21.7711 H   0  0  0  0  0  0
   32.2623   -4.6318   20.3727 H   0  0  0  0  0  0
  1 11  1  0  0  0
  1  2  2  0  0  0
  1 24  1  0  0  0
  2  3  1  0  0  0
  2 25  1  0  0  0
  3  8  2  0  0  0
  3  4  1  0  0  0
  4  5  2  0  0  0
  4 10  1  0  0  0
  5  6  1  0  0  0
  5 26  1  0  0  0
  6  7  2  0  0  0
  6 27  1  0  0  0
  7  8  1  0  0  0
  7 28  1  0  0  0
  8  9  1  0  0  0
  9 29  1  0  0  0
 10 11  2  0  0  0
 10 12  1  0  0  0
 11 30  1  0  0  0
 12 21  1  0  0  0
 12 13  1  0  0  0
 13 14  2  0  0  0
 13 15  1  0  0  0
 15 20  2  0  0  0
 15 16  1  0  0  0
 16 17  2  0  0  0
 16 31  1  0  0  0
 17 18  1  0  0  0
 17 32  1  0  0  0
 18 19  2  0  0  0
 18 23  1  0  0  0
 19 20  1  0  0  0
 19 33  1  0  0  0
 20 21  1  0  0  0
 21 22  2  0  0  0
 23 34  1  0  0  0
M  END
> <s_m_entry_id>
17259

> <s_m_entry_name>
ligand_docking-pose.186

> <s_m_Source_Path>
/home/csk/Desktop/cluster/DUD-E-result/esr1

> <s_m_Source_File>
ligand_docking-pose.sdf

> <i_m_Source_File_Index>
186

> <i_lp_mmshare_version>
53161

> <i_f3d_flags>
0

> <r_lp_tautomer_probability>
0.999999999997365

> <s_lp_Force_Field>
OPLS_2005

> <r_lp_Energy>
51.475712

> <b_lp_Chiralities_Consistent>
1

> <s_lp_Variant>
393983-1

> <s_i_glide_gridfile>
glide-grid_1sj0

> <i_i_glide_lignum>
54

> <i_i_glide_rotatable_bonds>
3

> <r_i_docking_score>
-9.15803678908344

> <r_i_glide_ligand_efficiency>
-0.398175512568845

> <r_i_glide_ligand_efficiency_sa>
-1.13235819119651

> <r_i_glide_ligand_efficiency_ln>
-2.21449633608685

> <r_i_glide_gscore>
-9.15803678908344

> <r_i_glide_lipo>
-3.5490726216052

> <r_i_glide_hbond>
-0.16

> <r_i_glide_metal>
0

> <r_i_glide_rewards>
-3.34452127356964

> <r_i_glide_evdw>
-32.2781829833984

> <r_i_glide_ecoul>
-4.59033679962158

> <r_i_glide_erotb>
0.198016775204559

> <r_i_glide_esite>
0

> <r_i_glide_emodel>
-46.1727797786875

> <r_i_glide_energy>
-36.86851978302

> <r_i_glide_einternal>
9.9566650390625

> <i_i_glide_confnum>
1

> <i_i_glide_posenum>
27

> <r_i_glide_eff_state_penalty>
0

> <s_user_duplicate_titles>
393983

> <s_m_subgroup_title>
dock_pv

> <s_m_subgroupid>
dock_pv1

> <b_m_subgroup_collapsed>
0

$$$$
286151
                    3D
 Schrodinger Suite 2021-1.
 42 44  0  0  1  0            999 V2000
   33.2601    1.2967   31.6881 C   0  0  0  0  0  0
   31.7724    1.4869   31.3573 C   0  0  0  0  0  0
   31.1221    0.3745   30.5033 C   0  0  0  0  0  0
   31.7894    0.0591   29.2418 N   0  0  0  0  0  0
   33.1220   -0.2211   29.0496 C   0  0  0  0  0  0
   33.5302   -0.2045   27.8640 N   0  0  0  0  0  0
   32.3566   -0.0780   27.0328 C   0  0  2  0  0  0
   31.1285    0.1507   27.9505 C   0  0  1  0  0  0
   29.9229   -0.7863   27.7381 C   0  0  0  0  0  0
   29.9466   -2.0659   28.2958 C   0  0  0  0  0  0
   28.9089   -2.9626   28.0737 C   0  0  0  0  0  0
   27.8277   -2.6055   27.2838 C   0  0  0  0  0  0
   27.7677   -1.3251   26.7340 C   0  0  0  0  0  0
   28.8075   -0.4126   26.9620 C   0  0  0  0  0  0
   28.6825    1.1650   26.2640 Cl  0  0  0  0  0  0
   26.8600   -3.5470   27.0641 O   0  0  0  0  0  0
   32.3245   -1.2080   25.9793 C   0  0  0  0  0  0
   31.8441   -0.8690   24.7116 C   0  0  0  0  0  0
   31.9840   -1.7351   23.6310 C   0  0  0  0  0  0
   32.5991   -2.9657   23.8020 C   0  0  0  0  0  0
   33.0202   -3.3420   25.0679 C   0  0  0  0  0  0
   32.8367   -2.5139   26.1679 C   0  0  0  0  0  0
   33.2600   -3.1939   27.7028 Cl  0  0  0  0  0  0
   32.7805   -3.8153   22.7457 O   0  0  0  0  0  0
   32.5124    0.8488   26.4745 H   0  0  0  0  0  0
   30.7864    1.1812   27.8465 H   0  0  0  0  0  0
   33.6600    1.8579   32.5284 H   0  0  0  0  0  0
   33.4384    0.2476   31.8996 H   0  0  0  0  0  0
   33.8891    1.5891   30.8482 H   0  0  0  0  0  0
   31.6600    2.4112   30.8042 H   0  0  0  0  0  0
   31.2012    1.6044   32.2774 H   0  0  0  0  0  0
   30.0907    0.6580   30.2914 H   0  0  0  0  0  0
   31.1362   -0.5597   31.0669 H   0  0  0  0  0  0
   33.7661   -0.4554   29.8886 H   0  0  0  0  0  0
   30.7838   -2.3703   28.9029 H   0  0  0  0  0  0
   28.9541   -3.9556   28.4951 H   0  0  0  0  0  0
   26.9227   -1.0410   26.1244 H   0  0  0  0  0  0
   26.1561   -3.3421   26.4268 H   0  0  0  0  0  0
   31.4187    0.1077   24.5540 H   0  0  0  0  0  0
   31.6600   -1.4229   22.6581 H   0  0  0  0  0  0
   33.4879   -4.3020   25.2044 H   0  0  0  0  0  0
   32.3645   -3.5284   21.9294 H   0  0  0  0  0  0
  1  2  1  0  0  0
  1 27  1  0  0  0
  1 28  1  0  0  0
  1 29  1  0  0  0
  2  3  1  0  0  0
  2 30  1  0  0  0
  2 31  1  0  0  0
  3  4  1  0  0  0
  3 32  1  0  0  0
  3 33  1  0  0  0
  4  8  1  0  0  0
  4  5  1  0  0  0
  5  6  2  0  0  0
  5 34  1  0  0  0
  6  7  1  0  0  0
  7 25  1  0  0  0
  7  8  1  0  0  0
  7 17  1  0  0  0
  8 26  1  0  0  0
  8  9  1  0  0  0
  9 14  1  0  0  0
  9 10  2  0  0  0
 10 11  1  0  0  0
 10 35  1  0  0  0
 11 12  2  0  0  0
 11 36  1  0  0  0
 12 13  1  0  0  0
 12 16  1  0  0  0
 13 14  2  0  0  0
 13 37  1  0  0  0
 14 15  1  0  0  0
 16 38  1  0  0  0
 17 22  1  0  0  0
 17 18  2  0  0  0
 18 19  1  0  0  0
 18 39  1  0  0  0
 19 20  2  0  0  0
 19 40  1  0  0  0
 20 21  1  0  0  0
 20 24  1  0  0  0
 21 22  2  0  0  0
 21 41  1  0  0  0
 22 23  1  0  0  0
 24 42  1  0  0  0
M  END
> <s_m_entry_id>
17260

> <s_m_entry_name>
ligand_docking-pose.187

> <s_m_Source_Path>
/home/csk/Desktop/cluster/DUD-E-result/esr1

> <s_m_Source_File>
ligand_docking-pose.sdf

> <i_m_Source_File_Index>
187

> <i_lp_mmshare_version>
53161

> <i_f3d_flags>
0

> <r_lp_tautomer_probability>
0.99999999998839

> <s_lp_Force_Field>
OPLS_2005

> <r_lp_Energy>
28.511623

> <b_lp_Chiralities_Consistent>
1

> <s_lp_Variant>
286151-1

> <s_i_glide_gridfile>
glide-grid_1sj0

> <i_i_glide_lignum>
1524

> <i_i_glide_rotatable_bonds>
6

> <r_i_docking_score>
-9.15778674165172

> <r_i_glide_ligand_efficiency>
-0.381574447568821

> <r_i_glide_ligand_efficiency_sa>
-1.10065116492686

> <r_i_glide_ligand_efficiency_ln>
-2.1918785907287

> <r_i_glide_gscore>
-9.15778674165172

> <r_i_glide_lipo>
-4.66486117716374

> <r_i_glide_hbond>
-0.16

> <r_i_glide_metal>
0

> <r_i_glide_rewards>
-2.31636306965458

> <r_i_glide_evdw>
-36.6853294372559

> <r_i_glide_ecoul>
-4.09875965118408

> <r_i_glide_erotb>
0.432517924707008

> <r_i_glide_esite>
0

> <r_i_glide_emodel>
-45.5329325113909

> <r_i_glide_energy>
-40.7840890884399

> <r_i_glide_einternal>
6.26110506057739

> <i_i_glide_confnum>
5

> <i_i_glide_posenum>
30

> <r_i_glide_eff_state_penalty>
0

> <s_user_duplicate_titles>
286151

> <s_m_subgroup_title>
dock_pv

> <s_m_subgroupid>
dock_pv1

> <b_m_subgroup_collapsed>
0

$$$$
373272
                    3D
 Schrodinger Suite 2021-1.
 38 41  0  0  1  0            999 V2000
   27.7290   -0.3777   26.4779 C   0  0  0  0  0  0
   28.8142   -1.0004   25.8678 C   0  0  0  0  0  0
   30.1059   -0.6876   26.2995 C   0  0  0  0  0  0
   30.2583    0.2814   27.3153 C   0  0  0  0  0  0
   29.1842    1.0472   27.7864 C   0  0  0  0  0  0
   27.9211    0.6878   27.3474 C   0  0  0  0  0  0
   26.8600    1.4207   27.7808 O   0  0  0  0  0  0
   31.5851    0.1988   27.6923 N   0  0  0  0  0  0
   32.2678   -0.6220   26.8732 N   0  0  0  0  0  0
   31.4384   -1.1047   25.9905 C   0  0  0  0  0  0
   31.9343   -1.9716   24.8853 C   0  0  0  0  0  0
   31.4438   -1.7433   23.6015 C   0  0  0  0  0  0
   31.8637   -2.5420   22.5309 C   0  0  0  0  0  0
   32.8222   -3.5291   22.7273 C   0  0  0  0  0  0
   33.3358   -3.7417   24.0003 C   0  0  0  0  0  0
   32.8591   -3.0046   25.0825 C   0  0  0  0  0  0
   33.2599   -3.3408   26.3448 O   0  0  0  0  0  0
   33.2379   -4.3095   21.6848 O   0  0  0  0  0  0
   32.1715    0.6457   28.8877 C   0  0  0  0  0  0
   31.3542    0.8371   30.0107 C   0  0  0  0  0  0
   31.8901    1.2510   31.2139 C   0  0  0  0  0  0
   33.2554    1.4575   31.3233 C   0  0  0  0  0  0
   34.0779    1.2688   30.2112 C   0  0  0  0  0  0
   33.5476    0.8897   28.9881 C   0  0  0  0  0  0
   34.3793    0.7753   27.9264 F   0  0  0  0  0  0
   31.0732    1.4580   32.2639 F   0  0  0  0  0  0
   26.7266   -0.6685   26.2006 H   0  0  0  0  0  0
   28.6531   -1.7418   25.1074 H   0  0  0  0  0  0
   29.3034    1.8550   28.4914 H   0  0  0  0  0  0
   26.0323    1.2096   27.3368 H   0  0  0  0  0  0
   30.7133   -0.9610   23.4636 H   0  0  0  0  0  0
   31.4570   -2.3883   21.5431 H   0  0  0  0  0  0
   34.0589   -4.5252   24.1594 H   0  0  0  0  0  0
   32.8947   -2.7296   26.9894 H   0  0  0  0  0  0
   32.5823   -4.4162   20.9871 H   0  0  0  0  0  0
   30.2942    0.6582   29.9954 H   0  0  0  0  0  0
   33.6607    1.7938   32.2633 H   0  0  0  0  0  0
   35.1399    1.4577   30.2640 H   0  0  0  0  0  0
  1  6  1  0  0  0
  1  2  2  0  0  0
  1 27  1  0  0  0
  2  3  1  0  0  0
  2 28  1  0  0  0
  3 10  1  0  0  0
  3  4  2  0  0  0
  4  5  1  0  0  0
  4  8  1  0  0  0
  5  6  2  0  0  0
  5 29  1  0  0  0
  6  7  1  0  0  0
  7 30  1  0  0  0
  8  9  1  0  0  0
  8 19  1  0  0  0
  9 10  2  0  0  0
 10 11  1  0  0  0
 11 16  1  0  0  0
 11 12  2  0  0  0
 12 13  1  0  0  0
 12 31  1  0  0  0
 13 14  2  0  0  0
 13 32  1  0  0  0
 14 15  1  0  0  0
 14 18  1  0  0  0
 15 16  2  0  0  0
 15 33  1  0  0  0
 16 17  1  0  0  0
 17 34  1  0  0  0
 18 35  1  0  0  0
 19 24  1  0  0  0
 19 20  2  0  0  0
 20 21  1  0  0  0
 20 36  1  0  0  0
 21 22  2  0  0  0
 21 26  1  0  0  0
 22 23  1  0  0  0
 22 37  1  0  0  0
 23 24  2  0  0  0
 23 38  1  0  0  0
 24 25  1  0  0  0
M  END
> <s_m_entry_id>
17261

> <s_m_entry_name>
ligand_docking-pose.188

> <s_m_Source_Path>
/home/csk/Desktop/cluster/DUD-E-result/esr1

> <s_m_Source_File>
ligand_docking-pose.sdf

> <i_m_Source_File_Index>
188

> <i_lp_mmshare_version>
53161

> <i_f3d_flags>
0

> <r_lp_tautomer_probability>
0.999999999898

> <s_lp_Force_Field>
OPLS_2005

> <r_lp_Energy>
19.836328

> <b_lp_Chiralities_Consistent>
1

> <s_lp_Variant>
373272-1

> <s_i_glide_gridfile>
glide-grid_1sj0

> <i_i_glide_lignum>
33

> <i_i_glide_rotatable_bonds>
5

> <r_i_docking_score>
-9.15587004274462

> <r_i_glide_ligand_efficiency>
-0.35214884779787

> <r_i_glide_ligand_efficiency_sa>
-1.04323957596238

> <r_i_glide_ligand_efficiency_ln>
-2.15022603667856

> <r_i_glide_gscore>
-9.15587004274462

> <r_i_glide_lipo>
-4.88237570591015

> <r_i_glide_hbond>
-0.211621825396674

> <r_i_glide_metal>
0

> <r_i_glide_rewards>
-2.52729805065565

> <r_i_glide_evdw>
-27.0964679718018

> <r_i_glide_ecoul>
-3.22777795791626

> <r_i_glide_erotb>
0.304415631495378

> <r_i_glide_esite>
0

> <r_i_glide_emodel>
-47.2975908945552

> <r_i_glide_energy>
-30.324245929718

> <r_i_glide_einternal>
5.82065582275391

> <i_i_glide_confnum>
6

> <i_i_glide_posenum>
377

> <r_i_glide_eff_state_penalty>
0

> <s_user_duplicate_titles>
373272

> <s_m_subgroup_title>
dock_pv

> <s_m_subgroupid>
dock_pv1

> <b_m_subgroup_collapsed>
0

$$$$
357603
                    3D
 Schrodinger Suite 2021-1.
 45 49  0  0  1  0            999 V2000
   35.1406    1.6683   28.1067 C   0  0  0  0  0  0
   33.6829    1.3602   27.7127 C   0  0  0  0  0  0
   33.0521    0.0509   28.3121 C   0  0  1  0  0  0
   33.1628   -0.0225   29.8570 C   0  0  0  0  0  0
   32.2989    1.0500   30.5233 C   0  0  0  0  0  0
   30.8600    1.0080   30.0033 C   0  0  0  0  0  0
   29.9620    1.4580   30.6877 O   0  0  0  0  0  0
   30.5863    0.4442   28.6693 C   0  0  0  0  0  0
   31.5871   -0.0180   27.8957 C   0  0  0  0  0  0
   31.5514   -0.6453   26.5591 C   0  0  0  0  0  0
   30.5933   -0.6187   25.5434 C   0  0  0  0  0  0
   30.7940   -1.3135   24.3525 C   0  0  0  0  0  0
   31.9204   -2.1341   24.2407 C   0  0  0  0  0  0
   32.8594   -2.2146   25.2978 C   0  0  0  0  0  0
   32.7022   -1.4097   26.4415 C   0  0  0  0  0  0
   33.5702   -1.2160   27.6603 C   0  0  0  0  0  0
   33.8057   -3.1323   24.9695 N   0  0  0  0  0  0
   33.4128   -3.4937   23.7333 N   0  0  3  0  0  0
   32.3020   -2.9420   23.2171 N   0  0  0  0  0  0
   29.1904    0.1950   28.2636 C   0  0  0  0  0  0
   28.6863   -1.1129   28.2495 C   0  0  0  0  0  0
   27.3764   -1.3543   27.8460 C   0  0  0  0  0  0
   26.5729   -0.2875   27.4610 C   0  0  0  0  0  0
   27.0764    1.0119   27.4640 C   0  0  0  0  0  0
   28.3824    1.2543   27.8639 C   0  0  0  0  0  0
   25.2831   -0.5146   27.0639 O   0  0  0  0  0  0
   33.9318   -4.1829   23.2081 H   0  0  0  0  0  0
   35.4995    2.5590   27.5908 H   0  0  0  0  0  0
   35.2427    1.8578   29.1748 H   0  0  0  0  0  0
   35.8192    0.8571   27.8461 H   0  0  0  0  0  0
   33.6308    1.3264   26.6225 H   0  0  0  0  0  0
   33.0746    2.2222   27.9907 H   0  0  0  0  0  0
   32.8380   -1.0003   30.2193 H   0  0  0  0  0  0
   34.1994    0.0695   30.1810 H   0  0  0  0  0  0
   32.6847    2.0267   30.2556 H   0  0  0  0  0  0
   32.3039    0.9860   31.6115 H   0  0  0  0  0  0
   29.6991   -0.0217   25.6405 H   0  0  0  0  0  0
   30.0675   -1.2564   23.5570 H   0  0  0  0  0  0
   33.5566   -2.0916   28.3118 H   0  0  0  0  0  0
   34.5830   -0.9420   27.4640 H   0  0  0  0  0  0
   29.3124   -1.9431   28.5446 H   0  0  0  0  0  0
   26.9865   -2.3618   27.8261 H   0  0  0  0  0  0
   26.4600    1.8445   27.1728 H   0  0  0  0  0  0
   28.7712    2.2580   27.8667 H   0  0  0  0  0  0
   24.8600    0.3014   26.7710 H   0  0  0  0  0  0
  1  2  1  0  0  0
  1 28  1  0  0  0
  1 29  1  0  0  0
  1 30  1  0  0  0
  2  3  1  0  0  0
  2 31  1  0  0  0
  2 32  1  0  0  0
  3  9  1  0  0  0
  3 16  1  0  0  0
  3  4  1  0  0  0
  4  5  1  0  0  0
  4 33  1  0  0  0
  4 34  1  0  0  0
  5  6  1  0  0  0
  5 35  1  0  0  0
  5 36  1  0  0  0
  6  7  2  0  0  0
  6  8  1  0  0  0
  8  9  2  0  0  0
  8 20  1  0  0  0
  9 10  1  0  0  0
 10 15  2  0  0  0
 10 11  1  0  0  0
 11 12  2  0  0  0
 11 37  1  0  0  0
 12 13  1  0  0  0
 12 38  1  0  0  0
 13 14  1  0  0  0
 13 19  2  0  0  0
 14 15  1  0  0  0
 14 17  2  0  0  0
 15 16  1  0  0  0
 16 39  1  0  0  0
 16 40  1  0  0  0
 17 18  1  0  0  0
 18 27  1  0  0  0
 18 19  1  0  0  0
 20 25  2  0  0  0
 20 21  1  0  0  0
 21 22  2  0  0  0
 21 41  1  0  0  0
 22 23  1  0  0  0
 22 42  1  0  0  0
 23 24  2  0  0  0
 23 26  1  0  0  0
 24 25  1  0  0  0
 24 43  1  0  0  0
 25 44  1  0  0  0
 26 45  1  0  0  0
M  END
> <s_m_entry_id>
17262

> <s_m_entry_name>
ligand_docking-pose.189

> <s_m_Source_Path>
/home/csk/Desktop/cluster/DUD-E-result/esr1

> <s_m_Source_File>
ligand_docking-pose.sdf

> <i_m_Source_File_Index>
189

> <i_lp_mmshare_version>
53161

> <i_f3d_flags>
0

> <r_lp_tautomer_probability>
0.5

> <s_lp_Force_Field>
OPLS_2005

> <r_lp_Energy>
39.772359

> <b_lp_Chiralities_Consistent>
1

> <s_lp_Variant>
357603-2

> <s_i_glide_gridfile>
glide-grid_1sj0

> <i_i_glide_lignum>
1085

> <i_i_glide_rotatable_bonds>
3

> <r_i_docking_score>
-9.15168271533327

> <r_i_glide_ligand_efficiency>
-0.351987796743587

> <r_i_glide_ligand_efficiency_sa>
-1.04276246284778

> <r_i_glide_ligand_efficiency_ln>
-2.14924265657574

> <r_i_glide_gscore>
-9.15168271533327

> <r_i_glide_lipo>
-4.82433646003909

> <r_i_glide_hbond>
-0.32

> <r_i_glide_metal>
0

> <r_i_glide_rewards>
-2.30291501153821

> <r_i_glide_evdw>
-30.1795635223389

> <r_i_glide_ecoul>
-2.3647518157959

> <r_i_glide_erotb>
0.159259704730352

> <r_i_glide_esite>
0

> <r_i_glide_emodel>
-46.9981465410842

> <r_i_glide_energy>
-32.5443153381348

> <r_i_glide_einternal>
1.26467347145081

> <i_i_glide_confnum>
1

> <i_i_glide_posenum>
43

> <r_i_glide_eff_state_penalty>
0

> <s_user_duplicate_titles>
357603

> <s_m_subgroup_title>
dock_pv

> <s_m_subgroupid>
dock_pv1

> <b_m_subgroup_collapsed>
0

$$$$
224191
                    3D
 Schrodinger Suite 2021-1.
 33 34  0  0  1  0            999 V2000
   28.4494    0.1203   27.8640 C   0  0  0  0  0  0
   27.1238   -0.0012   27.4640 C   0  0  0  0  0  0
   26.6368   -1.2411   27.0640 C   0  0  0  0  0  0
   27.4617   -2.3650   27.0640 C   0  0  0  0  0  0
   28.7877   -2.2476   27.4780 C   0  0  0  0  0  0
   29.2787   -1.0041   27.8865 C   0  0  0  0  0  0
   30.7105   -0.8549   28.3838 C   0  0  0  0  0  0
   31.6635   -0.2245   27.3345 C   0  0  2  0  0  0
   32.0167   -1.2093   26.2100 C   0  0  0  0  0  0
   32.7473   -2.3731   26.4811 C   0  0  0  0  0  0
   33.0953   -3.2366   25.4458 C   0  0  0  0  0  0
   32.7146   -2.9420   24.1403 C   0  0  0  0  0  0
   31.9651   -1.8032   23.8640 C   0  0  0  0  0  0
   31.6104   -0.9426   24.8987 C   0  0  0  0  0  0
   33.0787   -3.7830   23.1249 O   0  0  0  0  0  0
   32.9099    0.4400   27.9771 C   0  0  0  0  0  0
   33.6600    1.0580   27.0640 F   0  0  0  0  0  0
   32.5467    1.3696   28.8624 F   0  0  0  0  0  0
   33.6825   -0.4338   28.6239 F   0  0  0  0  0  0
   25.3343   -1.3420   26.6640 O   0  0  0  0  0  0
   28.8236    1.0844   28.1766 H   0  0  0  0  0  0
   26.4751    0.8631   27.4572 H   0  0  0  0  0  0
   27.0781   -3.3238   26.7438 H   0  0  0  0  0  0
   29.4261   -3.1200   27.4800 H   0  0  0  0  0  0
   31.0940   -1.8101   28.7460 H   0  0  0  0  0  0
   30.6689   -0.2304   29.2777 H   0  0  0  0  0  0
   31.1237    0.6103   26.8827 H   0  0  0  0  0  0
   33.0582   -2.6071   27.4887 H   0  0  0  0  0  0
   33.6600   -4.1338   25.6498 H   0  0  0  0  0  0
   31.6600   -1.5836   22.8528 H   0  0  0  0  0  0
   31.0226   -0.0677   24.6733 H   0  0  0  0  0  0
   32.6884   -3.5616   22.2761 H   0  0  0  0  0  0
   25.1159   -2.2121   26.2649 H   0  0  0  0  0  0
  1  6  1  0  0  0
  1  2  2  0  0  0
  1 21  1  0  0  0
  2  3  1  0  0  0
  2 22  1  0  0  0
  3  4  2  0  0  0
  3 20  1  0  0  0
  4  5  1  0  0  0
  4 23  1  0  0  0
  5  6  2  0  0  0
  5 24  1  0  0  0
  6  7  1  0  0  0
  7  8  1  0  0  0
  7 25  1  0  0  0
  7 26  1  0  0  0
  8  9  1  0  0  0
  8 16  1  0  0  0
  8 27  1  0  0  0
  9 14  1  0  0  0
  9 10  2  0  0  0
 10 11  1  0  0  0
 10 28  1  0  0  0
 11 12  2  0  0  0
 11 29  1  0  0  0
 12 13  1  0  0  0
 12 15  1  0  0  0
 13 14  2  0  0  0
 13 30  1  0  0  0
 14 31  1  0  0  0
 15 32  1  0  0  0
 16 17  1  0  0  0
 16 18  1  0  0  0
 16 19  1  0  0  0
 20 33  1  0  0  0
M  END
> <s_m_entry_id>
17263

> <s_m_entry_name>
ligand_docking-pose.190

> <s_m_Source_Path>
/home/csk/Desktop/cluster/DUD-E-result/esr1

> <s_m_Source_File>
ligand_docking-pose.sdf

> <i_m_Source_File_Index>
190

> <i_lp_mmshare_version>
53161

> <i_f3d_flags>
0

> <r_lp_tautomer_probability>
0.99999999999473

> <s_lp_Force_Field>
OPLS_2005

> <r_lp_Energy>
13.098689

> <b_lp_Chiralities_Consistent>
1

> <s_lp_Variant>
224191-1

> <s_i_glide_gridfile>
glide-grid_1sj0

> <i_i_glide_lignum>
420

> <i_i_glide_rotatable_bonds>
6

> <r_i_docking_score>
-9.1214737938282

> <r_i_glide_ligand_efficiency>
-0.45607368969141

> <r_i_glide_ligand_efficiency_sa>
-1.23797445652759

> <r_i_glide_ligand_efficiency_ln>
-2.28280404425473

> <r_i_glide_gscore>
-9.1214737938282

> <r_i_glide_lipo>
-3.68073768865406

> <r_i_glide_hbond>
-0.180397442362408

> <r_i_glide_metal>
0

> <r_i_glide_rewards>
-3.27993980520878

> <r_i_glide_evdw>
-32.0003967285156

> <r_i_glide_ecoul>
-5.71487092971802

> <r_i_glide_erotb>
0.476851618280528

> <r_i_glide_esite>
0

> <r_i_glide_emodel>
-59.7048078012914

> <r_i_glide_energy>
-37.7152676582336

> <r_i_glide_einternal>
1.78086626529694

> <i_i_glide_confnum>
1

> <i_i_glide_posenum>
259

> <r_i_glide_eff_state_penalty>
0

> <s_user_duplicate_titles>
224191

> <s_m_subgroup_title>
dock_pv

> <s_m_subgroupid>
dock_pv1

> <b_m_subgroup_collapsed>
0

$$$$
6341
                    3D
 Schrodinger Suite 2021-1.
 58 60  0  0  1  0            999 V2000
   30.5847    1.0579   30.7602 C   0  0  0  0  0  0
   30.0520    0.9559   29.3192 C   0  0  0  0  0  0
   30.8557    0.0927   28.3266 C   0  0  0  0  0  0
   30.3654   -0.9496   27.5866 C   0  0  0  0  0  0
   28.9848   -1.4893   27.6808 C   0  0  0  0  0  0
   27.8627   -0.6641   27.5323 C   0  0  0  0  0  0
   26.5808   -1.1997   27.6182 C   0  0  0  0  0  0
   26.4207   -2.5673   27.8260 C   0  0  0  0  0  0
   27.5234   -3.4091   27.9202 C   0  0  0  0  0  0
   28.8013   -2.8660   27.8640 C   0  0  0  0  0  0
   31.1811   -1.6312   26.5383 C   0  0  0  0  0  0
   30.9257   -1.3419   25.1944 C   0  0  0  0  0  0
   31.6598   -1.9593   24.1860 C   0  0  0  0  0  0
   32.6094   -2.9373   24.5005 C   0  0  0  0  0  0
   32.8882   -3.1983   25.8419 C   0  0  0  0  0  0
   32.1928   -2.5418   26.8572 C   0  0  0  0  0  0
   33.3118   -3.6484   23.5467 O   0  0  0  0  0  0
   32.6286   -4.0475   22.3498 C   0  0  0  0  0  0
   33.5860   -4.3533   21.1778 C   0  0  0  0  0  0
   34.2630   -3.1633   20.6415 N   0  0  0  0  0  0
   35.4046   -2.7701   21.4647 C   0  0  0  0  0  0
   34.7428   -3.4392   19.2893 C   0  0  0  0  0  0
   32.2371    0.5652   28.1256 C   0  0  0  0  0  0
   33.2077    0.5113   29.1305 C   0  0  0  0  0  0
   34.4596    1.0693   28.9030 C   0  0  0  0  0  0
   34.7189    1.6808   27.6802 C   0  0  0  0  0  0
   33.7781    1.7045   26.6637 C   0  0  0  0  0  0
   32.5487    1.1158   26.8877 C   0  0  0  0  0  0
   35.9232    2.2579   27.4640 O   0  0  0  0  0  0
   29.8239    1.4579   31.4279 H   0  0  0  0  0  0
   30.8615    0.0778   31.1482 H   0  0  0  0  0  0
   31.4528    1.7138   30.8305 H   0  0  0  0  0  0
   30.0112    1.9635   28.9026 H   0  0  0  0  0  0
   29.0116    0.6579   29.3688 H   0  0  0  0  0  0
   27.9791    0.3931   27.3430 H   0  0  0  0  0  0
   25.7162   -0.5621   27.5047 H   0  0  0  0  0  0
   25.4273   -2.9910   27.8642 H   0  0  0  0  0  0
   27.3884   -4.4739   28.0425 H   0  0  0  0  0  0
   29.6534   -3.5247   27.9434 H   0  0  0  0  0  0
   30.1633   -0.6236   24.9284 H   0  0  0  0  0  0
   31.4537   -1.6824   23.1652 H   0  0  0  0  0  0
   33.6411   -3.9303   26.0899 H   0  0  0  0  0  0
   32.4321   -2.7558   27.8872 H   0  0  0  0  0  0
   32.0605   -4.9493   22.5842 H   0  0  0  0  0  0
   31.8961   -3.3282   21.9886 H   0  0  0  0  0  0
   34.3184   -5.1080   21.4639 H   0  0  0  0  0  0
   32.9841   -4.8135   20.3919 H   0  0  0  0  0  0
   35.8789   -1.8734   21.0630 H   0  0  0  0  0  0
   35.1102   -2.5420   22.4872 H   0  0  0  0  0  0
   36.1560   -3.5593   21.5030 H   0  0  0  0  0  0
   35.2338   -2.5623   18.8641 H   0  0  0  0  0  0
   35.4521   -4.2694   19.2725 H   0  0  0  0  0  0
   33.9111   -3.6924   18.6298 H   0  0  0  0  0  0
   33.0009    0.0476   30.0831 H   0  0  0  0  0  0
   35.2204    1.0460   29.6696 H   0  0  0  0  0  0
   34.0026    2.1479   25.7048 H   0  0  0  0  0  0
   31.8220    1.0580   26.1012 H   0  0  0  0  0  0
   36.0853    2.5586   26.5604 H   0  0  0  0  0  0
  1  2  1  0  0  0
  1 30  1  0  0  0
  1 31  1  0  0  0
  1 32  1  0  0  0
  2  3  1  0  0  0
  2 33  1  0  0  0
  2 34  1  0  0  0
  3  4  2  0  0  0
  3 23  1  0  0  0
  4  5  1  0  0  0
  4 11  1  0  0  0
  5 10  1  0  0  0
  5  6  2  0  0  0
  6  7  1  0  0  0
  6 35  1  0  0  0
  7  8  2  0  0  0
  7 36  1  0  0  0
  8  9  1  0  0  0
  8 37  1  0  0  0
  9 10  2  0  0  0
  9 38  1  0  0  0
 10 39  1  0  0  0
 11 16  1  0  0  0
 11 12  2  0  0  0
 12 13  1  0  0  0
 12 40  1  0  0  0
 13 14  2  0  0  0
 13 41  1  0  0  0
 14 15  1  0  0  0
 14 17  1  0  0  0
 15 16  2  0  0  0
 15 42  1  0  0  0
 16 43  1  0  0  0
 17 18  1  0  0  0
 18 19  1  0  0  0
 18 44  1  0  0  0
 18 45  1  0  0  0
 19 20  1  0  0  0
 19 46  1  0  0  0
 19 47  1  0  0  0
 20 21  1  0  0  0
 20 22  1  0  0  0
 21 48  1  0  0  0
 21 49  1  0  0  0
 21 50  1  0  0  0
 22 51  1  0  0  0
 22 52  1  0  0  0
 22 53  1  0  0  0
 23 28  1  0  0  0
 23 24  2  0  0  0
 24 25  1  0  0  0
 24 54  1  0  0  0
 25 26  2  0  0  0
 25 55  1  0  0  0
 26 27  1  0  0  0
 26 29  1  0  0  0
 27 28  2  0  0  0
 27 56  1  0  0  0
 28 57  1  0  0  0
 29 58  1  0  0  0
M  END
> <s_m_entry_id>
17264

> <s_m_entry_name>
ligand_docking-pose.191

> <s_m_Source_Path>
/home/csk/Desktop/cluster/DUD-E-result/esr1

> <s_m_Source_File>
ligand_docking-pose.sdf

> <i_m_Source_File_Index>
191

> <i_lp_mmshare_version>
53161

> <i_f3d_flags>
0

> <r_lp_tautomer_probability>
1

> <s_lp_Force_Field>
OPLS_2005

> <r_lp_Energy>
37.296372

> <b_lp_Chiralities_Consistent>
1

> <s_lp_Variant>
6341-1

> <s_i_glide_gridfile>
glide-grid_1sj0

> <i_i_glide_lignum>
1386

> <i_i_glide_rotatable_bonds>
9

> <r_i_docking_score>
-9.12113827243964

> <r_i_glide_ligand_efficiency>
-0.31452200939447

> <r_i_glide_ligand_efficiency_sa>
-0.966311260426534

> <r_i_glide_ligand_efficiency_ln>
-2.08850937227852

> <r_i_glide_gscore>
-9.12113827243964

> <r_i_glide_lipo>
-5.60925210043781

> <r_i_glide_hbond>
-0.32

> <r_i_glide_metal>
0

> <r_i_glide_rewards>
-1.38147165862115

> <r_i_glide_evdw>
-46.3633422851562

> <r_i_glide_ecoul>
-2.6669762134552

> <r_i_glide_erotb>
0.907799032895416

> <r_i_glide_esite>
0

> <r_i_glide_emodel>
-62.9183416466749

> <r_i_glide_energy>
-49.0303184986115

> <r_i_glide_einternal>
13.6260137557983

> <i_i_glide_confnum>
3

> <i_i_glide_posenum>
324

> <r_i_glide_eff_state_penalty>
0

> <s_user_duplicate_titles>
6341

> <s_m_subgroup_title>
dock_pv

> <s_m_subgroupid>
dock_pv1

> <b_m_subgroup_collapsed>
0

$$$$
93023
                    3D
 Schrodinger Suite 2021-1.
 62 64  0  0  1  0            999 V2000
   36.0087   -1.6365   19.5245 C   0  0  0  0  0  0
   34.9033   -2.5979   19.0444 C   0  0  0  0  0  0
   33.8735   -2.8544   20.0641 N   0  0  0  0  0  0
   32.7149   -3.5769   19.5089 C   0  0  0  0  0  0
   31.9670   -2.8069   18.4033 C   0  0  0  0  0  0
   34.4378   -3.5778   21.2213 C   0  0  0  0  0  0
   33.4814   -3.7743   22.4217 C   0  0  0  0  0  0
   32.8721   -2.5237   22.7185 O   0  0  0  0  0  0
   32.3859   -2.2333   23.9716 C   0  0  0  0  0  0
   32.7015   -2.9106   25.1597 C   0  0  0  0  0  0
   32.1503   -2.4814   26.3676 C   0  0  0  0  0  0
   31.2602   -1.4022   26.3855 C   0  0  0  0  0  0
   30.9377   -0.7470   25.2031 C   0  0  0  0  0  0
   31.5184   -1.1488   24.0141 C   0  0  0  0  0  0
   30.5975   -0.9412   27.6211 C   0  0  0  0  0  0
   31.2004   -0.0317   28.4294 C   0  0  0  0  0  0
   32.5421    0.5176   28.2171 C   0  0  0  0  0  0
   33.5956    0.0836   29.0222 C   0  0  0  0  0  0
   34.8602    0.6262   28.8458 C   0  0  0  0  0  0
   35.0706    1.5926   27.8645 C   0  0  0  0  0  0
   34.0209    2.0314   27.0628 C   0  0  0  0  0  0
   32.7505    1.5011   27.2522 C   0  0  0  0  0  0
   30.4608    0.6584   29.8717 Cl  0  0  0  0  0  0
   29.2566   -1.5508   27.8186 C   0  0  0  0  0  0
   29.1657   -2.9434   27.8521 C   0  0  0  0  0  0
   27.9493   -3.6050   27.9611 C   0  0  0  0  0  0
   26.7795   -2.8691   28.0473 C   0  0  0  0  0  0
   26.8337   -1.4725   27.9963 C   0  0  0  0  0  0
   28.0695   -0.8117   27.8912 C   0  0  0  0  0  0
   25.6641   -0.7771   28.1023 O   0  0  0  0  0  0
   25.2578   -0.1634   26.9001 C   0  0  0  0  0  0
   25.5933   -3.5163   28.2615 O   0  0  0  0  0  0
   36.6357   -1.3324   18.6864 H   0  0  0  0  0  0
   35.5840   -0.7319   19.9630 H   0  0  0  0  0  0
   36.6684   -2.0952   20.2606 H   0  0  0  0  0  0
   35.3391   -3.5361   18.6934 H   0  0  0  0  0  0
   34.4465   -2.1266   18.1746 H   0  0  0  0  0  0
   33.0064   -4.5655   19.1509 H   0  0  0  0  0  0
   31.9850   -3.7403   20.3015 H   0  0  0  0  0  0
   31.0039   -3.2772   18.2043 H   0  0  0  0  0  0
   31.7713   -1.7755   18.6946 H   0  0  0  0  0  0
   32.5161   -2.7973   17.4622 H   0  0  0  0  0  0
   35.2982   -3.0354   21.6090 H   0  0  0  0  0  0
   34.8153   -4.5445   20.8915 H   0  0  0  0  0  0
   34.0609   -4.1715   23.2507 H   0  0  0  0  0  0
   32.7136   -4.5180   22.2041 H   0  0  0  0  0  0
   33.3736   -3.7539   25.1756 H   0  0  0  0  0  0
   32.4030   -2.9938   27.2840 H   0  0  0  0  0  0
   30.2456    0.0825   25.2038 H   0  0  0  0  0  0
   31.2776   -0.6141   23.1136 H   0  0  0  0  0  0
   33.4368   -0.6684   29.7820 H   0  0  0  0  0  0
   35.6767    0.2913   29.4646 H   0  0  0  0  0  0
   36.0594    2.0027   27.7219 H   0  0  0  0  0  0
   34.1914    2.7768   26.3023 H   0  0  0  0  0  0
   31.9200    1.8547   26.6652 H   0  0  0  0  0  0
   30.0562   -3.5330   27.7631 H   0  0  0  0  0  0
   27.9216   -4.6841   27.9941 H   0  0  0  0  0  0
   28.1004    0.2673   27.8582 H   0  0  0  0  0  0
   24.2518    0.2330   27.0373 H   0  0  0  0  0  0
   25.9387    0.6570   26.6657 H   0  0  0  0  0  0
   25.2302   -0.8640   26.0629 H   0  0  0  0  0  0
   25.1906   -3.7406   27.4024 H   0  0  0  0  0  0
  1  2  1  0  0  0
  1 33  1  0  0  0
  1 34  1  0  0  0
  1 35  1  0  0  0
  2  3  1  0  0  0
  2 36  1  0  0  0
  2 37  1  0  0  0
  3  4  1  0  0  0
  3  6  1  0  0  0
  4  5  1  0  0  0
  4 38  1  0  0  0
  4 39  1  0  0  0
  5 40  1  0  0  0
  5 41  1  0  0  0
  5 42  1  0  0  0
  6  7  1  0  0  0
  6 43  1  0  0  0
  6 44  1  0  0  0
  7  8  1  0  0  0
  7 45  1  0  0  0
  7 46  1  0  0  0
  8  9  1  0  0  0
  9 14  1  0  0  0
  9 10  2  0  0  0
 10 11  1  0  0  0
 10 47  1  0  0  0
 11 12  2  0  0  0
 11 48  1  0  0  0
 12 13  1  0  0  0
 12 15  1  0  0  0
 13 14  2  0  0  0
 13 49  1  0  0  0
 14 50  1  0  0  0
 15 16  2  0  0  0
 15 24  1  0  0  0
 16 17  1  0  0  0
 16 23  1  0  0  0
 17 22  1  0  0  0
 17 18  2  0  0  0
 18 19  1  0  0  0
 18 51  1  0  0  0
 19 20  2  0  0  0
 19 52  1  0  0  0
 20 21  1  0  0  0
 20 53  1  0  0  0
 21 22  2  0  0  0
 21 54  1  0  0  0
 22 55  1  0  0  0
 24 29  1  0  0  0
 24 25  2  0  0  0
 25 26  1  0  0  0
 25 56  1  0  0  0
 26 27  2  0  0  0
 26 57  1  0  0  0
 27 28  1  0  0  0
 27 32  1  0  0  0
 28 29  2  0  0  0
 28 30  1  0  0  0
 29 58  1  0  0  0
 30 31  1  0  0  0
 31 59  1  0  0  0
 31 60  1  0  0  0
 31 61  1  0  0  0
 32 62  1  0  0  0
M  END
> <s_m_entry_id>
17265

> <s_m_entry_name>
ligand_docking-pose.192

> <s_m_Source_Path>
/home/csk/Desktop/cluster/DUD-E-result/esr1

> <s_m_Source_File>
ligand_docking-pose.sdf

> <i_m_Source_File_Index>
192

> <i_lp_mmshare_version>
53161

> <i_f3d_flags>
0

> <r_lp_tautomer_probability>
1

> <s_lp_Force_Field>
OPLS_2005

> <r_lp_Energy>
45.791442

> <b_lp_Chiralities_Consistent>
1

> <s_lp_Variant>
93023-1

> <s_i_glide_gridfile>
glide-grid_1sj0

> <i_i_glide_lignum>
1629

> <i_i_glide_rotatable_bonds>
11

> <r_i_docking_score>
-9.11730599888605

> <r_i_glide_ligand_efficiency>
-0.284915812465189

> <r_i_glide_ligand_efficiency_sa>
-0.904551319814252

> <r_i_glide_ligand_efficiency_ln>
-2.04161334152566

> <r_i_glide_gscore>
-9.11730599888605

> <r_i_glide_lipo>
-5.30734723924993

> <r_i_glide_hbond>
0

> <r_i_glide_metal>
0

> <r_i_glide_rewards>
-1.21243520082521

> <r_i_glide_evdw>
-48.1943016052246

> <r_i_glide_ecoul>
-5.8347635269165

> <r_i_glide_erotb>
0.687406050487799

> <r_i_glide_esite>
0

> <r_i_glide_emodel>
-81.4058315102199

> <r_i_glide_energy>
-54.0290651321411

> <r_i_glide_einternal>
6.95359468460083

> <i_i_glide_confnum>
24

> <i_i_glide_posenum>
6

> <r_i_glide_eff_state_penalty>
0

> <s_user_duplicate_titles>
93023

> <s_m_subgroup_title>
dock_pv

> <s_m_subgroupid>
dock_pv1

> <b_m_subgroup_collapsed>
0

$$$$
399910
                    3D
 Schrodinger Suite 2021-1.
 42 45  0  0  1  0            999 V2000
   27.1433   -1.4957   27.4475 C   0  0  0  0  0  0
   28.1520   -0.5869   26.7278 C   0  0  1  0  0  0
   28.6942    0.5586   27.5936 C   0  0  0  0  0  0
   30.1999    0.6954   27.2684 C   0  0  1  0  0  0
   31.1211    0.4305   28.4536 C   0  0  0  0  0  0
   30.9820    1.1572   29.6367 C   0  0  0  0  0  0
   31.8328    0.9417   30.7128 C   0  0  0  0  0  0
   32.8506    0.0018   30.6230 C   0  0  0  0  0  0
   33.0000   -0.7540   29.4623 C   0  0  0  0  0  0
   32.1374   -0.5409   28.3881 C   0  0  0  0  0  0
   32.2989   -1.3741   27.3044 O   0  0  0  0  0  0
   31.9512   -0.7883   26.0465 C   0  0  2  0  0  0
   30.4768   -0.2823   26.1075 C   0  0  1  0  0  0
   29.3855   -1.3403   26.2337 C   0  0  0  0  0  0
   32.2439   -1.7649   24.8941 C   0  0  0  0  0  0
   31.6298   -1.6176   23.6458 C   0  0  0  0  0  0
   31.8519   -2.5422   22.6273 C   0  0  0  0  0  0
   32.7240   -3.5992   22.8356 C   0  0  0  0  0  0
   33.3921   -3.7176   24.0471 C   0  0  0  0  0  0
   33.1478   -2.8168   25.0775 C   0  0  0  0  0  0
   32.9183   -4.5419   21.8638 O   0  0  0  0  0  0
   31.6602    1.6480   31.8640 O   0  0  0  0  0  0
   27.6601   -0.1501   25.8639 H   0  0  0  0  0  0
   30.4242    1.7020   26.9117 H   0  0  0  0  0  0
   32.6145    0.0602   25.8615 H   0  0  0  0  0  0
   30.2662    0.2594   25.1889 H   0  0  0  0  0  0
   27.6147   -2.0406   28.2638 H   0  0  0  0  0  0
   26.3096   -0.9227   27.8556 H   0  0  0  0  0  0
   26.7261   -2.2351   26.7619 H   0  0  0  0  0  0
   28.5033    0.3765   28.6525 H   0  0  0  0  0  0
   28.1626    1.4634   27.2925 H   0  0  0  0  0  0
   30.1915    1.8849   29.7161 H   0  0  0  0  0  0
   33.5098   -0.1422   31.4627 H   0  0  0  0  0  0
   33.7744   -1.5054   29.3992 H   0  0  0  0  0  0
   29.1846   -1.7420   25.2473 H   0  0  0  0  0  0
   29.6748   -2.1526   26.9030 H   0  0  0  0  0  0
   30.9458   -0.8060   23.4641 H   0  0  0  0  0  0
   31.3384   -2.4541   21.6815 H   0  0  0  0  0  0
   34.0600   -4.5418   24.2092 H   0  0  0  0  0  0
   33.6557   -2.9493   26.0211 H   0  0  0  0  0  0
   32.2107   -4.6488   21.2162 H   0  0  0  0  0  0
   30.9229    2.2593   31.8207 H   0  0  0  0  0  0
  1  2  1  0  0  0
  1 27  1  0  0  0
  1 28  1  0  0  0
  1 29  1  0  0  0
  2 23  1  0  0  0
  2 14  1  0  0  0
  2  3  1  0  0  0
  3  4  1  0  0  0
  3 30  1  0  0  0
  3 31  1  0  0  0
  4 24  1  0  0  0
  4 13  1  0  0  0
  4  5  1  0  0  0
  5 10  2  0  0  0
  5  6  1  0  0  0
  6  7  2  0  0  0
  6 32  1  0  0  0
  7  8  1  0  0  0
  7 22  1  0  0  0
  8  9  2  0  0  0
  8 33  1  0  0  0
  9 10  1  0  0  0
  9 34  1  0  0  0
 10 11  1  0  0  0
 11 12  1  0  0  0
 12 25  1  0  0  0
 12 13  1  0  0  0
 12 15  1  0  0  0
 13 26  1  0  0  0
 13 14  1  0  0  0
 14 35  1  0  0  0
 14 36  1  0  0  0
 15 20  1  0  0  0
 15 16  2  0  0  0
 16 17  1  0  0  0
 16 37  1  0  0  0
 17 18  2  0  0  0
 17 38  1  0  0  0
 18 19  1  0  0  0
 18 21  1  0  0  0
 19 20  2  0  0  0
 19 39  1  0  0  0
 20 40  1  0  0  0
 21 41  1  0  0  0
 22 42  1  0  0  0
M  END
> <s_m_entry_id>
17266

> <s_m_entry_name>
ligand_docking-pose.193

> <s_m_Source_Path>
/home/csk/Desktop/cluster/DUD-E-result/esr1

> <s_m_Source_File>
ligand_docking-pose.sdf

> <i_m_Source_File_Index>
193

> <i_lp_mmshare_version>
53161

> <i_f3d_flags>
0

> <r_lp_tautomer_probability>
0.999999999997365

> <s_lp_Force_Field>
OPLS_2005

> <r_lp_Energy>
32.629878

> <b_lp_Chiralities_Consistent>
1

> <s_lp_Variant>
399910-1

> <s_i_glide_gridfile>
glide-grid_1sj0

> <i_i_glide_lignum>
1565

> <i_i_glide_rotatable_bonds>
3

> <r_i_docking_score>
-9.11645282306199

> <r_i_glide_ligand_efficiency>
-0.41438421923009

> <r_i_glide_ligand_efficiency_sa>
-1.16112087908928

> <r_i_glide_ligand_efficiency_ln>
-2.22839360065265

> <r_i_glide_gscore>
-9.11645282306199

> <r_i_glide_lipo>
-5.0180237745592

> <r_i_glide_hbond>
-0.0481683894503293

> <r_i_glide_metal>
0

> <r_i_glide_rewards>
-2.16947689412659

> <r_i_glide_evdw>
-35.697078704834

> <r_i_glide_ecoul>
-2.03001189231873

> <r_i_glide_erotb>
0.208571954163642

> <r_i_glide_esite>
0

> <r_i_glide_emodel>
-54.597524809231

> <r_i_glide_energy>
-37.7270905971527

> <r_i_glide_einternal>
3.15460801124573

> <i_i_glide_confnum>
2

> <i_i_glide_posenum>
182

> <r_i_glide_eff_state_penalty>
0

> <s_user_duplicate_titles>
399910

> <s_m_subgroup_title>
dock_pv

> <s_m_subgroupid>
dock_pv1

> <b_m_subgroup_collapsed>
0

$$$$
350736
                    3D
 Schrodinger Suite 2021-1.
 38 41  0  0  1  0            999 V2000
   26.4608   -2.8216   27.8640 C   0  0  0  0  0  0
   27.7211   -3.4091   27.8640 C   0  0  0  0  0  0
   28.8324   -2.6572   27.4944 C   0  0  0  0  0  0
   28.6969   -1.3152   27.1040 C   0  0  0  0  0  0
   27.4108   -0.7528   27.0813 C   0  0  0  0  0  0
   26.3020   -1.4967   27.4697 C   0  0  0  0  0  0
   29.9282   -0.4883   26.6374 C   0  0  1  0  0  0
   29.8340    1.0090   27.0641 C   0  0  0  0  0  0
   29.8337    1.1582   28.6028 C   0  0  0  0  0  0
   30.9957    0.3980   29.2668 C   0  0  0  0  0  0
   31.3054    0.6370   30.4336 O   0  0  0  0  0  0
   31.6836   -0.6321   28.4665 C   0  0  0  0  0  0
   31.2605   -0.9945   27.2268 C   0  0  0  0  0  0
   31.8953   -1.8654   26.1996 C   0  0  0  0  0  0
   32.9952   -2.7294   26.2434 C   0  0  0  0  0  0
   33.4555   -3.3419   25.0714 C   0  0  0  0  0  0
   32.8330   -3.0927   23.8545 C   0  0  0  0  0  0
   31.7449   -2.2282   23.8038 C   0  0  0  0  0  0
   31.2642   -1.6478   24.9782 C   0  0  0  0  0  0
   30.1463   -0.6700   25.1303 C   0  0  0  0  0  0
   33.2910   -3.7102   22.7219 O   0  0  0  0  0  0
   32.8947   -1.1424   29.0055 C   0  0  0  0  0  0
   33.8738   -1.5423   29.4629 N   0  0  0  0  0  0
   25.5950   -3.4102   28.1320 H   0  0  0  0  0  0
   27.8374   -4.4467   28.1413 H   0  0  0  0  0  0
   29.7942   -3.1479   27.4863 H   0  0  0  0  0  0
   27.2451    0.2606   26.7506 H   0  0  0  0  0  0
   25.3167   -1.0553   27.4364 H   0  0  0  0  0  0
   28.9664    1.5050   26.6309 H   0  0  0  0  0  0
   30.6872    1.5598   26.6660 H   0  0  0  0  0  0
   28.9208    0.7075   28.9911 H   0  0  0  0  0  0
   29.8496    2.2007   28.9208 H   0  0  0  0  0  0
   33.5137   -2.9316   27.1682 H   0  0  0  0  0  0
   34.3015   -4.0115   25.0831 H   0  0  0  0  0  0
   31.2620   -2.0341   22.8588 H   0  0  0  0  0  0
   30.4310    0.2580   24.6634 H   0  0  0  0  0  0
   29.2600   -1.0270   24.6269 H   0  0  0  0  0  0
   32.7123   -3.6158   21.9612 H   0  0  0  0  0  0
  1  6  1  0  0  0
  1  2  2  0  0  0
  1 24  1  0  0  0
  2  3  1  0  0  0
  2 25  1  0  0  0
  3  4  2  0  0  0
  3 26  1  0  0  0
  4  5  1  0  0  0
  4  7  1  0  0  0
  5  6  2  0  0  0
  5 27  1  0  0  0
  6 28  1  0  0  0
  7 13  1  0  0  0
  7 20  1  0  0  0
  7  8  1  0  0  0
  8  9  1  0  0  0
  8 29  1  0  0  0
  8 30  1  0  0  0
  9 10  1  0  0  0
  9 31  1  0  0  0
  9 32  1  0  0  0
 10 11  2  0  0  0
 10 12  1  0  0  0
 12 13  2  0  0  0
 12 22  1  0  0  0
 13 14  1  0  0  0
 14 19  1  0  0  0
 14 15  2  0  0  0
 15 16  1  0  0  0
 15 33  1  0  0  0
 16 17  2  0  0  0
 16 34  1  0  0  0
 17 18  1  0  0  0
 17 21  1  0  0  0
 18 19  2  0  0  0
 18 35  1  0  0  0
 19 20  1  0  0  0
 20 36  1  0  0  0
 20 37  1  0  0  0
 21 38  1  0  0  0
 22 23  3  0  0  0
M  END
> <s_m_entry_id>
17267

> <s_m_entry_name>
ligand_docking-pose.194

> <s_m_Source_Path>
/home/csk/Desktop/cluster/DUD-E-result/esr1

> <s_m_Source_File>
ligand_docking-pose.sdf

> <i_m_Source_File_Index>
194

> <i_lp_mmshare_version>
53161

> <i_f3d_flags>
0

> <r_lp_tautomer_probability>
1

> <s_lp_Force_Field>
OPLS_2005

> <r_lp_Energy>
29.710527

> <b_lp_Chiralities_Consistent>
1

> <s_lp_Variant>
350736-2

> <s_i_glide_gridfile>
glide-grid_1sj0

> <i_i_glide_lignum>
152

> <i_i_glide_rotatable_bonds>
2

> <r_i_docking_score>
-9.10641099023111

> <r_i_glide_ligand_efficiency>
-0.395930912618744

> <r_i_glide_ligand_efficiency_sa>
-1.12597484752211

> <r_i_glide_ligand_efficiency_ln>
-2.20201274980749

> <r_i_glide_gscore>
-9.10641099023111

> <r_i_glide_lipo>
-4.39700404781678

> <r_i_glide_hbond>
0

> <r_i_glide_metal>
0

> <r_i_glide_rewards>
-2.91265176931812

> <r_i_glide_evdw>
-41.0445327758789

> <r_i_glide_ecoul>
0.352597892284393

> <r_i_glide_erotb>
0.20258178185507

> <r_i_glide_esite>
0

> <r_i_glide_emodel>
-60.77260407219

> <r_i_glide_energy>
-40.6919348835945

> <r_i_glide_einternal>
1.66578876972198

> <i_i_glide_confnum>
2

> <i_i_glide_posenum>
164

> <r_i_glide_eff_state_penalty>
0

> <s_user_duplicate_titles>
350736

> <s_m_subgroup_title>
dock_pv

> <s_m_subgroupid>
dock_pv1

> <b_m_subgroup_collapsed>
0

$$$$
11878
                    3D
 Schrodinger Suite 2021-1.
 60 61  0  0  1  0            999 V2000
   32.8565    1.7988   27.1688 C   0  0  0  0  0  0
   34.0361    1.3699   28.0511 C   0  0  0  0  0  0
   33.6381    0.5990   29.3275 C   0  0  0  0  0  0
   33.0121   -0.7884   29.0892 C   0  0  0  0  0  0
   31.5188   -0.7925   28.7728 C   0  0  0  0  0  0
   30.8978   -1.2309   27.6501 C   0  0  0  0  0  0
   29.4181   -1.1526   27.5257 C   0  0  0  0  0  0
   28.7325    0.0580   27.6953 C   0  0  0  0  0  0
   27.3597    0.1246   27.4583 C   0  0  0  0  0  0
   26.6663   -1.0185   27.0641 C   0  0  0  0  0  0
   27.3257   -2.2374   26.9556 C   0  0  0  0  0  0
   28.6956   -2.3037   27.1880 C   0  0  0  0  0  0
   25.3394   -0.9418   26.7384 O   0  0  0  0  0  0
   31.6004   -1.7982   26.4678 C   0  0  0  0  0  0
   32.5122   -2.8509   26.5872 C   0  0  0  0  0  0
   33.1703   -3.3406   25.4623 C   0  0  0  0  0  0
   32.9202   -2.8081   24.2015 C   0  0  0  0  0  0
   31.9963   -1.7604   24.0739 C   0  0  0  0  0  0
   31.3428   -1.2645   25.1978 C   0  0  0  0  0  0
   33.6323   -3.3601   23.1545 O   0  0  0  0  0  0
   33.4450   -2.8237   21.8479 C   0  0  0  0  0  0
   34.3719   -3.5214   20.8268 C   0  0  0  0  0  0
   34.5664   -2.7692   19.5719 N   0  0  0  0  0  0
   33.2766   -2.6016   18.8837 C   0  0  0  0  0  0
   33.3682   -2.0036   17.4745 C   0  0  0  0  0  0
   35.3075   -1.5040   19.7233 C   0  0  0  0  0  0
   36.6726   -1.6637   20.4132 C   0  0  0  0  0  0
   33.1721    2.5163   26.4092 H   0  0  0  0  0  0
   32.4257    0.9461   26.6432 H   0  0  0  0  0  0
   32.0656    2.2584   27.7638 H   0  0  0  0  0  0
   34.5958    2.2621   28.3384 H   0  0  0  0  0  0
   34.7347    0.7716   27.4642 H   0  0  0  0  0  0
   32.9853    1.2113   29.9514 H   0  0  0  0  0  0
   34.5483    0.4602   29.9127 H   0  0  0  0  0  0
   33.0977   -1.3523   30.0161 H   0  0  0  0  0  0
   33.6096   -1.3288   28.3578 H   0  0  0  0  0  0
   30.9013   -0.3937   29.5661 H   0  0  0  0  0  0
   29.2707    0.9578   27.9602 H   0  0  0  0  0  0
   26.8354    1.0649   27.5467 H   0  0  0  0  0  0
   26.7945   -3.1286   26.6563 H   0  0  0  0  0  0
   29.2040   -3.2505   27.0679 H   0  0  0  0  0  0
   25.0435   -1.7316   26.2650 H   0  0  0  0  0  0
   32.7261   -3.2884   27.5487 H   0  0  0  0  0  0
   33.8835   -4.1425   25.5515 H   0  0  0  0  0  0
   31.7689   -1.3204   23.1162 H   0  0  0  0  0  0
   30.6400   -0.4534   25.0797 H   0  0  0  0  0  0
   32.4054   -2.9536   21.5461 H   0  0  0  0  0  0
   33.6599   -1.7557   21.8739 H   0  0  0  0  0  0
   35.3358   -3.7443   21.2821 H   0  0  0  0  0  0
   33.9599   -4.5047   20.5851 H   0  0  0  0  0  0
   32.7940   -3.5788   18.8032 H   0  0  0  0  0  0
   32.6062   -1.9794   19.4760 H   0  0  0  0  0  0
   32.3603   -1.9486   17.0642 H   0  0  0  0  0  0
   33.7589   -0.9886   17.4725 H   0  0  0  0  0  0
   33.9802   -2.6167   16.8129 H   0  0  0  0  0  0
   35.5083   -1.0995   18.7314 H   0  0  0  0  0  0
   34.7064   -0.7557   20.2431 H   0  0  0  0  0  0
   37.2321   -0.7268   20.3774 H   0  0  0  0  0  0
   36.5697   -1.9334   21.4642 H   0  0  0  0  0  0
   37.2769   -2.4286   19.9222 H   0  0  0  0  0  0
  1  2  1  0  0  0
  1 28  1  0  0  0
  1 29  1  0  0  0
  1 30  1  0  0  0
  2  3  1  0  0  0
  2 31  1  0  0  0
  2 32  1  0  0  0
  3  4  1  0  0  0
  3 33  1  0  0  0
  3 34  1  0  0  0
  4  5  1  0  0  0
  4 35  1  0  0  0
  4 36  1  0  0  0
  5  6  2  0  0  0
  5 37  1  0  0  0
  6  7  1  0  0  0
  6 14  1  0  0  0
  7 12  1  0  0  0
  7  8  2  0  0  0
  8  9  1  0  0  0
  8 38  1  0  0  0
  9 10  2  0  0  0
  9 39  1  0  0  0
 10 11  1  0  0  0
 10 13  1  0  0  0
 11 12  2  0  0  0
 11 40  1  0  0  0
 12 41  1  0  0  0
 13 42  1  0  0  0
 14 19  1  0  0  0
 14 15  2  0  0  0
 15 16  1  0  0  0
 15 43  1  0  0  0
 16 17  2  0  0  0
 16 44  1  0  0  0
 17 18  1  0  0  0
 17 20  1  0  0  0
 18 19  2  0  0  0
 18 45  1  0  0  0
 19 46  1  0  0  0
 20 21  1  0  0  0
 21 22  1  0  0  0
 21 47  1  0  0  0
 21 48  1  0  0  0
 22 23  1  0  0  0
 22 49  1  0  0  0
 22 50  1  0  0  0
 23 24  1  0  0  0
 23 26  1  0  0  0
 24 25  1  0  0  0
 24 51  1  0  0  0
 24 52  1  0  0  0
 25 53  1  0  0  0
 25 54  1  0  0  0
 25 55  1  0  0  0
 26 27  1  0  0  0
 26 56  1  0  0  0
 26 57  1  0  0  0
 27 58  1  0  0  0
 27 59  1  0  0  0
 27 60  1  0  0  0
M  END
> <s_m_entry_id>
17268

> <s_m_entry_name>
ligand_docking-pose.195

> <s_m_Source_Path>
/home/csk/Desktop/cluster/DUD-E-result/esr1

> <s_m_Source_File>
ligand_docking-pose.sdf

> <i_m_Source_File_Index>
195

> <i_lp_mmshare_version>
53161

> <i_f3d_flags>
0

> <r_lp_tautomer_probability>
1

> <s_lp_Force_Field>
OPLS_2005

> <r_lp_Energy>
27.853856

> <b_lp_Chiralities_Consistent>
1

> <s_lp_Variant>
11878-1

> <s_i_glide_gridfile>
glide-grid_1sj0

> <i_i_glide_lignum>
1438

> <i_i_glide_rotatable_bonds>
12

> <r_i_docking_score>
-9.10479487271857

> <r_i_glide_ligand_efficiency>
-0.337214624915503

> <r_i_glide_ligand_efficiency_sa>
-1.0116438736351

> <r_i_glide_ligand_efficiency_ln>
-2.11944614209412

> <r_i_glide_gscore>
-9.10479487271857

> <r_i_glide_lipo>
-5.31105805131115

> <r_i_glide_hbond>
-0.157804755850523

> <r_i_glide_metal>
0

> <r_i_glide_rewards>
-1.78042522878497

> <r_i_glide_evdw>
-46.7951812744141

> <r_i_glide_ecoul>
-2.09484910964966

> <r_i_glide_erotb>
0.798479593396225

> <r_i_glide_esite>
0

> <r_i_glide_emodel>
-73.8866726964281

> <r_i_glide_energy>
-48.8900303840637

> <r_i_glide_einternal>
9.19947814941406

> <i_i_glide_confnum>
22

> <i_i_glide_posenum>
349

> <r_i_glide_eff_state_penalty>
0

> <s_user_duplicate_titles>
11878

> <s_m_subgroup_title>
dock_pv

> <s_m_subgroupid>
dock_pv1

> <b_m_subgroup_collapsed>
0

$$$$
373251
                    3D
 Schrodinger Suite 2021-1.
 38 41  0  0  1  0            999 V2000
   34.0600    1.1558   30.2126 C   0  0  0  0  0  0
   33.5179    0.7855   28.9955 C   0  0  0  0  0  0
   32.1394    0.6011   28.8961 C   0  0  0  0  0  0
   31.3234    0.8181   30.0135 C   0  0  0  0  0  0
   31.8730    1.2197   31.2144 C   0  0  0  0  0  0
   33.2453    1.3802   31.3221 C   0  0  0  0  0  0
   31.0642    1.4580   32.2640 F   0  0  0  0  0  0
   31.5679    0.1871   27.6894 N   0  0  0  0  0  0
   30.2473    0.2810   27.3061 C   0  0  0  0  0  0
   29.1788    1.0554   27.7737 C   0  0  0  0  0  0
   27.9160    0.7070   27.3288 C   0  0  0  0  0  0
   27.7210   -0.3599   26.4631 C   0  0  0  0  0  0
   28.8046   -0.9969   25.8639 C   0  0  0  0  0  0
   30.0969   -0.6872   26.2921 C   0  0  0  0  0  0
   31.4313   -1.1050   25.9847 C   0  0  0  0  0  0
   32.2602   -0.6181   26.8642 N   0  0  0  0  0  0
   31.9341   -1.9730   24.8850 C   0  0  0  0  0  0
   31.4505   -1.7436   23.5998 C   0  0  0  0  0  0
   31.8778   -2.5420   22.5315 C   0  0  0  0  0  0
   32.8376   -3.5273   22.7325 C   0  0  0  0  0  0
   33.3439   -3.7420   24.0084 C   0  0  0  0  0  0
   32.8602   -3.0044   25.0876 C   0  0  0  0  0  0
   33.2600   -3.3355   26.3515 O   0  0  0  0  0  0
   33.2605   -4.3057   21.6912 O   0  0  0  0  0  0
   26.8601    1.4508   27.7550 O   0  0  0  0  0  0
   35.1273    1.3121   30.2637 H   0  0  0  0  0  0
   34.1733    0.6382   28.1478 H   0  0  0  0  0  0
   30.2607    0.6582   29.9946 H   0  0  0  0  0  0
   33.6611    1.6922   32.2634 H   0  0  0  0  0  0
   29.3037    1.8636   28.4782 H   0  0  0  0  0  0
   26.7178   -0.6476   26.1858 H   0  0  0  0  0  0
   28.6440   -1.7420   25.1084 H   0  0  0  0  0  0
   30.7168   -0.9635   23.4641 H   0  0  0  0  0  0
   31.4763   -2.3881   21.5416 H   0  0  0  0  0  0
   34.0596   -4.5356   24.1714 H   0  0  0  0  0  0
   32.8711   -2.7391   26.9962 H   0  0  0  0  0  0
   32.6086   -4.4105   20.9902 H   0  0  0  0  0  0
   26.0305    1.2449   27.3117 H   0  0  0  0  0  0
  1  6  1  0  0  0
  1  2  2  0  0  0
  1 26  1  0  0  0
  2  3  1  0  0  0
  2 27  1  0  0  0
  3  4  2  0  0  0
  3  8  1  0  0  0
  4  5  1  0  0  0
  4 28  1  0  0  0
  5  6  2  0  0  0
  5  7  1  0  0  0
  6 29  1  0  0  0
  8 16  1  0  0  0
  8  9  1  0  0  0
  9 14  2  0  0  0
  9 10  1  0  0  0
 10 11  2  0  0  0
 10 30  1  0  0  0
 11 12  1  0  0  0
 11 25  1  0  0  0
 12 13  2  0  0  0
 12 31  1  0  0  0
 13 14  1  0  0  0
 13 32  1  0  0  0
 14 15  1  0  0  0
 15 16  2  0  0  0
 15 17  1  0  0  0
 17 22  1  0  0  0
 17 18  2  0  0  0
 18 19  1  0  0  0
 18 33  1  0  0  0
 19 20  2  0  0  0
 19 34  1  0  0  0
 20 21  1  0  0  0
 20 24  1  0  0  0
 21 22  2  0  0  0
 21 35  1  0  0  0
 22 23  1  0  0  0
 23 36  1  0  0  0
 24 37  1  0  0  0
 25 38  1  0  0  0
M  END
> <s_m_entry_id>
17269

> <s_m_entry_name>
ligand_docking-pose.196

> <s_m_Source_Path>
/home/csk/Desktop/cluster/DUD-E-result/esr1

> <s_m_Source_File>
ligand_docking-pose.sdf

> <i_m_Source_File_Index>
196

> <i_lp_mmshare_version>
53161

> <i_f3d_flags>
0

> <r_lp_tautomer_probability>
0.999999999898

> <s_lp_Force_Field>
OPLS_2005

> <r_lp_Energy>
25.400822

> <b_lp_Chiralities_Consistent>
1

> <s_lp_Variant>
373251-1

> <s_i_glide_gridfile>
glide-grid_1sj0

> <i_i_glide_lignum>
606

> <i_i_glide_rotatable_bonds>
5

> <r_i_docking_score>
-9.10374626896401

> <r_i_glide_ligand_efficiency>
-0.36414985075856

> <r_i_glide_ligand_efficiency_sa>
-1.06478062184313

> <r_i_glide_ligand_efficiency_ln>
-2.15786068300515

> <r_i_glide_gscore>
-9.10374626896401

> <r_i_glide_lipo>
-4.89133498934583

> <r_i_glide_hbond>
-0.235565134494586

> <r_i_glide_metal>
0

> <r_i_glide_rewards>
-2.3749308798733

> <r_i_glide_evdw>
-27.2168560028076

> <r_i_glide_ecoul>
-3.83330249786377

> <r_i_glide_erotb>
0.33392290956965

> <r_i_glide_esite>
0

> <r_i_glide_emodel>
-44.8084779490651

> <r_i_glide_energy>
-31.0501585006714

> <r_i_glide_einternal>
5.68029356002808

> <i_i_glide_confnum>
12

> <i_i_glide_posenum>
299

> <r_i_glide_eff_state_penalty>
0

> <s_user_duplicate_titles>
373251

> <s_m_subgroup_title>
dock_pv

> <s_m_subgroupid>
dock_pv1

> <b_m_subgroup_collapsed>
0

$$$$
160123
                    3D
 Schrodinger Suite 2021-1.
 45 48  0  0  1  0            999 V2000
   27.5160    1.6681   27.6372 C   0  0  0  0  0  0
   27.9348    0.7343   26.6640 O   0  0  0  0  0  0
   27.9172   -0.5787   27.0622 C   0  0  0  0  0  0
   26.7349   -1.1968   27.4868 C   0  0  0  0  0  0
   26.7433   -2.5384   27.8637 C   0  0  0  0  0  0
   27.9403   -3.2512   27.8641 C   0  0  0  0  0  0
   29.1213   -2.6325   27.4578 C   0  0  0  0  0  0
   29.1089   -1.3099   26.9908 C   0  0  0  0  0  0
   30.3432   -0.6336   26.3818 C   0  0  0  0  0  0
   31.5049   -1.5540   26.0310 C   0  0  0  0  0  0
   31.7994   -2.0379   24.7257 C   0  0  0  0  0  0
   31.2600   -1.8228   23.4640 C   0  0  0  0  0  0
   31.6963   -2.6228   22.3953 C   0  0  0  0  0  0
   32.6981   -3.5766   22.5643 C   0  0  0  0  0  0
   33.3165   -3.7420   23.7987 C   0  0  0  0  0  0
   32.8415   -2.9691   24.8607 C   0  0  0  0  0  0
   33.2600   -3.0215   26.1493 O   0  0  0  0  0  0
   32.5073   -2.1073   26.8281 C   0  0  0  0  0  0
   32.8601   -1.8847   28.2169 C   0  0  0  0  0  0
   33.4505   -2.7436   28.8666 O   0  0  0  0  0  0
   32.3829   -0.6466   28.8587 C   0  0  0  0  0  0
   31.6361   -0.7841   30.0300 C   0  0  0  0  0  0
   31.3242    0.3265   30.7909 C   0  0  0  0  0  0
   31.5940    1.5869   30.3019 C   0  0  0  0  0  0
   32.2285    1.7499   29.0747 C   0  0  0  0  0  0
   32.7110    0.6429   28.3934 C   0  0  0  0  0  0
   33.6600    0.9572   26.9824 Cl  0  0  0  0  0  0
   33.0606   -4.3886   21.5247 O   0  0  0  0  0  0
   27.6600    2.6574   27.2227 H   0  0  0  0  0  0
   26.4601    1.5612   27.8779 H   0  0  0  0  0  0
   28.1151    1.6003   28.5463 H   0  0  0  0  0  0
   25.8054   -0.6477   27.4923 H   0  0  0  0  0  0
   25.8238   -3.0268   28.1526 H   0  0  0  0  0  0
   27.9518   -4.2895   28.1623 H   0  0  0  0  0  0
   30.0257   -3.2214   27.4402 H   0  0  0  0  0  0
   30.6203    0.1809   27.0419 H   0  0  0  0  0  0
   30.0201   -0.1179   25.4765 H   0  0  0  0  0  0
   30.4354   -1.1347   23.3794 H   0  0  0  0  0  0
   31.2257   -2.5418   21.4261 H   0  0  0  0  0  0
   34.0600   -4.5044   23.9464 H   0  0  0  0  0  0
   31.2669   -1.7415   30.3617 H   0  0  0  0  0  0
   30.8599    0.2162   31.7526 H   0  0  0  0  0  0
   31.2865    2.4179   30.9016 H   0  0  0  0  0  0
   32.4159    2.7298   28.6641 H   0  0  0  0  0  0
   32.3282   -4.6887   20.9697 H   0  0  0  0  0  0
  1  2  1  0  0  0
  1 29  1  0  0  0
  1 30  1  0  0  0
  1 31  1  0  0  0
  2  3  1  0  0  0
  3  8  1  0  0  0
  3  4  2  0  0  0
  4  5  1  0  0  0
  4 32  1  0  0  0
  5  6  2  0  0  0
  5 33  1  0  0  0
  6  7  1  0  0  0
  6 34  1  0  0  0
  7  8  2  0  0  0
  7 35  1  0  0  0
  8  9  1  0  0  0
  9 10  1  0  0  0
  9 36  1  0  0  0
  9 37  1  0  0  0
 10 18  2  0  0  0
 10 11  1  0  0  0
 11 16  2  0  0  0
 11 12  1  0  0  0
 12 13  2  0  0  0
 12 38  1  0  0  0
 13 14  1  0  0  0
 13 39  1  0  0  0
 14 15  2  0  0  0
 14 28  1  0  0  0
 15 16  1  0  0  0
 15 40  1  0  0  0
 16 17  1  0  0  0
 17 18  1  0  0  0
 18 19  1  0  0  0
 19 20  2  0  0  0
 19 21  1  0  0  0
 21 26  1  0  0  0
 21 22  2  0  0  0
 22 23  1  0  0  0
 22 41  1  0  0  0
 23 24  2  0  0  0
 23 42  1  0  0  0
 24 25  1  0  0  0
 24 43  1  0  0  0
 25 26  2  0  0  0
 25 44  1  0  0  0
 26 27  1  0  0  0
 28 45  1  0  0  0
M  END
> <s_m_entry_id>
17270

> <s_m_entry_name>
ligand_docking-pose.197

> <s_m_Source_Path>
/home/csk/Desktop/cluster/DUD-E-result/esr1

> <s_m_Source_File>
ligand_docking-pose.sdf

> <i_m_Source_File_Index>
197

> <i_lp_mmshare_version>
53161

> <i_f3d_flags>
0

> <r_lp_tautomer_probability>
1

> <s_lp_Force_Field>
OPLS_2005

> <r_lp_Energy>
22.25317

> <b_lp_Chiralities_Consistent>
1

> <s_lp_Variant>
160123-1

> <s_i_glide_gridfile>
glide-grid_1sj0

> <i_i_glide_lignum>
1788

> <i_i_glide_rotatable_bonds>
6

> <r_i_docking_score>
-9.09699285583697

> <r_i_glide_ligand_efficiency>
-0.324892601994177

> <r_i_glide_ligand_efficiency_sa>
-0.986565291163695

> <r_i_glide_ligand_efficiency_ln>
-2.09985305044361

> <r_i_glide_gscore>
-9.09699285583697

> <r_i_glide_lipo>
-5.5811013929795

> <r_i_glide_hbond>
-0.0896494828882324

> <r_i_glide_metal>
0

> <r_i_glide_rewards>
-1.89902857282081

> <r_i_glide_evdw>
-35.7540626525879

> <r_i_glide_ecoul>
-1.63806390762329

> <r_i_glide_erotb>
0.506199311624458

> <r_i_glide_esite>
0

> <r_i_glide_emodel>
-42.1288508891603

> <r_i_glide_energy>
-37.3921265602112

> <r_i_glide_einternal>
9.92714691162109

> <i_i_glide_confnum>
6

> <i_i_glide_posenum>
18

> <r_i_glide_eff_state_penalty>
0

> <s_user_duplicate_titles>
160123

> <s_m_subgroup_title>
dock_pv

> <s_m_subgroupid>
dock_pv1

> <b_m_subgroup_collapsed>
0

$$$$
125526
                    3D
 Schrodinger Suite 2021-1.
 38 42  0  0  1  0            999 V2000
   32.9821   -2.9563   25.6057 C   0  0  0  0  0  0
   33.6205   -3.4720   24.4877 C   0  0  0  0  0  0
   33.1431   -3.1733   23.2204 C   0  0  0  0  0  0
   32.0603   -2.3142   23.0679 C   0  0  0  0  0  0
   31.4606   -1.7424   24.1916 C   0  0  0  0  0  0
   31.9051   -2.0737   25.4785 C   0  0  0  0  0  0
   31.2898   -1.5222   26.7124 C   0  0  0  0  0  0
   30.1799   -0.7595   26.8152 C   0  0  0  0  0  0
   29.0875   -0.1499   26.0789 C   0  0  0  0  0  0
   28.5876    0.8389   26.8612 C   0  0  0  0  0  0
   29.3836    0.8433   28.0707 C   0  0  0  0  0  0
   29.6567    1.7218   29.0542 C   0  0  0  0  0  0
   30.7936    1.4509   29.9445 C   0  0  0  0  0  0
   31.4611    0.2696   29.8981 C   0  0  0  0  0  0
   32.7916   -0.0041   30.5677 C   0  0  0  0  0  0
   33.8564   -0.3455   29.4867 C   0  0  0  0  0  0
   33.3081   -0.6535   28.0680 C   0  0  0  0  0  0
   32.0324   -1.5215   28.0656 C   0  0  1  0  0  0
   30.9756   -0.9107   29.0115 C   0  0  2  0  0  0
   30.0373   -0.3410   28.0760 N   0  0  0  0  0  0
   33.7357   -3.7447   22.1284 O   0  0  0  0  0  0
   33.3501   -3.2503   26.5760 H   0  0  0  0  0  0
   34.4554   -4.1398   24.6217 H   0  0  0  0  0  0
   31.6820   -2.0993   22.0810 H   0  0  0  0  0  0
   30.6363   -1.0644   24.0452 H   0  0  0  0  0  0
   28.8035   -0.3553   25.0632 H   0  0  0  0  0  0
   27.8385    1.5639   26.5784 H   0  0  0  0  0  0
   29.1817    2.6898   29.0653 H   0  0  0  0  0  0
   31.2288    2.2556   30.5178 H   0  0  0  0  0  0
   33.1209    0.8258   31.1940 H   0  0  0  0  0  0
   32.6519   -0.8598   31.2304 H   0  0  0  0  0  0
   34.5696    0.4764   29.4109 H   0  0  0  0  0  0
   34.4415   -1.1906   29.8534 H   0  0  0  0  0  0
   33.0984    0.2961   27.5710 H   0  0  0  0  0  0
   34.0602   -1.1447   27.4676 H   0  0  0  0  0  0
   32.2617   -2.5348   28.4199 H   0  0  0  0  0  0
   30.4845   -1.6827   29.6046 H   0  0  0  0  0  0
   33.2211   -3.6549   21.3237 H   0  0  0  0  0  0
  1  6  1  0  0  0
  1  2  2  0  0  0
  1 22  1  0  0  0
  2  3  1  0  0  0
  2 23  1  0  0  0
  3  4  2  0  0  0
  3 21  1  0  0  0
  4  5  1  0  0  0
  4 24  1  0  0  0
  5  6  2  0  0  0
  5 25  1  0  0  0
  6  7  1  0  0  0
  7 18  1  0  0  0
  7  8  2  0  0  0
  8 20  1  0  0  0
  8  9  1  0  0  0
  9 10  2  0  0  0
  9 26  1  0  0  0
 10 11  1  0  0  0
 10 27  1  0  0  0
 11 20  1  0  0  0
 11 12  2  0  0  0
 12 13  1  0  0  0
 12 28  1  0  0  0
 13 14  2  0  0  0
 13 29  1  0  0  0
 14 19  1  0  0  0
 14 15  1  0  0  0
 15 16  1  0  0  0
 15 30  1  0  0  0
 15 31  1  0  0  0
 16 17  1  0  0  0
 16 32  1  0  0  0
 16 33  1  0  0  0
 17 18  1  0  0  0
 17 34  1  0  0  0
 17 35  1  0  0  0
 18 19  1  0  0  0
 18 36  1  0  0  0
 19 20  1  0  0  0
 19 37  1  0  0  0
 21 38  1  0  0  0
M  END
> <s_m_entry_id>
17271

> <s_m_entry_name>
ligand_docking-pose.198

> <s_m_Source_Path>
/home/csk/Desktop/cluster/DUD-E-result/esr1

> <s_m_Source_File>
ligand_docking-pose.sdf

> <i_m_Source_File_Index>
198

> <i_lp_mmshare_version>
53161

> <i_f3d_flags>
0

> <r_lp_tautomer_probability>
1

> <s_lp_Force_Field>
OPLS_2005

> <r_lp_Energy>
82.135163

> <b_lp_Chiralities_Consistent>
1

> <s_lp_Variant>
125526-2

> <s_i_glide_gridfile>
glide-grid_1sj0

> <i_i_glide_lignum>
154

> <i_i_glide_rotatable_bonds>
2

> <r_i_docking_score>
-9.08963239857398

> <r_i_glide_ligand_efficiency>
-0.432839638027332

> <r_i_glide_ligand_efficiency_sa>
-1.19417174063777

> <r_i_glide_ligand_efficiency_ln>
-2.24739324321572

> <r_i_glide_gscore>
-9.08963239857398

> <r_i_glide_lipo>
-5.33429100922584

> <r_i_glide_hbond>
0

> <r_i_glide_metal>
0

> <r_i_glide_rewards>
-2.14717196970063

> <r_i_glide_evdw>
-37.3409461975098

> <r_i_glide_ecoul>
0.14544652402401

> <r_i_glide_erotb>
0.237060911624379

> <r_i_glide_esite>
0

> <r_i_glide_emodel>
-54.1770673958316

> <r_i_glide_energy>
-37.1954996734858

> <r_i_glide_einternal>
0.223831787705421

> <i_i_glide_confnum>
1

> <i_i_glide_posenum>
204

> <r_i_glide_eff_state_penalty>
0

> <s_user_duplicate_titles>
125526

> <s_m_subgroup_title>
dock_pv

> <s_m_subgroupid>
dock_pv1

> <b_m_subgroup_collapsed>
0

$$$$
398420
                    3D
 Schrodinger Suite 2021-1.
 39 42  0  0  1  0            999 V2000
   33.1640   -2.7913   25.0695 C   0  0  0  0  0  0
   33.3937   -3.7114   24.0493 C   0  0  0  0  0  0
   32.7207   -3.5980   22.8388 C   0  0  0  0  0  0
   31.8479   -2.5417   22.6276 C   0  0  0  0  0  0
   31.6507   -1.5953   23.6315 C   0  0  0  0  0  0
   32.2876   -1.7184   24.8679 C   0  0  0  0  0  0
   32.0352   -0.6742   25.9697 C   0  0  1  0  0  0
   30.5319   -0.3186   26.1561 C   0  0  1  0  0  0
   29.6415   -1.4541   26.6619 C   0  0  0  0  0  0
   28.3832   -0.7720   27.1933 C   0  0  0  0  0  0
   28.7853    0.6768   27.5100 C   0  0  0  0  0  0
   30.2991    0.7756   27.2041 C   0  0  1  0  0  0
   31.2376    0.5794   28.3956 C   0  0  0  0  0  0
   31.0286    1.2416   29.6078 C   0  0  0  0  0  0
   31.8922    1.0588   30.6816 C   0  0  0  0  0  0
   32.9923    0.2240   30.5619 C   0  0  0  0  0  0
   33.2224   -0.4587   29.3725 C   0  0  0  0  0  0
   32.3499   -0.2853   28.3005 C   0  0  0  0  0  0
   32.5946   -1.0992   27.2149 O   0  0  0  0  0  0
   31.6608    1.6931   31.8625 O   0  0  0  0  0  0
   27.4345   -0.8003   26.2639 F   0  0  0  0  0  0
   27.9516   -1.4196   28.2648 F   0  0  0  0  0  0
   32.9102   -4.5410   21.8653 O   0  0  0  0  0  0
   32.5761    0.2141   25.6367 H   0  0  0  0  0  0
   30.1213    0.0631   25.2212 H   0  0  0  0  0  0
   30.5492    1.7686   26.8280 H   0  0  0  0  0  0
   33.6679   -2.9184   26.0149 H   0  0  0  0  0  0
   34.0597   -4.5419   24.2112 H   0  0  0  0  0  0
   31.3265   -2.4606   21.6861 H   0  0  0  0  0  0
   30.9764   -0.7727   23.4610 H   0  0  0  0  0  0
   29.4251   -2.1414   25.8641 H   0  0  0  0  0  0
   30.1370   -2.0173   27.4551 H   0  0  0  0  0  0
   28.5240    0.9984   28.5165 H   0  0  0  0  0  0
   28.2617    1.3604   26.8393 H   0  0  0  0  0  0
   30.1781    1.8936   29.7174 H   0  0  0  0  0  0
   33.6529    0.0899   31.4024 H   0  0  0  0  0  0
   34.0602   -1.1363   29.2907 H   0  0  0  0  0  0
   30.8848    2.2563   31.8424 H   0  0  0  0  0  0
   32.2030   -4.6419   21.2154 H   0  0  0  0  0  0
  1  6  1  0  0  0
  1  2  2  0  0  0
  1 27  1  0  0  0
  2  3  1  0  0  0
  2 28  1  0  0  0
  3  4  2  0  0  0
  3 23  1  0  0  0
  4  5  1  0  0  0
  4 29  1  0  0  0
  5  6  2  0  0  0
  5 30  1  0  0  0
  6  7  1  0  0  0
  7 24  1  0  0  0
  7 19  1  0  0  0
  7  8  1  0  0  0
  8 25  1  0  0  0
  8 12  1  0  0  0
  8  9  1  0  0  0
  9 10  1  0  0  0
  9 31  1  0  0  0
  9 32  1  0  0  0
 10 11  1  0  0  0
 10 21  1  0  0  0
 10 22  1  0  0  0
 11 12  1  0  0  0
 11 33  1  0  0  0
 11 34  1  0  0  0
 12 26  1  0  0  0
 12 13  1  0  0  0
 13 18  2  0  0  0
 13 14  1  0  0  0
 14 15  2  0  0  0
 14 35  1  0  0  0
 15 16  1  0  0  0
 15 20  1  0  0  0
 16 17  2  0  0  0
 16 36  1  0  0  0
 17 18  1  0  0  0
 17 37  1  0  0  0
 18 19  1  0  0  0
 20 38  1  0  0  0
 23 39  1  0  0  0
M  END
> <s_m_entry_id>
17272

> <s_m_entry_name>
ligand_docking-pose.199

> <s_m_Source_Path>
/home/csk/Desktop/cluster/DUD-E-result/esr1

> <s_m_Source_File>
ligand_docking-pose.sdf

> <i_m_Source_File_Index>
199

> <i_lp_mmshare_version>
53161

> <i_f3d_flags>
0

> <r_lp_tautomer_probability>
0.999999999997365

> <s_lp_Force_Field>
OPLS_2005

> <r_lp_Energy>
33.289622

> <b_lp_Chiralities_Consistent>
1

> <s_lp_Variant>
398420-1

> <s_i_glide_gridfile>
glide-grid_1sj0

> <i_i_glide_lignum>
479

> <i_i_glide_rotatable_bonds>
3

> <r_i_docking_score>
-9.08529297498231

> <r_i_glide_ligand_efficiency>
-0.395012738042709

> <r_i_glide_ligand_efficiency_sa>
-1.12336368116632

> <r_i_glide_ligand_efficiency_ln>
-2.19690622223275

> <r_i_glide_gscore>
-9.08529297498231

> <r_i_glide_lipo>
-4.85914096980725

> <r_i_glide_hbond>
-0.0474782162251932

> <r_i_glide_metal>
0

> <r_i_glide_rewards>
-2.45060810132695

> <r_i_glide_evdw>
-32.9173889160156

> <r_i_glide_ecoul>
-1.77460932731628

> <r_i_glide_erotb>
0.183995157275312

> <r_i_glide_esite>
0

> <r_i_glide_emodel>
-50.4324753586428

> <r_i_glide_energy>
-34.6919982433319

> <r_i_glide_einternal>
1.88327383995056

> <i_i_glide_confnum>
1

> <i_i_glide_posenum>
207

> <r_i_glide_eff_state_penalty>
0

> <s_user_duplicate_titles>
398420

> <s_m_subgroup_title>
dock_pv

> <s_m_subgroupid>
dock_pv1

> <b_m_subgroup_collapsed>
0

$$$$
215700
                    3D
 Schrodinger Suite 2021-1.
 37 39  0  0  1  0            999 V2000
   35.3090    1.6245   27.8654 C   0  0  0  0  0  0
   34.8419    0.8069   28.8907 C   0  0  0  0  0  0
   33.4911    0.4816   28.9269 C   0  0  0  0  0  0
   32.6389    0.9940   27.9453 C   0  0  0  0  0  0
   33.1199    1.8387   26.9558 C   0  0  0  0  0  0
   34.4612    2.1303   26.8995 C   0  0  0  0  0  0
   31.2315    0.6043   27.8782 C   0  0  0  0  0  0
   30.2713    1.4578   28.4168 C   0  0  0  0  0  0
   28.9236    1.1590   28.2908 C   0  0  0  0  0  0
   28.5130   -0.0418   27.7102 C   0  0  0  0  0  0
   29.4925   -0.9143   27.1991 C   0  0  0  0  0  0
   30.8410   -0.5597   27.2013 C   0  0  0  0  0  0
   31.7850   -1.3900   26.4052 C   0  0  0  0  0  0
   32.4684   -2.4531   26.9915 C   0  0  0  0  0  0
   33.1758   -3.3428   26.1908 C   0  0  0  0  0  0
   33.2456   -3.1474   24.8149 C   0  0  0  0  0  0
   32.5910   -2.0717   24.2248 C   0  0  0  0  0  0
   31.8600   -1.1955   25.0214 C   0  0  0  0  0  0
   29.1513   -2.1413   26.6883 O   0  0  0  0  0  0
   27.0826   -0.3216   27.6485 C   0  0  0  0  0  0
   26.6198   -1.2763   26.9643 N   0  0  0  0  0  0
   25.2592   -1.3418   27.0638 O   0  0  0  0  0  0
   36.3585    1.8582   27.7896 H   0  0  0  0  0  0
   35.5253    0.4091   29.6266 H   0  0  0  0  0  0
   33.1164   -0.1820   29.6929 H   0  0  0  0  0  0
   32.4606    2.2308   26.2052 H   0  0  0  0  0  0
   34.8576    2.6944   26.0781 H   0  0  0  0  0  0
   30.5712    2.3740   28.9024 H   0  0  0  0  0  0
   28.2013    1.8705   28.6636 H   0  0  0  0  0  0
   32.4105   -2.6096   28.0578 H   0  0  0  0  0  0
   33.6588   -4.1983   26.6349 H   0  0  0  0  0  0
   33.7968   -3.8446   24.2002 H   0  0  0  0  0  0
   32.6351   -1.9280   23.1551 H   0  0  0  0  0  0
   31.3159   -0.3841   24.5593 H   0  0  0  0  0  0
   28.1927   -2.2474   26.6697 H   0  0  0  0  0  0
   26.4593    0.3473   28.2406 H   0  0  0  0  0  0
   25.0437   -2.0726   26.4576 H   0  0  0  0  0  0
  1  6  1  0  0  0
  1  2  2  0  0  0
  1 23  1  0  0  0
  2  3  1  0  0  0
  2 24  1  0  0  0
  3  4  2  0  0  0
  3 25  1  0  0  0
  4  5  1  0  0  0
  4  7  1  0  0  0
  5  6  2  0  0  0
  5 26  1  0  0  0
  6 27  1  0  0  0
  7 12  1  0  0  0
  7  8  2  0  0  0
  8  9  1  0  0  0
  8 28  1  0  0  0
  9 10  2  0  0  0
  9 29  1  0  0  0
 10 11  1  0  0  0
 10 20  1  0  0  0
 11 12  2  0  0  0
 11 19  1  0  0  0
 12 13  1  0  0  0
 13 18  1  0  0  0
 13 14  2  0  0  0
 14 15  1  0  0  0
 14 30  1  0  0  0
 15 16  2  0  0  0
 15 31  1  0  0  0
 16 17  1  0  0  0
 16 32  1  0  0  0
 17 18  2  0  0  0
 17 33  1  0  0  0
 18 34  1  0  0  0
 19 35  1  0  0  0
 20 21  2  0  0  0
 20 36  1  0  0  0
 21 22  1  0  0  0
 22 37  1  0  0  0
M  END
> <s_m_entry_id>
17273

> <s_m_entry_name>
ligand_docking-pose.200

> <s_m_Source_Path>
/home/csk/Desktop/cluster/DUD-E-result/esr1

> <s_m_Source_File>
ligand_docking-pose.sdf

> <i_m_Source_File_Index>
200

> <i_lp_mmshare_version>
53161

> <i_f3d_flags>
0

> <r_lp_tautomer_probability>
1

> <s_lp_Force_Field>
OPLS_2005

> <r_lp_Energy>
28.282144

> <b_lp_Chiralities_Consistent>
1

> <s_lp_Variant>
215700-1

> <s_i_glide_gridfile>
glide-grid_1sj0

> <i_i_glide_lignum>
338

> <i_i_glide_rotatable_bonds>
5

> <r_i_docking_score>
-9.08061476455305

> <r_i_glide_ligand_efficiency>
-0.412755216570593

> <r_i_glide_ligand_efficiency_sa>
-1.15655634957233

> <r_i_glide_ligand_efficiency_ln>
-2.21963347192812

> <r_i_glide_gscore>
-9.08061476455305

> <r_i_glide_lipo>
-4.53974980837241

> <r_i_glide_hbond>
-0.16

> <r_i_glide_metal>
0

> <r_i_glide_rewards>
-2.76627838116817

> <r_i_glide_evdw>
-33.5652503967285

> <r_i_glide_ecoul>
-3.24210000038147

> <r_i_glide_erotb>
0.60900137562836

> <r_i_glide_esite>
-0.0590104307471874

> <r_i_glide_emodel>
-40.0063854684036

> <r_i_glide_energy>
-36.80735039711

> <r_i_glide_einternal>
5.3213849067688

> <i_i_glide_confnum>
26

> <i_i_glide_posenum>
221

> <r_i_glide_eff_state_penalty>
0

> <s_user_duplicate_titles>
215700

> <s_m_subgroup_title>
dock_pv

> <s_m_subgroupid>
dock_pv1

> <b_m_subgroup_collapsed>
0

$$$$
630779
                    3D
 Schrodinger Suite 2021-1.
 31 33  0  0  1  0            999 V2000
   34.1359    1.9064   26.6629 C   0  0  0  0  0  0
   34.8971    1.8583   27.8301 C   0  0  0  0  0  0
   34.5604    0.9648   28.8444 C   0  0  0  0  0  0
   33.4482    0.1339   28.7054 C   0  0  0  0  0  0
   32.6782    0.1806   27.5303 C   0  0  0  0  0  0
   33.0451    1.0576   26.5103 C   0  0  0  0  0  0
   31.4282   -0.5891   27.3912 C   0  0  0  0  0  0
   30.1888    0.1475   27.7165 C   0  0  0  0  0  0
   30.1275    1.3449   28.0079 O   0  0  0  0  0  0
   28.9620   -0.6868   27.6536 C   0  0  0  0  0  0
   27.6899   -0.1417   27.8637 C   0  0  0  0  0  0
   26.5734   -0.9729   27.9074 C   0  0  0  0  0  0
   26.7270   -2.3462   27.7436 C   0  0  0  0  0  0
   27.9676   -2.8925   27.4637 C   0  0  0  0  0  0
   29.0699   -2.0568   27.4040 C   0  0  0  0  0  0
   30.2576   -2.6468   27.0637 O   0  0  0  0  0  0
   31.3882   -1.9016   27.0274 C   0  0  0  0  0  0
   32.5037   -2.8052   26.4847 C   0  0  0  0  0  0
   33.6015   -2.1420   26.2263 F   0  0  0  0  0  0
   32.8600   -3.7420   27.3527 F   0  0  0  0  0  0
   32.1136   -3.3420   25.3313 F   0  0  0  0  0  0
   25.6597   -3.1715   27.8640 O   0  0  0  0  0  0
   33.0299   -0.9203   30.0104 Cl  0  0  0  0  0  0
   34.4111    2.5813   25.8658 H   0  0  0  0  0  0
   35.7600    2.4993   27.9415 H   0  0  0  0  0  0
   35.1597    0.9267   29.7421 H   0  0  0  0  0  0
   32.4806    1.0580   25.5920 H   0  0  0  0  0  0
   27.5597    0.9207   28.0242 H   0  0  0  0  0  0
   25.5970   -0.5548   28.1002 H   0  0  0  0  0  0
   28.0824   -3.9523   27.2934 H   0  0  0  0  0  0
   25.2595   -3.3421   26.9798 H   0  0  0  0  0  0
  1  6  1  0  0  0
  1  2  2  0  0  0
  1 24  1  0  0  0
  2  3  1  0  0  0
  2 25  1  0  0  0
  3  4  2  0  0  0
  3 26  1  0  0  0
  4  5  1  0  0  0
  4 23  1  0  0  0
  5  6  2  0  0  0
  5  7  1  0  0  0
  6 27  1  0  0  0
  7 17  2  0  0  0
  7  8  1  0  0  0
  8  9  2  0  0  0
  8 10  1  0  0  0
 10 15  2  0  0  0
 10 11  1  0  0  0
 11 12  2  0  0  0
 11 28  1  0  0  0
 12 13  1  0  0  0
 12 29  1  0  0  0
 13 14  2  0  0  0
 13 22  1  0  0  0
 14 15  1  0  0  0
 14 30  1  0  0  0
 15 16  1  0  0  0
 16 17  1  0  0  0
 17 18  1  0  0  0
 18 19  1  0  0  0
 18 20  1  0  0  0
 18 21  1  0  0  0
 22 31  1  0  0  0
M  END
> <s_m_entry_id>
17274

> <s_m_entry_name>
ligand_docking-pose.201

> <s_m_Source_Path>
/home/csk/Desktop/cluster/DUD-E-result/esr1

> <s_m_Source_File>
ligand_docking-pose.sdf

> <i_m_Source_File_Index>
201

> <i_lp_mmshare_version>
53161

> <i_f3d_flags>
0

> <r_lp_tautomer_probability>
1

> <s_lp_Force_Field>
OPLS_2005

> <r_lp_Energy>
13.947988

> <b_lp_Chiralities_Consistent>
1

> <s_lp_Variant>
630779-1

> <s_i_glide_gridfile>
glide-grid_1sj0

> <i_i_glide_lignum>
363

> <i_i_glide_rotatable_bonds>
3

> <r_i_docking_score>
-9.04961791329034

> <r_i_glide_ligand_efficiency>
-0.393461648403928

> <r_i_glide_ligand_efficiency_sa>
-1.11895258856441

> <r_i_glide_ligand_efficiency_ln>
-2.18827966883206

> <r_i_glide_gscore>
-9.04961791329034

> <r_i_glide_lipo>
-3.77219148506985

> <r_i_glide_hbond>
-0.16

> <r_i_glide_metal>
0

> <r_i_glide_rewards>
-2.40057370495164

> <r_i_glide_evdw>
-30.4945297241211

> <r_i_glide_ecoul>
-9.03544330596924

> <r_i_glide_erotb>
0.163190258832587

> <r_i_glide_esite>
0

> <r_i_glide_emodel>
-55.6851269599938

> <r_i_glide_energy>
-39.5299730300903

> <r_i_glide_einternal>
6.09581708908081

> <i_i_glide_confnum>
2

> <i_i_glide_posenum>
229

> <r_i_glide_eff_state_penalty>
0

> <s_user_duplicate_titles>
630779

> <s_m_subgroup_title>
dock_pv

> <s_m_subgroupid>
dock_pv1

> <b_m_subgroup_collapsed>
0

$$$$
400562
                    3D
 Schrodinger Suite 2021-1.
 42 45  0  0  1  0            999 V2000
   33.6598   -1.9650   29.3088 C   0  0  0  0  0  0
   32.5911   -0.8965   29.4180 C   0  0  0  0  0  0
   32.4188   -0.1881   30.6042 C   0  0  0  0  0  0
   31.4449    0.7994   30.6847 C   0  0  0  0  0  0
   30.6570    1.1056   29.5756 C   0  0  0  0  0  0
   30.8130    0.4193   28.3676 C   0  0  0  0  0  0
   31.7851   -0.5976   28.3174 C   0  0  0  0  0  0
   31.9559   -1.4049   27.2154 O   0  0  0  0  0  0
   31.6700   -0.7970   25.9623 C   0  0  2  0  0  0
   30.1950   -0.2841   26.0014 C   0  0  2  0  0  0
   29.9900    0.7565   27.1183 C   0  0  1  0  0  0
   28.4670    0.7836   27.3099 C   0  0  0  0  0  0
   27.9973   -0.6570   27.0884 C   0  0  0  0  0  0
   29.1002   -1.3420   26.2640 C   0  0  0  0  0  0
   32.0174   -1.7759   24.8318 C   0  0  0  0  0  0
   31.3556   -1.7205   23.6072 C   0  0  0  0  0  0
   31.6600   -2.6202   22.5868 C   0  0  0  0  0  0
   32.6253   -3.5960   22.7946 C   0  0  0  0  0  0
   33.3230   -3.6373   23.9957 C   0  0  0  0  0  0
   33.0227   -2.7340   25.0119 C   0  0  0  0  0  0
   32.8764   -4.5416   21.8371 O   0  0  0  0  0  0
   31.2602    1.4579   31.8639 O   0  0  0  0  0  0
   32.3460    0.0470   25.8058 H   0  0  0  0  0  0
   29.9601    0.2375   25.0739 H   0  0  0  0  0  0
   30.3547    1.7442   26.8321 H   0  0  0  0  0  0
   33.2807   -2.8543   28.8040 H   0  0  0  0  0  0
   34.0596   -2.2889   30.2639 H   0  0  0  0  0  0
   34.4600   -1.5437   28.7112 H   0  0  0  0  0  0
   33.0330   -0.4069   31.4641 H   0  0  0  0  0  0
   29.9077    1.8771   29.6506 H   0  0  0  0  0  0
   28.1549    1.2056   28.2637 H   0  0  0  0  0  0
   28.0298    1.4551   26.5680 H   0  0  0  0  0  0
   27.0306   -0.6894   26.5836 H   0  0  0  0  0  0
   27.8763   -1.1653   28.0465 H   0  0  0  0  0  0
   28.7033   -1.7412   25.3338 H   0  0  0  0  0  0
   29.5015   -2.1891   26.8237 H   0  0  0  0  0  0
   30.5752   -0.9935   23.4639 H   0  0  0  0  0  0
   31.1193   -2.5861   21.6524 H   0  0  0  0  0  0
   34.0600   -4.4059   24.1575 H   0  0  0  0  0  0
   33.5623   -2.7961   25.9456 H   0  0  0  0  0  0
   32.1711   -4.7043   21.1973 H   0  0  0  0  0  0
   30.5883    2.1404   31.8101 H   0  0  0  0  0  0
  1  2  1  0  0  0
  1 26  1  0  0  0
  1 27  1  0  0  0
  1 28  1  0  0  0
  2  7  1  0  0  0
  2  3  2  0  0  0
  3  4  1  0  0  0
  3 29  1  0  0  0
  4  5  2  0  0  0
  4 22  1  0  0  0
  5  6  1  0  0  0
  5 30  1  0  0  0
  6 11  1  0  0  0
  6  7  2  0  0  0
  7  8  1  0  0  0
  8  9  1  0  0  0
  9 23  1  0  0  0
  9 10  1  0  0  0
  9 15  1  0  0  0
 10 24  1  0  0  0
 10 14  1  0  0  0
 10 11  1  0  0  0
 11 25  1  0  0  0
 11 12  1  0  0  0
 12 13  1  0  0  0
 12 31  1  0  0  0
 12 32  1  0  0  0
 13 14  1  0  0  0
 13 33  1  0  0  0
 13 34  1  0  0  0
 14 35  1  0  0  0
 14 36  1  0  0  0
 15 20  1  0  0  0
 15 16  2  0  0  0
 16 17  1  0  0  0
 16 37  1  0  0  0
 17 18  2  0  0  0
 17 38  1  0  0  0
 18 19  1  0  0  0
 18 21  1  0  0  0
 19 20  2  0  0  0
 19 39  1  0  0  0
 20 40  1  0  0  0
 21 41  1  0  0  0
 22 42  1  0  0  0
M  END
> <s_m_entry_id>
17275

> <s_m_entry_name>
ligand_docking-pose.202

> <s_m_Source_Path>
/home/csk/Desktop/cluster/DUD-E-result/esr1

> <s_m_Source_File>
ligand_docking-pose.sdf

> <i_m_Source_File_Index>
202

> <i_lp_mmshare_version>
53161

> <i_f3d_flags>
0

> <r_lp_tautomer_probability>
0.999999999997365

> <s_lp_Force_Field>
OPLS_2005

> <r_lp_Energy>
33.045036

> <b_lp_Chiralities_Consistent>
1

> <s_lp_Variant>
400562-1

> <s_i_glide_gridfile>
glide-grid_1sj0

> <i_i_glide_lignum>
968

> <i_i_glide_rotatable_bonds>
3

> <r_i_docking_score>
-9.04847706188657

> <r_i_glide_ligand_efficiency>
-0.411294411903935

> <r_i_glide_ligand_efficiency_sa>
-1.15246311744617

> <r_i_glide_ligand_efficiency_ln>
-2.21177784514524

> <r_i_glide_gscore>
-9.04847706188657

> <r_i_glide_lipo>
-4.9946958101711

> <r_i_glide_hbond>
-0.0780037227324408

> <r_i_glide_metal>
0

> <r_i_glide_rewards>
-2.2884525

> <r_i_glide_evdw>
-31.3874816894531

> <r_i_glide_ecoul>
-2.17681932449341

> <r_i_glide_erotb>
0.208571954163642

> <r_i_glide_esite>
0

> <r_i_glide_emodel>
-44.1840404879253

> <r_i_glide_energy>
-33.5643010139465

> <r_i_glide_einternal>
5.46886920928955

> <i_i_glide_confnum>
3

> <i_i_glide_posenum>
211

> <r_i_glide_eff_state_penalty>
0

> <s_user_duplicate_titles>
400562

> <s_m_subgroup_title>
dock_pv

> <s_m_subgroupid>
dock_pv1

> <b_m_subgroup_collapsed>
0

$$$$
341653
                    3D
 Schrodinger Suite 2021-1.
 35 37  0  0  1  0            999 V2000
   25.5318   -0.6228   27.1456 C   0  0  0  0  0  0
   26.8562   -1.2983   27.4628 C   0  0  0  0  0  0
   26.8319   -2.6672   27.7404 C   0  0  0  0  0  0
   27.9994   -3.3787   27.8940 C   0  0  0  0  0  0
   29.2047   -2.7135   27.8332 C   0  0  0  0  0  0
   29.2859   -1.3276   27.6374 C   0  0  0  0  0  0
   28.0842   -0.5985   27.4642 C   0  0  0  0  0  0
   28.1886    0.9262   27.3424 C   0  0  0  0  0  0
   29.2242    1.4479   28.3554 C   0  0  0  0  0  0
   30.5669    0.7583   28.1324 C   0  0  0  0  0  0
   30.6070   -0.5939   27.7136 C   0  0  0  0  0  0
   31.8640   -1.1758   27.4048 C   0  0  0  0  0  0
   33.0367   -0.4556   27.6549 C   0  0  0  0  0  0
   32.9904    0.8569   28.0937 C   0  0  0  0  0  0
   31.7619    1.4590   28.3179 C   0  0  0  0  0  0
   34.1489    1.5648   28.2672 O   0  0  0  0  0  0
   32.0056   -2.5017   26.7673 C   0  0  0  0  0  0
   32.9344   -3.4239   27.0640 C   0  0  0  0  0  0
   25.6605   -3.3456   27.8640 O   0  0  0  0  0  0
   24.9629   -1.2264   26.4360 H   0  0  0  0  0  0
   24.9290   -0.5421   28.0461 H   0  0  0  0  0  0
   25.6580    0.3360   26.6665 H   0  0  0  0  0  0
   27.9742   -4.4437   28.0749 H   0  0  0  0  0  0
   30.0580   -3.3379   27.9690 H   0  0  0  0  0  0
   27.2438    1.4304   27.5440 H   0  0  0  0  0  0
   28.4836    1.1950   26.3260 H   0  0  0  0  0  0
   28.8671    1.2719   29.3696 H   0  0  0  0  0  0
   29.3333    2.5264   28.2589 H   0  0  0  0  0  0
   33.9996   -0.9037   27.4660 H   0  0  0  0  0  0
   31.7406    2.4878   28.6445 H   0  0  0  0  0  0
   34.9422    1.0540   28.0865 H   0  0  0  0  0  0
   31.3022   -2.7219   25.9764 H   0  0  0  0  0  0
   33.6597   -3.2628   27.8477 H   0  0  0  0  0  0
   32.9771   -4.3613   26.5290 H   0  0  0  0  0  0
   25.2600   -3.4109   26.9657 H   0  0  0  0  0  0
  1  2  1  0  0  0
  1 20  1  0  0  0
  1 21  1  0  0  0
  1 22  1  0  0  0
  2  7  1  0  0  0
  2  3  2  0  0  0
  3  4  1  0  0  0
  3 19  1  0  0  0
  4  5  2  0  0  0
  4 23  1  0  0  0
  5  6  1  0  0  0
  5 24  1  0  0  0
  6 11  1  0  0  0
  6  7  2  0  0  0
  7  8  1  0  0  0
  8  9  1  0  0  0
  8 25  1  0  0  0
  8 26  1  0  0  0
  9 10  1  0  0  0
  9 27  1  0  0  0
  9 28  1  0  0  0
 10 15  2  0  0  0
 10 11  1  0  0  0
 11 12  2  0  0  0
 12 13  1  0  0  0
 12 17  1  0  0  0
 13 14  2  0  0  0
 13 29  1  0  0  0
 14 15  1  0  0  0
 14 16  1  0  0  0
 15 30  1  0  0  0
 16 31  1  0  0  0
 17 18  2  0  0  0
 17 32  1  0  0  0
 18 33  1  0  0  0
 18 34  1  0  0  0
 19 35  1  0  0  0
M  END
> <s_m_entry_id>
17276

> <s_m_entry_name>
ligand_docking-pose.203

> <s_m_Source_Path>
/home/csk/Desktop/cluster/DUD-E-result/esr1

> <s_m_Source_File>
ligand_docking-pose.sdf

> <i_m_Source_File_Index>
203

> <i_lp_mmshare_version>
53161

> <i_f3d_flags>
0

> <r_lp_tautomer_probability>
0.999999999997365

> <s_lp_Force_Field>
OPLS_2005

> <r_lp_Energy>
22.883148

> <b_lp_Chiralities_Consistent>
1

> <s_lp_Variant>
341653-1

> <s_i_glide_gridfile>
glide-grid_1sj0

> <i_i_glide_lignum>
957

> <i_i_glide_rotatable_bonds>
3

> <r_i_docking_score>
-9.03496498450811

> <r_i_glide_ligand_efficiency>
-0.475524472868848

> <r_i_glide_ligand_efficiency_sa>
-1.26889028616548

> <r_i_glide_ligand_efficiency_ln>
-2.2905576768277

> <r_i_glide_gscore>
-9.03496498450811

> <r_i_glide_lipo>
-3.82658166540381

> <r_i_glide_hbond>
-0.16

> <r_i_glide_metal>
0

> <r_i_glide_rewards>
-2.57161362954975

> <r_i_glide_evdw>
-30.0590000152588

> <r_i_glide_ecoul>
-8.32960891723633

> <r_i_glide_erotb>
0.275621648793833

> <r_i_glide_esite>
0

> <r_i_glide_emodel>
-51.4149070604925

> <r_i_glide_energy>
-38.3886089324951

> <r_i_glide_einternal>
3.25640153884888

> <i_i_glide_confnum>
2

> <i_i_glide_posenum>
1

> <r_i_glide_eff_state_penalty>
0

> <s_user_duplicate_titles>
341653

> <s_m_subgroup_title>
dock_pv

> <s_m_subgroupid>
dock_pv1

> <b_m_subgroup_collapsed>
0

$$$$
92415
                    3D
 Schrodinger Suite 2021-1.
 33 35  0  0  1  0            999 V2000
   33.5426   -3.3419   24.9032 C   0  0  0  0  0  0
   33.0724   -2.5861   25.9741 C   0  0  0  0  0  0
   32.0331   -1.6651   25.7980 C   0  0  0  0  0  0
   31.4322   -1.5608   24.5323 C   0  0  0  0  0  0
   31.9140   -2.3165   23.4606 C   0  0  0  0  0  0
   32.9665   -3.2080   23.6448 C   0  0  0  0  0  0
   33.4253   -3.9706   22.6055 O   0  0  0  0  0  0
   30.0617   -0.5420   24.2660 Cl  0  0  0  0  0  0
   31.5809   -0.7781   26.9642 C   0  0  1  0  0  0
   30.5750   -1.4017   27.9563 C   0  0  1  0  0  0
   31.0279   -1.0756   29.2927 N   0  0  0  0  0  0
   32.1708   -0.5423   29.1680 C   0  0  0  0  0  0
   32.6350   -0.4115   27.8839 N   0  0  0  0  0  0
   29.0817   -1.0418   27.7705 C   0  0  0  0  0  0
   28.6388    0.3022   27.7058 C   0  0  0  0  0  0
   27.2963    0.5926   27.4640 C   0  0  0  0  0  0
   26.3708   -0.4303   27.3060 C   0  0  0  0  0  0
   26.7762   -1.7502   27.4085 C   0  0  0  0  0  0
   28.1092   -2.0626   27.6573 C   0  0  0  0  0  0
   28.4635   -3.7419   27.8641 Cl  0  0  0  0  0  0
   25.0573   -0.1420   27.0639 O   0  0  0  0  0  0
   29.6808    1.6638   27.9545 Cl  0  0  0  0  0  0
   33.3114    0.2275   27.4921 H   0  0  0  0  0  0
   30.6823   -2.4838   27.8752 H   0  0  0  0  0  0
   34.3491   -4.0434   25.0550 H   0  0  0  0  0  0
   33.5342   -2.7069   26.9427 H   0  0  0  0  0  0
   31.4477   -2.2294   22.4911 H   0  0  0  0  0  0
   32.8661   -3.9547   21.8242 H   0  0  0  0  0  0
   31.2051    0.1502   26.5392 H   0  0  0  0  0  0
   32.7881   -0.2073   29.9974 H   0  0  0  0  0  0
   26.9741    1.6220   27.4076 H   0  0  0  0  0  0
   26.0490   -2.5421   27.2950 H   0  0  0  0  0  0
   24.8592    0.8104   27.0629 H   0  0  0  0  0  0
  1  6  1  0  0  0
  1  2  2  0  0  0
  1 25  1  0  0  0
  2  3  1  0  0  0
  2 26  1  0  0  0
  3  4  2  0  0  0
  3  9  1  0  0  0
  4  5  1  0  0  0
  4  8  1  0  0  0
  5  6  2  0  0  0
  5 27  1  0  0  0
  6  7  1  0  0  0
  7 28  1  0  0  0
  9 10  1  0  0  0
  9 29  1  0  0  0
  9 13  1  0  0  0
 10 11  1  0  0  0
 10 14  1  0  0  0
 10 24  1  0  0  0
 11 12  2  0  0  0
 12 13  1  0  0  0
 12 30  1  0  0  0
 13 23  1  0  0  0
 14 19  1  0  0  0
 14 15  2  0  0  0
 15 16  1  0  0  0
 15 22  1  0  0  0
 16 17  2  0  0  0
 16 31  1  0  0  0
 17 18  1  0  0  0
 17 21  1  0  0  0
 18 19  2  0  0  0
 18 32  1  0  0  0
 19 20  1  0  0  0
 21 33  1  0  0  0
M  END
> <s_m_entry_id>
17277

> <s_m_entry_name>
ligand_docking-pose.204

> <s_m_Source_Path>
/home/csk/Desktop/cluster/DUD-E-result/esr1

> <s_m_Source_File>
ligand_docking-pose.sdf

> <i_m_Source_File_Index>
204

> <i_lp_mmshare_version>
53161

> <i_f3d_flags>
0

> <r_lp_tautomer_probability>
0.499999999997097

> <s_lp_Force_Field>
OPLS_2005

> <r_lp_Energy>
28.779076

> <b_lp_Chiralities_Consistent>
1

> <s_lp_Variant>
92415-3

> <s_i_glide_gridfile>
glide-grid_1sj0

> <i_i_glide_lignum>
667

> <i_i_glide_rotatable_bonds>
4

> <r_i_docking_score>
-9.03358893496025

> <r_i_glide_ligand_efficiency>
-0.410617678861829

> <r_i_glide_ligand_efficiency_sa>
-1.15056688484779

> <r_i_glide_ligand_efficiency_ln>
-2.20813864386683

> <r_i_glide_gscore>
-9.03358893496025

> <r_i_glide_lipo>
-4.25759817098611

> <r_i_glide_hbond>
-0.32

> <r_i_glide_metal>
0

> <r_i_glide_rewards>
-1.82421105101817

> <r_i_glide_evdw>
-38.3634567260742

> <r_i_glide_ecoul>
-6.75347805023193

> <r_i_glide_erotb>
0.299414830882532

> <r_i_glide_esite>
0

> <r_i_glide_emodel>
-68.7861490027864

> <r_i_glide_energy>
-45.1169347763062

> <r_i_glide_einternal>
1.254429936409

> <i_i_glide_confnum>
1

> <i_i_glide_posenum>
192

> <r_i_glide_eff_state_penalty>
0

> <s_user_duplicate_titles>
92415

> <s_m_subgroup_title>
dock_pv

> <s_m_subgroupid>
dock_pv1

> <b_m_subgroup_collapsed>
0

$$$$
399908
                    3D
 Schrodinger Suite 2021-1.
 42 45  0  0  1  0            999 V2000
   33.1505   -2.8093   25.0805 C   0  0  0  0  0  0
   33.3977   -3.7154   24.0544 C   0  0  0  0  0  0
   32.7403   -3.5987   22.8373 C   0  0  0  0  0  0
   31.8710   -2.5420   22.6222 C   0  0  0  0  0  0
   31.6507   -1.6088   23.6350 C   0  0  0  0  0  0
   32.2551   -1.7520   24.8855 C   0  0  0  0  0  0
   31.9471   -0.7644   26.0222 C   0  0  1  0  0  0
   30.4410   -0.3751   26.1421 C   0  0  1  0  0  0
   29.4685   -1.5332   26.4353 C   0  0  0  0  0  0
   28.5125   -1.0952   27.5623 C   0  0  1  0  0  0
   28.6930    0.4272   27.6104 C   0  0  0  0  0  0
   30.1733    0.6482   27.2575 C   0  0  1  0  0  0
   31.1296    0.4537   28.4378 C   0  0  0  0  0  0
   30.9716    1.1621   29.6310 C   0  0  0  0  0  0
   31.8299    0.9542   30.7059 C   0  0  0  0  0  0
   32.8602    0.0304   30.6108 C   0  0  0  0  0  0
   33.0426   -0.6913   29.4362 C   0  0  0  0  0  0
   32.1866   -0.4756   28.3596 C   0  0  0  0  0  0
   32.3867   -1.2959   27.2746 O   0  0  0  0  0  0
   31.6599    1.6479   31.8639 O   0  0  0  0  0  0
   27.0601   -1.5954   27.3853 C   0  0  0  0  0  0
   26.5704   -1.3419   26.1754 F   0  0  0  0  0  0
   27.0020   -2.9142   27.5728 F   0  0  0  0  0  0
   26.2376   -1.0285   28.2672 F   0  0  0  0  0  0
   32.9397   -4.5414   21.8641 O   0  0  0  0  0  0
   32.5364    0.1246   25.7867 H   0  0  0  0  0  0
   30.1211    0.1144   25.2215 H   0  0  0  0  0  0
   28.8790   -1.5052   28.5065 H   0  0  0  0  0  0
   30.3532    1.6743   26.9332 H   0  0  0  0  0  0
   33.6521   -2.9442   26.0281 H   0  0  0  0  0  0
   34.0600   -4.5417   24.2281 H   0  0  0  0  0  0
   31.3610   -2.4562   21.6750 H   0  0  0  0  0  0
   30.9664   -0.7938   23.4638 H   0  0  0  0  0  0
   28.9196   -1.7420   25.5188 H   0  0  0  0  0  0
   29.9986   -2.4474   26.7139 H   0  0  0  0  0  0
   28.4422    0.8533   28.5808 H   0  0  0  0  0  0
   28.0475    0.9556   26.9051 H   0  0  0  0  0  0
   30.1576    1.8608   29.7264 H   0  0  0  0  0  0
   33.5135   -0.1315   31.4524 H   0  0  0  0  0  0
   33.8309   -1.4260   29.3687 H   0  0  0  0  0  0
   30.9204    2.2574   31.8311 H   0  0  0  0  0  0
   32.2338   -4.6457   21.2142 H   0  0  0  0  0  0
  1  6  1  0  0  0
  1  2  2  0  0  0
  1 30  1  0  0  0
  2  3  1  0  0  0
  2 31  1  0  0  0
  3  4  2  0  0  0
  3 25  1  0  0  0
  4  5  1  0  0  0
  4 32  1  0  0  0
  5  6  2  0  0  0
  5 33  1  0  0  0
  6  7  1  0  0  0
  7 26  1  0  0  0
  7 19  1  0  0  0
  7  8  1  0  0  0
  8 27  1  0  0  0
  8 12  1  0  0  0
  8  9  1  0  0  0
  9 10  1  0  0  0
  9 34  1  0  0  0
  9 35  1  0  0  0
 10 28  1  0  0  0
 10 11  1  0  0  0
 10 21  1  0  0  0
 11 12  1  0  0  0
 11 36  1  0  0  0
 11 37  1  0  0  0
 12 29  1  0  0  0
 12 13  1  0  0  0
 13 18  2  0  0  0
 13 14  1  0  0  0
 14 15  2  0  0  0
 14 38  1  0  0  0
 15 16  1  0  0  0
 15 20  1  0  0  0
 16 17  2  0  0  0
 16 39  1  0  0  0
 17 18  1  0  0  0
 17 40  1  0  0  0
 18 19  1  0  0  0
 20 41  1  0  0  0
 21 22  1  0  0  0
 21 23  1  0  0  0
 21 24  1  0  0  0
 25 42  1  0  0  0
M  END
> <s_m_entry_id>
17278

> <s_m_entry_name>
ligand_docking-pose.205

> <s_m_Source_Path>
/home/csk/Desktop/cluster/DUD-E-result/esr1

> <s_m_Source_File>
ligand_docking-pose.sdf

> <i_m_Source_File_Index>
205

> <i_lp_mmshare_version>
53161

> <i_f3d_flags>
0

> <r_lp_tautomer_probability>
0.999999999997365

> <s_lp_Force_Field>
OPLS_2005

> <r_lp_Energy>
35.258246

> <b_lp_Chiralities_Consistent>
1

> <s_lp_Variant>
399908-1

> <s_i_glide_gridfile>
glide-grid_1sj0

> <i_i_glide_lignum>
483

> <i_i_glide_rotatable_bonds>
4

> <r_i_docking_score>
-9.02946430512462

> <r_i_glide_ligand_efficiency>
-0.361178572204985

> <r_i_glide_ligand_efficiency_sa>
-1.05609255065663

> <r_i_glide_ligand_efficiency_ln>
-2.14025363152439

> <r_i_glide_gscore>
-9.02946430512462

> <r_i_glide_lipo>
-4.96628578604501

> <r_i_glide_hbond>
-0.0436920401584642

> <r_i_glide_metal>
0

> <r_i_glide_rewards>
-1.9674355157126

> <r_i_glide_evdw>
-38.8736534118652

> <r_i_glide_ecoul>
-1.20130431652069

> <r_i_glide_erotb>
0.155293812796003

> <r_i_glide_esite>
-0.0834664579331909

> <r_i_glide_emodel>
-58.1198597693192

> <r_i_glide_energy>
-40.0749577283859

> <r_i_glide_einternal>
4.13110256195068

> <i_i_glide_confnum>
1

> <i_i_glide_posenum>
156

> <r_i_glide_eff_state_penalty>
0

> <s_user_duplicate_titles>
399908

> <s_m_subgroup_title>
dock_pv

> <s_m_subgroupid>
dock_pv1

> <b_m_subgroup_collapsed>
0

$$$$
312926
                    3D
 Schrodinger Suite 2021-1.
 27 29  0  0  1  0            999 V2000
   27.2300    0.4314   27.3094 C   0  0  0  0  0  0
   28.6092    0.6103   27.4688 C   0  0  0  0  0  0
   29.4362   -0.5236   27.4078 C   0  0  0  0  0  0
   28.8427   -1.7831   27.2275 C   0  0  0  0  0  0
   27.4713   -1.9728   27.0444 C   0  0  0  0  0  0
   26.6752   -0.8297   27.0640 C   0  0  0  0  0  0
   25.3383   -0.9488   26.7899 O   0  0  0  0  0  0
   29.7976   -2.7488   27.2397 O   0  0  0  0  0  0
   31.0416   -2.1278   27.3812 N   0  0  0  0  0  0
   30.8337   -0.8306   27.4673 C   0  0  0  0  0  0
   31.9961    0.0938   27.6125 C   0  0  0  0  0  0
   32.5154    0.6632   26.4503 C   0  0  0  0  0  0
   33.6602    1.4583   26.5030 C   0  0  0  0  0  0
   34.3566    1.6061   27.7011 C   0  0  0  0  0  0
   33.8441    1.0579   28.8705 C   0  0  0  0  0  0
   32.6515    0.3317   28.8329 C   0  0  0  0  0  0
   32.1035   -0.1570   30.0792 C   0  0  0  0  0  0
   31.6601   -0.5413   31.0640 N   0  0  0  0  0  0
   35.5573    2.2579   27.7227 O   0  0  0  0  0  0
   26.5791    1.2938   27.3304 H   0  0  0  0  0  0
   29.0233    1.5968   27.6184 H   0  0  0  0  0  0
   27.0574   -2.9553   26.8656 H   0  0  0  0  0  0
   25.1215   -1.8136   26.4053 H   0  0  0  0  0  0
   32.0481    0.4760   25.4954 H   0  0  0  0  0  0
   34.0598    1.8874   25.5964 H   0  0  0  0  0  0
   34.3731    1.2078   29.8017 H   0  0  0  0  0  0
   36.1821    1.9393   28.3859 H   0  0  0  0  0  0
  1  6  1  0  0  0
  1  2  2  0  0  0
  1 20  1  0  0  0
  2  3  1  0  0  0
  2 21  1  0  0  0
  3 10  1  0  0  0
  3  4  2  0  0  0
  4  5  1  0  0  0
  4  8  1  0  0  0
  5  6  2  0  0  0
  5 22  1  0  0  0
  6  7  1  0  0  0
  7 23  1  0  0  0
  8  9  1  0  0  0
  9 10  2  0  0  0
 10 11  1  0  0  0
 11 16  1  0  0  0
 11 12  2  0  0  0
 12 13  1  0  0  0
 12 24  1  0  0  0
 13 14  2  0  0  0
 13 25  1  0  0  0
 14 15  1  0  0  0
 14 19  1  0  0  0
 15 16  2  0  0  0
 15 26  1  0  0  0
 16 17  1  0  0  0
 17 18  3  0  0  0
 19 27  1  0  0  0
M  END
> <s_m_entry_id>
17279

> <s_m_entry_name>
ligand_docking-pose.206

> <s_m_Source_Path>
/home/csk/Desktop/cluster/DUD-E-result/esr1

> <s_m_Source_File>
ligand_docking-pose.sdf

> <i_m_Source_File_Index>
206

> <i_lp_mmshare_version>
53161

> <i_f3d_flags>
0

> <r_lp_tautomer_probability>
1

> <s_lp_Force_Field>
OPLS_2005

> <r_lp_Energy>
30.96867

> <b_lp_Chiralities_Consistent>
1

> <s_lp_Variant>
312926-1

> <s_i_glide_gridfile>
glide-grid_1sj0

> <i_i_glide_lignum>
40

> <i_i_glide_rotatable_bonds>
3

> <r_i_docking_score>
-9.01501975769239

> <r_i_glide_ligand_efficiency>
-0.474474724089073

> <r_i_glide_ligand_efficiency_sa>
-1.26608913479353

> <r_i_glide_ligand_efficiency_ln>
-2.28550113344572

> <r_i_glide_gscore>
-9.01501975769239

> <r_i_glide_lipo>
-3.09875285328639

> <r_i_glide_hbond>
-0.458211939759648

> <r_i_glide_metal>
0

> <r_i_glide_rewards>
-3.03015764123745

> <r_i_glide_evdw>
-33.5240592956543

> <r_i_glide_ecoul>
-6.29825496673584

> <r_i_glide_erotb>
0.193043886384183

> <r_i_glide_esite>
0

> <r_i_glide_emodel>
-56.1131925657485

> <r_i_glide_energy>
-39.8223142623901

> <r_i_glide_einternal>
5.17479848861694

> <i_i_glide_confnum>
1

> <i_i_glide_posenum>
241

> <r_i_glide_eff_state_penalty>
0

> <s_user_duplicate_titles>
312926

> <s_m_subgroup_title>
dock_pv

> <s_m_subgroupid>
dock_pv1

> <b_m_subgroup_collapsed>
0

$$$$
373242
                    3D
 Schrodinger Suite 2021-1.
 44 47  0  0  1  0            999 V2000
   27.9029   -0.3554   26.3875 C   0  0  0  0  0  0
   29.0253   -0.9422   25.8290 C   0  0  0  0  0  0
   30.2874   -0.4591   26.1633 C   0  0  0  0  0  0
   30.3886    0.6265   27.0654 C   0  0  0  0  0  0
   29.2516    1.3142   27.5183 C   0  0  0  0  0  0
   28.0145    0.7941   27.1553 C   0  0  0  0  0  0
   26.8834    1.4510   27.5371 O   0  0  0  0  0  0
   31.7472    0.7240   27.3349 N   0  0  0  0  0  0
   32.4606   -0.0828   26.5156 N   0  0  0  0  0  0
   31.6238   -0.7871   25.8034 C   0  0  0  0  0  0
   32.0872   -1.7813   24.7902 C   0  0  0  0  0  0
   31.6575   -1.6309   23.4740 C   0  0  0  0  0  0
   32.0324   -2.5418   22.4828 C   0  0  0  0  0  0
   32.8928   -3.5852   22.7936 C   0  0  0  0  0  0
   33.3601   -3.7258   24.0963 C   0  0  0  0  0  0
   32.9192   -2.8623   25.1031 C   0  0  0  0  0  0
   33.2597   -3.0998   26.4035 O   0  0  0  0  0  0
   33.2602   -4.4839   21.8297 O   0  0  0  0  0  0
   32.4355    1.5129   28.3772 C   0  0  0  0  0  0
   31.6272    1.5607   29.6998 C   0  0  0  0  0  0
   31.5150    0.1895   30.3700 C   0  0  0  0  0  0
   32.9172   -0.3393   30.6638 C   0  0  0  0  0  0
   33.8627   -0.3425   29.4395 C   0  0  0  0  0  0
   33.8734    1.0146   28.6998 C   0  0  0  0  0  0
   26.9270   -0.7538   26.1427 H   0  0  0  0  0  0
   28.9177   -1.7420   25.1223 H   0  0  0  0  0  0
   29.2888    2.2097   28.1128 H   0  0  0  0  0  0
   26.0976    1.1590   27.0660 H   0  0  0  0  0  0
   31.0195   -0.7987   23.2359 H   0  0  0  0  0  0
   31.6653   -2.4276   21.4726 H   0  0  0  0  0  0
   34.0214   -4.5420   24.3318 H   0  0  0  0  0  0
   32.8972   -2.4181   26.9746 H   0  0  0  0  0  0
   32.6255   -4.5813   21.1105 H   0  0  0  0  0  0
   32.5186    2.5225   27.9717 H   0  0  0  0  0  0
   30.6599    2.0304   29.5860 H   0  0  0  0  0  0
   32.0999    2.2580   30.3837 H   0  0  0  0  0  0
   30.9733   -0.5119   29.7336 H   0  0  0  0  0  0
   30.9443    0.2716   31.2956 H   0  0  0  0  0  0
   32.8599   -1.3400   31.0857 H   0  0  0  0  0  0
   33.3576    0.2784   31.4480 H   0  0  0  0  0  0
   33.5573   -1.1347   28.7574 H   0  0  0  0  0  0
   34.8763   -0.5965   29.7539 H   0  0  0  0  0  0
   34.3928    1.7716   29.2896 H   0  0  0  0  0  0
   34.4895    0.9828   27.8002 H   0  0  0  0  0  0
  1  6  1  0  0  0
  1  2  2  0  0  0
  1 25  1  0  0  0
  2  3  1  0  0  0
  2 26  1  0  0  0
  3 10  1  0  0  0
  3  4  2  0  0  0
  4  5  1  0  0  0
  4  8  1  0  0  0
  5  6  2  0  0  0
  5 27  1  0  0  0
  6  7  1  0  0  0
  7 28  1  0  0  0
  8  9  1  0  0  0
  8 19  1  0  0  0
  9 10  2  0  0  0
 10 11  1  0  0  0
 11 16  1  0  0  0
 11 12  2  0  0  0
 12 13  1  0  0  0
 12 29  1  0  0  0
 13 14  2  0  0  0
 13 30  1  0  0  0
 14 15  1  0  0  0
 14 18  1  0  0  0
 15 16  2  0  0  0
 15 31  1  0  0  0
 16 17  1  0  0  0
 17 32  1  0  0  0
 18 33  1  0  0  0
 19 24  1  0  0  0
 19 20  1  0  0  0
 19 34  1  0  0  0
 20 21  1  0  0  0
 20 35  1  0  0  0
 20 36  1  0  0  0
 21 22  1  0  0  0
 21 37  1  0  0  0
 21 38  1  0  0  0
 22 23  1  0  0  0
 22 39  1  0  0  0
 22 40  1  0  0  0
 23 24  1  0  0  0
 23 41  1  0  0  0
 23 42  1  0  0  0
 24 43  1  0  0  0
 24 44  1  0  0  0
M  END
> <s_m_entry_id>
17280

> <s_m_entry_name>
ligand_docking-pose.207

> <s_m_Source_Path>
/home/csk/Desktop/cluster/DUD-E-result/esr1

> <s_m_Source_File>
ligand_docking-pose.sdf

> <i_m_Source_File_Index>
207

> <i_lp_mmshare_version>
53161

> <i_f3d_flags>
0

> <r_lp_tautomer_probability>
0.999999999898

> <s_lp_Force_Field>
OPLS_2005

> <r_lp_Energy>
30.594081

> <b_lp_Chiralities_Consistent>
1

> <s_lp_Variant>
373242-1

> <s_i_glide_gridfile>
glide-grid_1sj0

> <i_i_glide_lignum>
31

> <i_i_glide_rotatable_bonds>
5

> <r_i_docking_score>
-9.01440167446271

> <r_i_glide_ligand_efficiency>
-0.375600069769279

> <r_i_glide_ligand_efficiency_sa>
-1.08341807731663

> <r_i_glide_ligand_efficiency_ln>
-2.15755996463837

> <r_i_glide_gscore>
-9.01440167446271

> <r_i_glide_lipo>
-5.16465605624821

> <r_i_glide_hbond>
-0.183205977913652

> <r_i_glide_metal>
0

> <r_i_glide_rewards>
-1.84752426946299

> <r_i_glide_evdw>
-34.2039337158203

> <r_i_glide_ecoul>
-3.09852886199951

> <r_i_glide_erotb>
0.355960644253086

> <r_i_glide_esite>
0

> <r_i_glide_emodel>
-46.6031424643565

> <r_i_glide_energy>
-37.3024625778198

> <r_i_glide_einternal>
9.29084491729736

> <i_i_glide_confnum>
8

> <i_i_glide_posenum>
60

> <r_i_glide_eff_state_penalty>
0

> <s_user_duplicate_titles>
373242

> <s_m_subgroup_title>
dock_pv

> <s_m_subgroupid>
dock_pv1

> <b_m_subgroup_collapsed>
0

$$$$
300988
                    3D
 Schrodinger Suite 2021-1.
 39 41  0  0  1  0            999 V2000
   30.7766   -1.1040   25.2000 C   0  0  0  0  0  0
   31.6130   -0.6165   26.3729 C   0  0  0  0  0  0
   32.4362    0.4468   26.2657 C   0  0  0  0  0  0
   33.3368    0.9785   27.3797 C   0  0  0  0  0  0
   33.2703    0.1385   28.7037 C   0  0  2  0  0  0
   32.9196   -1.3385   28.3634 C   0  0  0  0  0  0
   31.5326   -1.3962   27.6874 C   0  0  1  0  0  0
   30.4664   -0.8149   28.6610 C   0  0  1  0  0  0
   30.8370    0.5215   29.0313 O   0  0  0  0  0  0
   32.1291    0.6739   29.6181 C   0  0  0  0  0  0
   29.0341   -0.8565   28.1133 C   0  0  0  0  0  0
   28.3346    0.3319   27.8638 C   0  0  0  0  0  0
   27.0240    0.2941   27.3968 C   0  0  0  0  0  0
   26.4124   -0.9244   27.1210 C   0  0  0  0  0  0
   27.0986   -2.1140   27.3536 C   0  0  0  0  0  0
   28.3973   -2.0819   27.8639 C   0  0  0  0  0  0
   29.0293   -3.2489   28.1186 F   0  0  0  0  0  0
   25.1435   -0.9420   26.6106 O   0  0  0  0  0  0
   34.6295    0.1739   29.4548 C   0  0  0  0  0  0
   35.2509    1.4483   29.4633 O   0  0  0  0  0  0
   31.3087   -2.4404   27.4652 H   0  0  0  0  0  0
   30.4600   -1.4240   29.5674 H   0  0  0  0  0  0
   29.7128   -0.9964   25.4080 H   0  0  0  0  0  0
   30.9890   -0.5436   24.2885 H   0  0  0  0  0  0
   30.9861   -2.1535   24.9961 H   0  0  0  0  0  0
   32.4616    0.9527   25.3158 H   0  0  0  0  0  0
   33.1783    2.0417   27.5631 H   0  0  0  0  0  0
   34.3421    0.9049   26.9705 H   0  0  0  0  0  0
   33.6600   -1.7751   27.6951 H   0  0  0  0  0  0
   32.9292   -1.9575   29.2630 H   0  0  0  0  0  0
   32.1422    0.1854   30.5945 H   0  0  0  0  0  0
   32.2812    1.7341   29.8249 H   0  0  0  0  0  0
   28.7929    1.2936   28.0448 H   0  0  0  0  0  0
   26.4880    1.2150   27.2200 H   0  0  0  0  0  0
   26.6281   -3.0641   27.1439 H   0  0  0  0  0  0
   24.9020   -1.8188   26.2641 H   0  0  0  0  0  0
   35.3385   -0.5272   29.0105 H   0  0  0  0  0  0
   34.4631   -0.1420   30.4809 H   0  0  0  0  0  0
   36.2135    1.3388   29.4139 H   0  0  0  0  0  0
  1  2  1  0  0  0
  1 23  1  0  0  0
  1 24  1  0  0  0
  1 25  1  0  0  0
  2  7  1  0  0  0
  2  3  2  0  0  0
  3  4  1  0  0  0
  3 26  1  0  0  0
  4  5  1  0  0  0
  4 27  1  0  0  0
  4 28  1  0  0  0
  5 10  1  0  0  0
  5  6  1  0  0  0
  5 19  1  0  0  0
  6  7  1  0  0  0
  6 29  1  0  0  0
  6 30  1  0  0  0
  7 21  1  0  0  0
  7  8  1  0  0  0
  8 22  1  0  0  0
  8  9  1  0  0  0
  8 11  1  0  0  0
  9 10  1  0  0  0
 10 31  1  0  0  0
 10 32  1  0  0  0
 11 16  1  0  0  0
 11 12  2  0  0  0
 12 13  1  0  0  0
 12 33  1  0  0  0
 13 14  2  0  0  0
 13 34  1  0  0  0
 14 15  1  0  0  0
 14 18  1  0  0  0
 15 16  2  0  0  0
 15 35  1  0  0  0
 16 17  1  0  0  0
 18 36  1  0  0  0
 19 20  1  0  0  0
 19 37  1  0  0  0
 19 38  1  0  0  0
 20 39  1  0  0  0
M  END
> <s_m_entry_id>
17281

> <s_m_entry_name>
ligand_docking-pose.208

> <s_m_Source_Path>
/home/csk/Desktop/cluster/DUD-E-result/esr1

> <s_m_Source_File>
ligand_docking-pose.sdf

> <i_m_Source_File_Index>
208

> <i_lp_mmshare_version>
53161

> <i_f3d_flags>
0

> <r_lp_tautomer_probability>
0.999999999997365

> <s_lp_Force_Field>
OPLS_2005

> <r_lp_Energy>
27.208852

> <b_lp_Chiralities_Consistent>
1

> <s_lp_Variant>
300988-1

> <s_i_glide_gridfile>
glide-grid_1sj0

> <i_i_glide_lignum>
931

> <i_i_glide_rotatable_bonds>
4

> <r_i_docking_score>
-9.00920256534308

> <r_i_glide_ligand_efficiency>
-0.450460128267154

> <r_i_glide_ligand_efficiency_sa>
-1.22273690652097

> <r_i_glide_ligand_efficiency_ln>
-2.25470625871785

> <r_i_glide_gscore>
-9.00920256534308

> <r_i_glide_lipo>
-3.71804810948369

> <r_i_glide_hbond>
-0.487722858356184

> <r_i_glide_metal>
0

> <r_i_glide_rewards>
-2.54753672914194

> <r_i_glide_evdw>
-28.0491714477539

> <r_i_glide_ecoul>
-7.86128997802734

> <r_i_glide_erotb>
0.325757200730524

> <r_i_glide_esite>
0

> <r_i_glide_emodel>
-55.2950861014582

> <r_i_glide_energy>
-35.9104614257812

> <r_i_glide_einternal>
2.5588686466217

> <i_i_glide_confnum>
2

> <i_i_glide_posenum>
394

> <r_i_glide_eff_state_penalty>
0

> <s_user_duplicate_titles>
300988

> <s_m_subgroup_title>
dock_pv

> <s_m_subgroupid>
dock_pv1

> <b_m_subgroup_collapsed>
0

$$$$
186915
                    3D
 Schrodinger Suite 2021-1.
 33 35  0  0  1  0            999 V2000
   33.7420    1.8863   26.9823 C   0  0  0  0  0  0
   32.4338    1.5796   27.3298 C   0  0  0  0  0  0
   32.1248    0.9414   28.5317 C   0  0  0  0  0  0
   33.1689    0.6661   29.4333 C   0  0  0  0  0  0
   34.4906    0.9689   29.0820 C   0  0  0  0  0  0
   34.7743    1.5634   27.8509 C   0  0  0  0  0  0
   36.0566    1.8323   27.4640 O   0  0  0  0  0  0
   32.8599   -0.0577   30.9760 Cl  0  0  0  0  0  0
   30.6732    0.4935   28.7827 C   0  0  2  0  0  0
   30.2538   -0.8470   28.1230 C   0  0  1  0  0  0
   28.8657   -0.5263   27.8645 N   0  0  0  0  0  0
   28.7264    0.8407   27.8642 C   0  0  0  0  0  0
   29.7002    1.4881   28.3550 N   0  0  0  0  0  0
   31.0217   -1.2997   26.8558 C   0  0  0  0  0  0
   30.5858   -0.9198   25.5750 C   0  0  0  0  0  0
   31.2596   -1.3417   24.4332 C   0  0  0  0  0  0
   32.3720   -2.1664   24.5414 C   0  0  0  0  0  0
   32.8295   -2.5442   25.7996 C   0  0  0  0  0  0
   32.1771   -2.1003   26.9517 C   0  0  0  0  0  0
   32.8601   -2.5418   28.4753 Cl  0  0  0  0  0  0
   33.0094   -2.5958   23.4100 O   0  0  0  0  0  0
   30.5400    0.4174   29.8633 H   0  0  0  0  0  0
   30.2997   -1.6571   28.8527 H   0  0  0  0  0  0
   33.9591    2.3541   26.0333 H   0  0  0  0  0  0
   31.6292    1.8254   26.6640 H   0  0  0  0  0  0
   35.2962    0.7304   29.7598 H   0  0  0  0  0  0
   36.7280    1.5346   28.1008 H   0  0  0  0  0  0
   27.8168    1.2903   27.4743 H   0  0  0  0  0  0
   28.3761   -1.2421   27.3465 H   0  0  0  0  0  0
   29.7201   -0.2884   25.4443 H   0  0  0  0  0  0
   30.9032   -1.0366   23.4640 H   0  0  0  0  0  0
   33.6998   -3.1743   25.8867 H   0  0  0  0  0  0
   33.7208   -3.2157   23.5804 H   0  0  0  0  0  0
  1  6  1  0  0  0
  1  2  2  0  0  0
  1 24  1  0  0  0
  2  3  1  0  0  0
  2 25  1  0  0  0
  3  4  2  0  0  0
  3  9  1  0  0  0
  4  5  1  0  0  0
  4  8  1  0  0  0
  5  6  2  0  0  0
  5 26  1  0  0  0
  6  7  1  0  0  0
  7 27  1  0  0  0
  9 13  1  0  0  0
  9 22  1  0  0  0
  9 10  1  0  0  0
 10 14  1  0  0  0
 10 23  1  0  0  0
 10 11  1  0  0  0
 11 29  1  0  0  0
 11 12  1  0  0  0
 12 13  2  0  0  0
 12 28  1  0  0  0
 14 19  1  0  0  0
 14 15  2  0  0  0
 15 16  1  0  0  0
 15 30  1  0  0  0
 16 17  2  0  0  0
 16 31  1  0  0  0
 17 18  1  0  0  0
 17 21  1  0  0  0
 18 19  2  0  0  0
 18 32  1  0  0  0
 19 20  1  0  0  0
 21 33  1  0  0  0
M  END
> <s_m_entry_id>
17282

> <s_m_entry_name>
ligand_docking-pose.209

> <s_m_Source_Path>
/home/csk/Desktop/cluster/DUD-E-result/esr1

> <s_m_Source_File>
ligand_docking-pose.sdf

> <i_m_Source_File_Index>
209

> <i_lp_mmshare_version>
53161

> <i_f3d_flags>
0

> <r_lp_tautomer_probability>
0.499999999997097

> <s_lp_Force_Field>
OPLS_2005

> <r_lp_Energy>
26.506379

> <b_lp_Chiralities_Consistent>
1

> <s_lp_Variant>
186915-2

> <s_i_glide_gridfile>
glide-grid_1sj0

> <i_i_glide_lignum>
664

> <i_i_glide_rotatable_bonds>
4

> <r_i_docking_score>
-9.00704247483841

> <r_i_glide_ligand_efficiency>
-0.428906784516115

> <r_i_glide_ligand_efficiency_sa>
-1.18332129601451

> <r_i_glide_ligand_efficiency_ln>
-2.22697305146075

> <r_i_glide_gscore>
-9.00704247483841

> <r_i_glide_lipo>
-4.06760358700944

> <r_i_glide_hbond>
-0.32

> <r_i_glide_metal>
0

> <r_i_glide_rewards>
-2.22425130399338

> <r_i_glide_evdw>
-37.4795951843262

> <r_i_glide_ecoul>
-5.8633599281311

> <r_i_glide_erotb>
0.358296164600384

> <r_i_glide_esite>
0

> <r_i_glide_emodel>
-60.842578335532

> <r_i_glide_energy>
-43.3429551124573

> <r_i_glide_einternal>
6.16766548156738

> <i_i_glide_confnum>
1

> <i_i_glide_posenum>
35

> <r_i_glide_eff_state_penalty>
0

> <s_user_duplicate_titles>
186915

> <s_m_subgroup_title>
dock_pv

> <s_m_subgroupid>
dock_pv1

> <b_m_subgroup_collapsed>
0

$$$$
393969
                    3D
 Schrodinger Suite 2021-1.
 28 30  0  0  1  0            999 V2000
   28.1560   -0.5036   27.8658 C   0  0  0  0  0  0
   26.9171   -1.1347   27.8590 C   0  0  0  0  0  0
   26.8601   -2.5238   27.7806 C   0  0  0  0  0  0
   28.0099   -3.2918   27.6529 C   0  0  0  0  0  0
   29.2470   -2.6652   27.6602 C   0  0  0  0  0  0
   29.3187   -1.2785   27.8070 C   0  0  0  0  0  0
   30.5712   -0.6722   27.9600 N   0  0  0  0  0  0
   31.2914   -0.7495   29.1064 C   0  0  0  0  0  0
   30.9885   -1.3420   30.1324 O   0  0  0  0  0  0
   32.5219    0.0228   28.8726 C   0  0  0  0  0  0
   33.6078    0.2577   29.7109 C   0  0  0  0  0  0
   34.6655    1.0182   29.2185 C   0  0  0  0  0  0
   34.6069    1.5365   27.9226 C   0  0  0  0  0  0
   33.4977    1.3096   27.1004 C   0  0  0  0  0  0
   32.4610    0.5248   27.6036 C   0  0  0  0  0  0
   31.1877    0.0540   26.9966 C   0  0  0  0  0  0
   30.7625    0.2579   25.8640 O   0  0  0  0  0  0
   35.6600    2.2580   27.4640 O   0  0  0  0  0  0
   25.6600   -3.1532   27.8640 O   0  0  0  0  0  0
   28.2115    0.5710   27.9649 H   0  0  0  0  0  0
   26.0109   -0.5540   27.9455 H   0  0  0  0  0  0
   27.9469   -4.3674   27.5725 H   0  0  0  0  0  0
   30.1410   -3.2635   27.5780 H   0  0  0  0  0  0
   33.6492   -0.1449   30.7124 H   0  0  0  0  0  0
   35.5281    1.2011   29.8430 H   0  0  0  0  0  0
   33.4742    1.7105   26.0973 H   0  0  0  0  0  0
   36.4482    2.1281   28.0041 H   0  0  0  0  0  0
   25.2821   -3.3420   26.9741 H   0  0  0  0  0  0
  1  6  1  0  0  0
  1  2  2  0  0  0
  1 20  1  0  0  0
  2  3  1  0  0  0
  2 21  1  0  0  0
  3  4  2  0  0  0
  3 19  1  0  0  0
  4  5  1  0  0  0
  4 22  1  0  0  0
  5  6  2  0  0  0
  5 23  1  0  0  0
  6  7  1  0  0  0
  7 16  1  0  0  0
  7  8  1  0  0  0
  8  9  2  0  0  0
  8 10  1  0  0  0
 10 15  2  0  0  0
 10 11  1  0  0  0
 11 12  2  0  0  0
 11 24  1  0  0  0
 12 13  1  0  0  0
 12 25  1  0  0  0
 13 14  2  0  0  0
 13 18  1  0  0  0
 14 15  1  0  0  0
 14 26  1  0  0  0
 15 16  1  0  0  0
 16 17  2  0  0  0
 18 27  1  0  0  0
 19 28  1  0  0  0
M  END
> <s_m_entry_id>
17283

> <s_m_entry_name>
ligand_docking-pose.210

> <s_m_Source_Path>
/home/csk/Desktop/cluster/DUD-E-result/esr1

> <s_m_Source_File>
ligand_docking-pose.sdf

> <i_m_Source_File_Index>
210

> <i_lp_mmshare_version>
53161

> <i_f3d_flags>
0

> <r_lp_tautomer_probability>
0.99999999999473

> <s_lp_Force_Field>
OPLS_2005

> <r_lp_Energy>
45.72751

> <b_lp_Chiralities_Consistent>
1

> <s_lp_Variant>
393969-1

> <s_i_glide_gridfile>
glide-grid_1sj0

> <i_i_glide_lignum>
628

> <i_i_glide_rotatable_bonds>
3

> <r_i_docking_score>
-9.00603598409833

> <r_i_glide_ligand_efficiency>
-0.474001893899912

> <r_i_glide_ligand_efficiency_sa>
-1.26482743393845

> <r_i_glide_ligand_efficiency_ln>
-2.28322355388586

> <r_i_glide_gscore>
-9.00603598409833

> <r_i_glide_lipo>
-2.75196520652201

> <r_i_glide_hbond>
-0.450802871678092

> <r_i_glide_metal>
0

> <r_i_glide_rewards>
-3.17419104382825

> <r_i_glide_evdw>
-26.1605129241943

> <r_i_glide_ecoul>
-10.6085586547852

> <r_i_glide_erotb>
0.270232582357509

> <r_i_glide_esite>
0

> <r_i_glide_emodel>
-50.7214293078518

> <r_i_glide_energy>
-36.7690715789795

> <r_i_glide_einternal>
5.13783979415894

> <i_i_glide_confnum>
2

> <i_i_glide_posenum>
339

> <r_i_glide_eff_state_penalty>
0

> <s_user_duplicate_titles>
393969

> <s_m_subgroup_title>
dock_pv

> <s_m_subgroupid>
dock_pv1

> <b_m_subgroup_collapsed>
0

$$$$
399909
                    3D
 Schrodinger Suite 2021-1.
 42 45  0  0  1  0            999 V2000
   31.8457   -1.4927   23.6382 C   0  0  0  0  0  0
   32.0599   -2.4181   22.6184 C   0  0  0  0  0  0
   32.8591   -3.5244   22.8470 C   0  0  0  0  0  0
   33.4521   -3.6935   24.0878 C   0  0  0  0  0  0
   33.2127   -2.8025   25.1243 C   0  0  0  0  0  0
   32.3954   -1.6918   24.9105 C   0  0  0  0  0  0
   32.1179   -0.7067   26.0559 C   0  0  1  0  0  0
   30.6559   -0.1965   26.0754 C   0  0  1  0  0  0
   29.5774   -1.2568   26.1380 C   0  0  0  0  0  0
   28.3326   -0.4450   26.4650 C   0  0  2  0  0  0
   28.8084    0.5841   27.5010 C   0  0  0  0  0  0
   30.3205    0.7720   27.2300 C   0  0  1  0  0  0
   31.2131    0.5206   28.4363 C   0  0  0  0  0  0
   31.0470    1.2577   29.6094 C   0  0  0  0  0  0
   31.8583    1.0312   30.7157 C   0  0  0  0  0  0
   32.8599    0.0709   30.6620 C   0  0  0  0  0  0
   33.0464   -0.6820   29.5041 C   0  0  0  0  0  0
   32.2262   -0.4575   28.4015 C   0  0  0  0  0  0
   32.4224   -1.2924   27.3239 O   0  0  0  0  0  0
   31.6600    1.7356   31.8640 O   0  0  0  0  0  0
   27.1442   -1.3268   26.8734 C   0  0  0  0  0  0
   26.0607   -0.6002   27.1496 F   0  0  0  0  0  0
   26.8600   -2.1418   25.8646 F   0  0  0  0  0  0
   27.4129   -2.0859   27.9335 F   0  0  0  0  0  0
   33.0578   -4.4554   21.8637 O   0  0  0  0  0  0
   32.7980    0.1307   25.8827 H   0  0  0  0  0  0
   30.4736    0.3325   25.1478 H   0  0  0  0  0  0
   28.0600    0.0921   25.5567 H   0  0  0  0  0  0
   30.5235    1.7792   26.8637 H   0  0  0  0  0  0
   31.2355   -0.6297   23.4342 H   0  0  0  0  0  0
   31.6159   -2.2719   21.6460 H   0  0  0  0  0  0
   34.0639   -4.5447   24.2637 H   0  0  0  0  0  0
   33.6602   -2.9827   26.0896 H   0  0  0  0  0  0
   29.4792   -1.7418   25.1712 H   0  0  0  0  0  0
   29.7930   -2.0154   26.8939 H   0  0  0  0  0  0
   28.6105    0.1966   28.5023 H   0  0  0  0  0  0
   28.2535    1.5081   27.3274 H   0  0  0  0  0  0
   30.2630    1.9967   29.6546 H   0  0  0  0  0  0
   33.4842   -0.0978   31.5219 H   0  0  0  0  0  0
   33.8142   -1.4406   29.4687 H   0  0  0  0  0  0
   30.9212    2.3428   31.8032 H   0  0  0  0  0  0
   32.3912   -4.4758   21.1680 H   0  0  0  0  0  0
  1  6  1  0  0  0
  1  2  2  0  0  0
  1 30  1  0  0  0
  2  3  1  0  0  0
  2 31  1  0  0  0
  3  4  2  0  0  0
  3 25  1  0  0  0
  4  5  1  0  0  0
  4 32  1  0  0  0
  5  6  2  0  0  0
  5 33  1  0  0  0
  6  7  1  0  0  0
  7 26  1  0  0  0
  7 19  1  0  0  0
  7  8  1  0  0  0
  8 27  1  0  0  0
  8 12  1  0  0  0
  8  9  1  0  0  0
  9 10  1  0  0  0
  9 34  1  0  0  0
  9 35  1  0  0  0
 10 28  1  0  0  0
 10 11  1  0  0  0
 10 21  1  0  0  0
 11 12  1  0  0  0
 11 36  1  0  0  0
 11 37  1  0  0  0
 12 29  1  0  0  0
 12 13  1  0  0  0
 13 18  2  0  0  0
 13 14  1  0  0  0
 14 15  2  0  0  0
 14 38  1  0  0  0
 15 16  1  0  0  0
 15 20  1  0  0  0
 16 17  2  0  0  0
 16 39  1  0  0  0
 17 18  1  0  0  0
 17 40  1  0  0  0
 18 19  1  0  0  0
 20 41  1  0  0  0
 21 22  1  0  0  0
 21 23  1  0  0  0
 21 24  1  0  0  0
 25 42  1  0  0  0
M  END
> <s_m_entry_id>
17284

> <s_m_entry_name>
ligand_docking-pose.211

> <s_m_Source_Path>
/home/csk/Desktop/cluster/DUD-E-result/esr1

> <s_m_Source_File>
ligand_docking-pose.sdf

> <i_m_Source_File_Index>
211

> <i_lp_mmshare_version>
53161

> <i_f3d_flags>
0

> <r_lp_tautomer_probability>
0.999999999997365

> <s_lp_Force_Field>
OPLS_2005

> <r_lp_Energy>
34.035801

> <b_lp_Chiralities_Consistent>
1

> <s_lp_Variant>
399909-1

> <s_i_glide_gridfile>
glide-grid_1sj0

> <i_i_glide_lignum>
484

> <i_i_glide_rotatable_bonds>
4

> <r_i_docking_score>
-8.99717726660075

> <r_i_glide_ligand_efficiency>
-0.35988709066403

> <r_i_glide_ligand_efficiency_sa>
-1.05231623572635

> <r_i_glide_ligand_efficiency_ln>
-2.13260063582976

> <r_i_glide_gscore>
-8.99717726660075

> <r_i_glide_lipo>
-4.90987751575063

> <r_i_glide_hbond>
0

> <r_i_glide_metal>
0

> <r_i_glide_rewards>
-2.25506135576715

> <r_i_glide_evdw>
-35.9053802490234

> <r_i_glide_ecoul>
-0.690690219402313

> <r_i_glide_erotb>
0.155293812796003

> <r_i_glide_esite>
-0.0886596625174517

> <r_i_glide_emodel>
-53.1756781738242

> <r_i_glide_energy>
-36.5960704684258

> <r_i_glide_einternal>
2.89843320846558

> <i_i_glide_confnum>
2

> <i_i_glide_posenum>
296

> <r_i_glide_eff_state_penalty>
0

> <s_user_duplicate_titles>
399909

> <s_m_subgroup_title>
dock_pv

> <s_m_subgroupid>
dock_pv1

> <b_m_subgroup_collapsed>
0

$$$$
357411
                    3D
 Schrodinger Suite 2021-1.
 46 49  0  0  1  0            999 V2000
   34.3909    1.1364   29.2074 C   0  0  0  0  0  0
   34.1485   -0.3633   28.9811 C   0  0  0  0  0  0
   32.7877   -0.8640   29.5094 C   0  0  0  0  0  0
   31.5630   -0.3337   28.7456 C   0  0  0  0  0  0
   31.1517   -0.8176   27.5370 C   0  0  0  0  0  0
   31.7701   -1.8109   26.6166 C   0  0  0  0  0  0
   32.7710   -2.7653   26.8069 C   0  0  0  0  0  0
   33.2628   -3.5087   25.7400 C   0  0  0  0  0  0
   32.8522   -3.2165   24.4507 C   0  0  0  0  0  0
   31.8571   -2.2518   24.2374 C   0  0  0  0  0  0
   31.2602   -1.6008   25.3327 C   0  0  0  0  0  0
   30.1450   -0.6083   25.3416 C   0  0  0  0  0  0
   29.8719   -0.3236   26.8333 C   0  0  2  0  0  0
   29.7400    1.1932   27.1280 C   0  0  0  0  0  0
   29.7469    1.5092   28.6404 C   0  0  0  0  0  0
   30.8597    0.7858   29.4226 C   0  0  0  0  0  0
   31.0304    1.0590   30.6111 O   0  0  0  0  0  0
   28.5948   -1.1023   27.3149 C   0  0  0  0  0  0
   28.7280   -2.6357   27.4693 C   0  0  0  0  0  0
   27.3812   -3.3728   27.4815 C   0  0  0  0  0  0
   31.6595   -2.1421   22.8997 N   0  0  0  0  0  0
   32.5081   -3.0626   22.4105 N   0  0  3  0  0  0
   33.2761   -3.7420   23.2718 N   0  0  0  0  0  0
   32.5643   -3.2418   21.4176 H   0  0  0  0  0  0
   35.3845    1.4255   28.8646 H   0  0  0  0  0  0
   33.6693    1.7428   28.6592 H   0  0  0  0  0  0
   34.3156    1.3989   30.2634 H   0  0  0  0  0  0
   34.9480   -0.9273   29.4637 H   0  0  0  0  0  0
   34.2360   -0.5742   27.9154 H   0  0  0  0  0  0
   32.7357   -0.6855   30.5847 H   0  0  0  0  0  0
   32.7530   -1.9477   29.4637 H   0  0  0  0  0  0
   33.2003   -2.9715   27.7700 H   0  0  0  0  0  0
   34.0576   -4.2229   25.8641 H   0  0  0  0  0  0
   29.2624   -0.9821   24.8235 H   0  0  0  0  0  0
   30.4712    0.2580   24.7884 H   0  0  0  0  0  0
   30.5634    1.7375   26.6640 H   0  0  0  0  0  0
   28.8298    1.5863   26.6720 H   0  0  0  0  0  0
   28.8075    1.1670   29.0665 H   0  0  0  0  0  0
   29.8169    2.5809   28.8273 H   0  0  0  0  0  0
   27.7738   -0.8768   26.6318 H   0  0  0  0  0  0
   28.2557   -0.7265   28.2793 H   0  0  0  0  0  0
   29.2731   -2.8626   28.3861 H   0  0  0  0  0  0
   29.3346   -3.0437   26.6663 H   0  0  0  0  0  0
   27.5237   -4.4413   27.6466 H   0  0  0  0  0  0
   26.8602   -3.2574   26.5300 H   0  0  0  0  0  0
   26.7223   -2.9990   28.2639 H   0  0  0  0  0  0
  1  2  1  0  0  0
  1 25  1  0  0  0
  1 26  1  0  0  0
  1 27  1  0  0  0
  2  3  1  0  0  0
  2 28  1  0  0  0
  2 29  1  0  0  0
  3  4  1  0  0  0
  3 30  1  0  0  0
  3 31  1  0  0  0
  4 16  1  0  0  0
  4  5  2  0  0  0
  5 13  1  0  0  0
  5  6  1  0  0  0
  6 11  2  0  0  0
  6  7  1  0  0  0
  7  8  2  0  0  0
  7 32  1  0  0  0
  8  9  1  0  0  0
  8 33  1  0  0  0
  9 10  1  0  0  0
  9 23  2  0  0  0
 10 11  1  0  0  0
 10 21  2  0  0  0
 11 12  1  0  0  0
 12 13  1  0  0  0
 12 34  1  0  0  0
 12 35  1  0  0  0
 13 14  1  0  0  0
 13 18  1  0  0  0
 14 15  1  0  0  0
 14 36  1  0  0  0
 14 37  1  0  0  0
 15 16  1  0  0  0
 15 38  1  0  0  0
 15 39  1  0  0  0
 16 17  2  0  0  0
 18 19  1  0  0  0
 18 40  1  0  0  0
 18 41  1  0  0  0
 19 20  1  0  0  0
 19 42  1  0  0  0
 19 43  1  0  0  0
 20 44  1  0  0  0
 20 45  1  0  0  0
 20 46  1  0  0  0
 21 22  1  0  0  0
 22 24  1  0  0  0
 22 23  1  0  0  0
M  END
> <s_m_entry_id>
17285

> <s_m_entry_name>
ligand_docking-pose.212

> <s_m_Source_Path>
/home/csk/Desktop/cluster/DUD-E-result/esr1

> <s_m_Source_File>
ligand_docking-pose.sdf

> <i_m_Source_File_Index>
212

> <i_lp_mmshare_version>
53161

> <i_f3d_flags>
0

> <r_lp_tautomer_probability>
0.5

> <s_lp_Force_Field>
OPLS_2005

> <r_lp_Energy>
29.461635

> <b_lp_Chiralities_Consistent>
1

> <s_lp_Variant>
357411-1

> <s_i_glide_gridfile>
glide-grid_1sj0

> <i_i_glide_lignum>
1230

> <i_i_glide_rotatable_bonds>
4

> <r_i_docking_score>
-8.99483944968817

> <r_i_glide_ligand_efficiency>
-0.391079976073399

> <r_i_glide_ligand_efficiency_sa>
-1.11217942927387

> <r_i_glide_ligand_efficiency_ln>
-2.17503373962941

> <r_i_glide_gscore>
-8.99483944968817

> <r_i_glide_lipo>
-4.86909359224224

> <r_i_glide_hbond>
0

> <r_i_glide_metal>
0

> <r_i_glide_rewards>
-2.55527130366249

> <r_i_glide_evdw>
-36.728099822998

> <r_i_glide_ecoul>
-0.80596399307251

> <r_i_glide_erotb>
0.386825036327341

> <r_i_glide_esite>
0

> <r_i_glide_emodel>
-51.0973291432368

> <r_i_glide_energy>
-37.5340638160706

> <r_i_glide_einternal>
3.04586744308472

> <i_i_glide_confnum>
4

> <i_i_glide_posenum>
261

> <r_i_glide_eff_state_penalty>
0

> <s_user_duplicate_titles>
357411

> <s_m_subgroup_title>
dock_pv

> <s_m_subgroupid>
dock_pv1

> <b_m_subgroup_collapsed>
0

$$$$
357576
                    3D
 Schrodinger Suite 2021-1.
 46 49  0  0  1  0            999 V2000
   33.8110    1.5271   27.2750 C   0  0  0  0  0  0
   34.4605    0.5713   28.2894 C   0  0  0  0  0  0
   33.7381    0.4623   29.6459 C   0  0  0  0  0  0
   32.5122   -0.4806   29.6955 C   0  0  0  0  0  0
   31.2851   -0.0360   28.8812 C   0  0  0  0  0  0
   30.8692   -0.5909   27.7038 C   0  0  0  0  0  0
   31.4939   -1.6144   26.8289 C   0  0  0  0  0  0
   32.4833   -2.5707   27.0635 C   0  0  0  0  0  0
   33.0093   -3.3504   26.0417 C   0  0  0  0  0  0
   32.6480   -3.0420   24.7399 C   0  0  0  0  0  0
   31.6606   -2.0822   24.4675 C   0  0  0  0  0  0
   31.0078   -1.4357   25.5324 C   0  0  0  0  0  0
   29.8395   -0.5047   25.5007 C   0  0  0  0  0  0
   29.5984   -0.1140   26.9709 C   0  0  2  0  0  0
   29.5295    1.4211   27.1496 C   0  0  0  0  0  0
   29.5204    1.8446   28.6328 C   0  0  0  0  0  0
   30.5927    1.1311   29.4747 C   0  0  0  0  0  0
   30.7640    1.4574   30.6487 O   0  0  0  0  0  0
   28.3119   -0.7934   27.5538 C   0  0  0  0  0  0
   28.1934   -2.3220   27.4023 C   0  0  0  0  0  0
   31.5365   -1.9823   23.1152 N   0  0  0  0  0  0
   32.3864   -2.8925   22.5309 N   0  0  0  0  0  0
   33.0415   -3.5315   23.5084 N   0  0  0  0  0  0
   33.7073   -4.2593   23.2929 H   0  0  0  0  0  0
   34.4407    1.6376   26.3919 H   0  0  0  0  0  0
   33.6703    2.5210   27.7004 H   0  0  0  0  0  0
   32.8433    1.1687   26.9327 H   0  0  0  0  0  0
   34.5654   -0.4257   27.8646 H   0  0  0  0  0  0
   35.4790    0.9204   28.4674 H   0  0  0  0  0  0
   34.4602    0.0694   30.3563 H   0  0  0  0  0  0
   33.4813    1.4556   30.0180 H   0  0  0  0  0  0
   32.8286   -1.4893   29.4870 H   0  0  0  0  0  0
   32.2051   -0.5700   30.7399 H   0  0  0  0  0  0
   32.8591   -2.8025   28.0411 H   0  0  0  0  0  0
   33.6598   -4.1685   26.2579 H   0  0  0  0  0  0
   28.9625   -0.9782   25.0652 H   0  0  0  0  0  0
   30.0609    0.3330   24.8588 H   0  0  0  0  0  0
   28.6525    1.8258   26.6420 H   0  0  0  0  0  0
   30.3944    1.8708   26.6639 H   0  0  0  0  0  0
   28.5554    1.5842   29.0630 H   0  0  0  0  0  0
   29.6597    2.9194   28.7349 H   0  0  0  0  0  0
   28.2266   -0.5699   28.6171 H   0  0  0  0  0  0
   27.4307   -0.3423   27.0941 H   0  0  0  0  0  0
   27.3232   -2.6971   27.9419 H   0  0  0  0  0  0
   28.0592   -2.6067   26.3600 H   0  0  0  0  0  0
   29.0693   -2.8423   27.7909 H   0  0  0  0  0  0
  1  2  1  0  0  0
  1 25  1  0  0  0
  1 26  1  0  0  0
  1 27  1  0  0  0
  2  3  1  0  0  0
  2 28  1  0  0  0
  2 29  1  0  0  0
  3  4  1  0  0  0
  3 30  1  0  0  0
  3 31  1  0  0  0
  4  5  1  0  0  0
  4 32  1  0  0  0
  4 33  1  0  0  0
  5 17  1  0  0  0
  5  6  2  0  0  0
  6 14  1  0  0  0
  6  7  1  0  0  0
  7 12  2  0  0  0
  7  8  1  0  0  0
  8  9  2  0  0  0
  8 34  1  0  0  0
  9 10  1  0  0  0
  9 35  1  0  0  0
 10 23  1  0  0  0
 10 11  2  0  0  0
 11 12  1  0  0  0
 11 21  1  0  0  0
 12 13  1  0  0  0
 13 14  1  0  0  0
 13 36  1  0  0  0
 13 37  1  0  0  0
 14 15  1  0  0  0
 14 19  1  0  0  0
 15 16  1  0  0  0
 15 38  1  0  0  0
 15 39  1  0  0  0
 16 17  1  0  0  0
 16 40  1  0  0  0
 16 41  1  0  0  0
 17 18  2  0  0  0
 19 20  1  0  0  0
 19 42  1  0  0  0
 19 43  1  0  0  0
 20 44  1  0  0  0
 20 45  1  0  0  0
 20 46  1  0  0  0
 21 22  2  0  0  0
 22 23  1  0  0  0
 23 24  1  0  0  0
M  END
> <s_m_entry_id>
17286

> <s_m_entry_name>
ligand_docking-pose.213

> <s_m_Source_Path>
/home/csk/Desktop/cluster/DUD-E-result/esr1

> <s_m_Source_File>
ligand_docking-pose.sdf

> <i_m_Source_File_Index>
213

> <i_lp_mmshare_version>
53161

> <i_f3d_flags>
0

> <r_lp_tautomer_probability>
0.25

> <s_lp_Force_Field>
OPLS_2005

> <r_lp_Energy>
44.799933

> <b_lp_Chiralities_Consistent>
1

> <s_lp_Variant>
357576-3

> <s_i_glide_gridfile>
glide-grid_1sj0

> <i_i_glide_lignum>
1360

> <i_i_glide_rotatable_bonds>
4

> <r_i_docking_score>
-8.99089668274375

> <r_i_glide_ligand_efficiency>
-0.390908551423641

> <r_i_glide_ligand_efficiency_sa>
-1.1116919203734

> <r_i_glide_ligand_efficiency_ln>
-2.17408034283121

> <r_i_glide_gscore>
-8.99089668274375

> <r_i_glide_lipo>
-5.01251441964592

> <r_i_glide_hbond>
0

> <r_i_glide_metal>
0

> <r_i_glide_rewards>
-2.60544856248693

> <r_i_glide_evdw>
-34.5613479614258

> <r_i_glide_ecoul>
-0.211275592446327

> <r_i_glide_erotb>
0.386825036327341

> <r_i_glide_esite>
0

> <r_i_glide_emodel>
-44.8274982601451

> <r_i_glide_energy>
-34.7726235538721

> <r_i_glide_einternal>
1.44547402858734

> <i_i_glide_confnum>
5

> <i_i_glide_posenum>
155

> <r_i_glide_eff_state_penalty>
0

> <s_user_duplicate_titles>
357576

> <s_m_subgroup_title>
dock_pv

> <s_m_subgroupid>
dock_pv1

> <b_m_subgroup_collapsed>
0

$$$$
373318
                    3D
 Schrodinger Suite 2021-1.
 42 45  0  0  1  0            999 V2000
   27.6538   -0.5441   26.5172 C   0  0  0  0  0  0
   28.8015   -1.0057   25.8879 C   0  0  0  0  0  0
   30.0429   -0.5120   26.2855 C   0  0  0  0  0  0
   30.0927    0.5132   27.2652 C   0  0  0  0  0  0
   28.9260    1.0228   27.8641 C   0  0  0  0  0  0
   27.7127    0.4667   27.4641 C   0  0  0  0  0  0
   28.9302    2.2580   29.0639 Cl  0  0  0  0  0  0
   31.4437    0.7977   27.3829 N   0  0  0  0  0  0
   32.1962   -0.0301   26.6414 N   0  0  0  0  0  0
   31.4043   -0.7865   25.9495 C   0  0  0  0  0  0
   31.9784   -1.7218   24.9570 C   0  0  0  0  0  0
   31.4401   -1.7420   23.6770 C   0  0  0  0  0  0
   32.0038   -2.5521   22.6938 C   0  0  0  0  0  0
   33.0992   -3.3497   23.0092 C   0  0  0  0  0  0
   33.6247   -3.3528   24.2990 C   0  0  0  0  0  0
   33.0594   -2.5446   25.2779 C   0  0  0  0  0  0
   33.6602   -4.1420   22.0479 O   0  0  0  0  0  0
   32.1314    1.7559   28.2332 C   0  0  0  0  0  0
   32.5214    1.1001   29.5760 C   0  0  0  0  0  0
   33.7803    0.2400   29.4375 C   0  0  0  0  0  0
   34.9324    1.0540   28.8257 C   0  0  0  0  0  0
   34.6147    1.7626   27.4870 C   0  0  0  0  0  0
   33.2654    2.5001   27.4719 C   0  0  0  0  0  0
   26.6926   -0.9501   26.2316 H   0  0  0  0  0  0
   28.7333   -1.7416   25.1117 H   0  0  0  0  0  0
   26.7905    0.8280   27.8951 H   0  0  0  0  0  0
   30.5920   -1.1107   23.4640 H   0  0  0  0  0  0
   31.5897   -2.5579   21.6960 H   0  0  0  0  0  0
   34.4596   -3.9855   24.5516 H   0  0  0  0  0  0
   33.4739   -2.5399   26.2753 H   0  0  0  0  0  0
   33.1016   -4.2652   21.2748 H   0  0  0  0  0  0
   31.3789    2.5110   28.4219 H   0  0  0  0  0  0
   31.6848    0.5221   29.9728 H   0  0  0  0  0  0
   32.6608    1.8580   30.3428 H   0  0  0  0  0  0
   33.5793   -0.6393   28.8249 H   0  0  0  0  0  0
   34.0665   -0.1420   30.4164 H   0  0  0  0  0  0
   35.7779    0.3837   28.6763 H   0  0  0  0  0  0
   35.2600    1.8011   29.5497 H   0  0  0  0  0  0
   34.6248    1.0580   26.6643 H   0  0  0  0  0  0
   35.4193    2.4600   27.2516 H   0  0  0  0  0  0
   33.3974    3.5038   27.8640 H   0  0  0  0  0  0
   32.9609    2.6976   26.4426 H   0  0  0  0  0  0
  1  6  1  0  0  0
  1  2  2  0  0  0
  1 24  1  0  0  0
  2  3  1  0  0  0
  2 25  1  0  0  0
  3 10  1  0  0  0
  3  4  2  0  0  0
  4  5  1  0  0  0
  4  8  1  0  0  0
  5  6  2  0  0  0
  5  7  1  0  0  0
  6 26  1  0  0  0
  8  9  1  0  0  0
  8 18  1  0  0  0
  9 10  2  0  0  0
 10 11  1  0  0  0
 11 16  1  0  0  0
 11 12  2  0  0  0
 12 13  1  0  0  0
 12 27  1  0  0  0
 13 14  2  0  0  0
 13 28  1  0  0  0
 14 15  1  0  0  0
 14 17  1  0  0  0
 15 16  2  0  0  0
 15 29  1  0  0  0
 16 30  1  0  0  0
 17 31  1  0  0  0
 18 23  1  0  0  0
 18 19  1  0  0  0
 18 32  1  0  0  0
 19 20  1  0  0  0
 19 33  1  0  0  0
 19 34  1  0  0  0
 20 21  1  0  0  0
 20 35  1  0  0  0
 20 36  1  0  0  0
 21 22  1  0  0  0
 21 37  1  0  0  0
 21 38  1  0  0  0
 22 23  1  0  0  0
 22 39  1  0  0  0
 22 40  1  0  0  0
 23 41  1  0  0  0
 23 42  1  0  0  0
M  END
> <s_m_entry_id>
17287

> <s_m_entry_name>
ligand_docking-pose.214

> <s_m_Source_Path>
/home/csk/Desktop/cluster/DUD-E-result/esr1

> <s_m_Source_File>
ligand_docking-pose.sdf

> <i_m_Source_File_Index>
214

> <i_lp_mmshare_version>
53161

> <i_f3d_flags>
0

> <r_lp_tautomer_probability>
0.999999999997365

> <s_lp_Force_Field>
OPLS_2005

> <r_lp_Energy>
25.294584

> <b_lp_Chiralities_Consistent>
1

> <s_lp_Variant>
373318-1

> <s_i_glide_gridfile>
glide-grid_1sj0

> <i_i_glide_lignum>
6

> <i_i_glide_rotatable_bonds>
3

> <r_i_docking_score>
-8.98619202850763

> <r_i_glide_ligand_efficiency>
-0.390704001239462

> <r_i_glide_ligand_efficiency_sa>
-1.1111102068595

> <r_i_glide_ligand_efficiency_ln>
-2.17294271477747

> <r_i_glide_gscore>
-8.98619202850763

> <r_i_glide_lipo>
-5.06225996627419

> <r_i_glide_hbond>
0

> <r_i_glide_metal>
0

> <r_i_glide_rewards>
-2.26342066025338

> <r_i_glide_evdw>
-37.7234649658203

> <r_i_glide_ecoul>
-0.837400794029236

> <r_i_glide_erotb>
0.351271965415345

> <r_i_glide_esite>
0

> <r_i_glide_emodel>
-51.1021799183164

> <r_i_glide_energy>
-38.5608657598495

> <r_i_glide_einternal>
10.6013803482056

> <i_i_glide_confnum>
18

> <i_i_glide_posenum>
124

> <r_i_glide_eff_state_penalty>
0

> <s_user_duplicate_titles>
373318

> <s_m_subgroup_title>
dock_pv

> <s_m_subgroupid>
dock_pv1

> <b_m_subgroup_collapsed>
0

$$$$
125973
                    3D
 Schrodinger Suite 2021-1.
 43 46  0  0  1  0            999 V2000
   27.2477    1.1387   27.0483 C   0  0  0  0  0  0
   28.3521    0.2894   27.6514 C   0  0  0  0  0  0
   28.7004   -0.9922   26.8728 C   0  0  0  0  0  0
   29.6569   -1.9567   27.6261 C   0  0  0  0  0  0
   31.1056   -1.4667   27.8960 C   0  0  2  0  0  0
   31.2360   -0.3482   28.9541 C   0  0  1  0  0  0
   31.8153   -0.5832   30.3596 C   0  0  0  0  0  0
   32.8599    0.1245   30.8491 C   0  0  0  0  0  0
   33.5958    1.0580   30.0066 C   0  0  0  0  0  0
   33.2226    1.2341   28.7262 C   0  0  0  0  0  0
   32.0837    0.6330   28.2860 N   0  0  0  0  0  0
   32.3327    0.3249   26.9976 C   0  0  0  0  0  0
   31.7849   -0.8559   26.6693 C   0  0  0  0  0  0
   32.1780   -1.6236   25.4816 C   0  0  0  0  0  0
   31.6424   -1.3706   24.2169 C   0  0  0  0  0  0
   32.0615   -2.1327   23.1252 C   0  0  0  0  0  0
   33.0225   -3.1249   23.2950 C   0  0  0  0  0  0
   33.5664   -3.3643   24.5490 C   0  0  0  0  0  0
   33.1261   -2.6347   25.6445 C   0  0  0  0  0  0
   33.4354   -3.8824   22.2329 O   0  0  0  0  0  0
   33.2605    1.3152   26.4895 C   0  0  0  0  0  0
   33.8248    1.8812   27.5767 C   0  0  0  0  0  0
   26.8774    1.8580   27.7764 H   0  0  0  0  0  0
   27.6441    1.6964   26.1975 H   0  0  0  0  0  0
   26.4009    0.5312   26.7287 H   0  0  0  0  0  0
   29.2196    0.9449   27.7014 H   0  0  0  0  0  0
   28.0659    0.0164   28.6643 H   0  0  0  0  0  0
   27.7786   -1.5363   26.6602 H   0  0  0  0  0  0
   29.1132   -0.7320   25.8972 H   0  0  0  0  0  0
   29.1991   -2.2533   28.5712 H   0  0  0  0  0  0
   29.7221   -2.8796   27.0475 H   0  0  0  0  0  0
   31.6966   -2.3194   28.2283 H   0  0  0  0  0  0
   30.2797    0.1062   29.1666 H   0  0  0  0  0  0
   31.3329   -1.3197   30.9909 H   0  0  0  0  0  0
   33.2218   -0.0695   31.8477 H   0  0  0  0  0  0
   34.5204    1.4873   30.3600 H   0  0  0  0  0  0
   30.9043   -0.5940   24.0811 H   0  0  0  0  0  0
   31.6575   -1.9555   22.1435 H   0  0  0  0  0  0
   34.3064   -4.1387   24.6734 H   0  0  0  0  0  0
   33.5453   -2.8390   26.6186 H   0  0  0  0  0  0
   32.8710   -3.8151   21.4586 H   0  0  0  0  0  0
   33.5733    1.4563   25.4647 H   0  0  0  0  0  0
   34.6670    2.5583   27.5800 H   0  0  0  0  0  0
  1  2  1  0  0  0
  1 23  1  0  0  0
  1 24  1  0  0  0
  1 25  1  0  0  0
  2  3  1  0  0  0
  2 26  1  0  0  0
  2 27  1  0  0  0
  3  4  1  0  0  0
  3 28  1  0  0  0
  3 29  1  0  0  0
  4  5  1  0  0  0
  4 30  1  0  0  0
  4 31  1  0  0  0
  5 13  1  0  0  0
  5  6  1  0  0  0
  5 32  1  0  0  0
  6 11  1  0  0  0
  6  7  1  0  0  0
  6 33  1  0  0  0
  7  8  2  0  0  0
  7 34  1  0  0  0
  8  9  1  0  0  0
  8 35  1  0  0  0
  9 10  2  0  0  0
  9 36  1  0  0  0
 10 22  1  0  0  0
 10 11  1  0  0  0
 11 12  1  0  0  0
 12 13  2  0  0  0
 12 21  1  0  0  0
 13 14  1  0  0  0
 14 19  1  0  0  0
 14 15  2  0  0  0
 15 16  1  0  0  0
 15 37  1  0  0  0
 16 17  2  0  0  0
 16 38  1  0  0  0
 17 18  1  0  0  0
 17 20  1  0  0  0
 18 19  2  0  0  0
 18 39  1  0  0  0
 19 40  1  0  0  0
 20 41  1  0  0  0
 21 22  2  0  0  0
 21 42  1  0  0  0
 22 43  1  0  0  0
M  END
> <s_m_entry_id>
17288

> <s_m_entry_name>
ligand_docking-pose.215

> <s_m_Source_Path>
/home/csk/Desktop/cluster/DUD-E-result/esr1

> <s_m_Source_File>
ligand_docking-pose.sdf

> <i_m_Source_File_Index>
215

> <i_lp_mmshare_version>
53161

> <i_f3d_flags>
0

> <r_lp_tautomer_probability>
1

> <s_lp_Force_Field>
OPLS_2005

> <r_lp_Energy>
72.491349

> <b_lp_Chiralities_Consistent>
1

> <s_lp_Variant>
125973-1

> <s_i_glide_gridfile>
glide-grid_1sj0

> <i_i_glide_lignum>
1368

> <i_i_glide_rotatable_bonds>
5

> <r_i_docking_score>
-8.98595908195114

> <r_i_glide_ligand_efficiency>
-0.408452685543233

> <r_i_glide_ligand_efficiency_sa>
-1.14450048842472

> <r_i_glide_ligand_efficiency_ln>
-2.1964961704503

> <r_i_glide_gscore>
-8.98595908195114

> <r_i_glide_lipo>
-5.41602948396657

> <r_i_glide_hbond>
0

> <r_i_glide_metal>
0

> <r_i_glide_rewards>
-2.37222565417764

> <r_i_glide_evdw>
-36.7600440979004

> <r_i_glide_ecoul>
-0.0278954934328794

> <r_i_glide_erotb>
0.644482585103022

> <r_i_glide_esite>
0

> <r_i_glide_emodel>
-51.9040325581133

> <r_i_glide_energy>
-36.7879395913333

> <r_i_glide_einternal>
5.38354825973511

> <i_i_glide_confnum>
25

> <i_i_glide_posenum>
7

> <r_i_glide_eff_state_penalty>
0

> <s_user_duplicate_titles>
125973

> <s_m_subgroup_title>
dock_pv

> <s_m_subgroupid>
dock_pv1

> <b_m_subgroup_collapsed>
0

$$$$
402878
                    3D
 Schrodinger Suite 2021-1.
 54 57  0  0  1  0            999 V2000
   35.3803   -0.4108   17.5650 C   0  0  0  0  0  0
   34.8160   -1.4131   18.5568 C   0  0  0  0  0  0
   33.6660   -2.1376   18.2385 C   0  0  0  0  0  0
   33.1561   -3.0648   19.1443 C   0  0  0  0  0  0
   33.7929   -3.2751   20.3694 C   0  0  0  0  0  0
   34.9536   -2.5566   20.6783 C   0  0  0  0  0  0
   35.4601   -1.6241   19.7758 C   0  0  0  0  0  0
   33.2152   -4.3133   21.3323 C   0  0  0  0  0  0
   33.6586   -4.1418   22.6820 O   0  0  0  0  0  0
   33.0524   -3.2140   23.5050 C   0  0  0  0  0  0
   33.3696   -3.2833   24.8598 C   0  0  0  0  0  0
   32.7921   -2.4022   25.7698 C   0  0  0  0  0  0
   31.8974   -1.4190   25.3280 C   0  0  0  0  0  0
   31.5977   -1.3389   23.9682 C   0  0  0  0  0  0
   32.1599   -2.2319   23.0636 C   0  0  0  0  0  0
   31.2216   -0.4407   26.3041 C   0  0  1  0  0  0
   29.8623   -1.0090   26.7148 C   0  0  0  0  0  0
   28.6995   -0.8429   25.9544 C   0  0  0  0  0  0
   27.5007   -1.4677   26.3131 C   0  0  0  0  0  0
   27.4501   -2.2505   27.4646 C   0  0  0  0  0  0
   28.5834   -2.3759   28.2547 C   0  0  0  0  0  0
   29.7635   -1.7179   27.9176 C   0  0  0  0  0  0
   30.8026   -1.7423   28.8295 O   0  0  0  0  0  0
   31.7802   -0.8033   28.7156 C   0  0  0  0  0  0
   32.0272   -0.1053   27.5744 C   0  0  0  0  0  0
   33.1220    0.8914   27.4028 C   0  0  0  0  0  0
   33.2611    1.5423   26.3636 O   0  0  0  0  0  0
   33.9688    1.0025   28.4531 O   0  0  0  0  0  0
   35.1033    1.8570   28.3853 C   0  0  0  0  0  0
   32.4121   -0.7337   29.9264 N   0  0  0  0  0  0
   26.2965   -2.8814   27.8575 O   0  0  0  0  0  0
   36.4662   -0.4986   17.5147 H   0  0  0  0  0  0
   35.0031   -0.5810   16.5553 H   0  0  0  0  0  0
   35.1433    0.6107   17.8637 H   0  0  0  0  0  0
   33.1642   -1.9836   17.2937 H   0  0  0  0  0  0
   32.2671   -3.6270   18.8914 H   0  0  0  0  0  0
   35.4595   -2.7167   21.6194 H   0  0  0  0  0  0
   36.3532   -1.0690   20.0252 H   0  0  0  0  0  0
   33.5404   -5.3004   21.0010 H   0  0  0  0  0  0
   32.1243   -4.3233   21.2849 H   0  0  0  0  0  0
   34.0580   -4.0392   25.2042 H   0  0  0  0  0  0
   33.0422   -2.4937   26.8169 H   0  0  0  0  0  0
   30.9123   -0.5844   23.6097 H   0  0  0  0  0  0
   31.8985   -2.1427   22.0211 H   0  0  0  0  0  0
   31.0282    0.4826   25.7614 H   0  0  0  0  0  0
   28.7385   -0.2363   25.0643 H   0  0  0  0  0  0
   26.6217   -1.3473   25.6976 H   0  0  0  0  0  0
   28.5170   -2.9821   29.1298 H   0  0  0  0  0  0
   35.6156    1.8505   29.3462 H   0  0  0  0  0  0
   35.8047    1.5227   27.6161 H   0  0  0  0  0  0
   34.8143    2.8863   28.1650 H   0  0  0  0  0  0
   33.2049   -0.1189   30.0535 H   0  0  0  0  0  0
   32.1431   -1.3370   30.6891 H   0  0  0  0  0  0
   25.6801   -3.0118   27.1191 H   0  0  0  0  0  0
  1  2  1  0  0  0
  1 32  1  0  0  0
  1 33  1  0  0  0
  1 34  1  0  0  0
  2  7  1  0  0  0
  2  3  2  0  0  0
  3  4  1  0  0  0
  3 35  1  0  0  0
  4  5  2  0  0  0
  4 36  1  0  0  0
  5  6  1  0  0  0
  5  8  1  0  0  0
  6  7  2  0  0  0
  6 37  1  0  0  0
  7 38  1  0  0  0
  8  9  1  0  0  0
  8 39  1  0  0  0
  8 40  1  0  0  0
  9 10  1  0  0  0
 10 15  1  0  0  0
 10 11  2  0  0  0
 11 12  1  0  0  0
 11 41  1  0  0  0
 12 13  2  0  0  0
 12 42  1  0  0  0
 13 14  1  0  0  0
 13 16  1  0  0  0
 14 15  2  0  0  0
 14 43  1  0  0  0
 15 44  1  0  0  0
 16 25  1  0  0  0
 16 17  1  0  0  0
 16 45  1  0  0  0
 17 22  2  0  0  0
 17 18  1  0  0  0
 18 19  2  0  0  0
 18 46  1  0  0  0
 19 20  1  0  0  0
 19 47  1  0  0  0
 20 21  2  0  0  0
 20 31  1  0  0  0
 21 22  1  0  0  0
 21 48  1  0  0  0
 22 23  1  0  0  0
 23 24  1  0  0  0
 24 25  2  0  0  0
 24 30  1  0  0  0
 25 26  1  0  0  0
 26 27  2  0  0  0
 26 28  1  0  0  0
 28 29  1  0  0  0
 29 49  1  0  0  0
 29 50  1  0  0  0
 29 51  1  0  0  0
 30 52  1  0  0  0
 30 53  1  0  0  0
 31 54  1  0  0  0
M  END
> <s_m_entry_id>
17289

> <s_m_entry_name>
ligand_docking-pose.216

> <s_m_Source_Path>
/home/csk/Desktop/cluster/DUD-E-result/esr1

> <s_m_Source_File>
ligand_docking-pose.sdf

> <i_m_Source_File_Index>
216

> <i_lp_mmshare_version>
53161

> <i_f3d_flags>
0

> <r_lp_tautomer_probability>
1

> <s_lp_Force_Field>
OPLS_2005

> <r_lp_Energy>
39.318981

> <b_lp_Chiralities_Consistent>
1

> <s_lp_Variant>
402878-2

> <s_i_glide_gridfile>
glide-grid_1sj0

> <i_i_glide_lignum>
998

> <i_i_glide_rotatable_bonds>
7

> <r_i_docking_score>
-8.97731522977766

> <r_i_glide_ligand_efficiency>
-0.289590813863796

> <r_i_glide_ligand_efficiency_sa>
-0.909714978740688

> <r_i_glide_ligand_efficiency_ln>
-2.02465970598579

> <r_i_glide_gscore>
-8.97731522977766

> <r_i_glide_lipo>
-4.49939014981262

> <r_i_glide_hbond>
-0.16

> <r_i_glide_metal>
0

> <r_i_glide_rewards>
-1.56021889232455

> <r_i_glide_evdw>
-51.7670288085938

> <r_i_glide_ecoul>
-4.90966701507568

> <r_i_glide_erotb>
0.567095305050545

> <r_i_glide_esite>
0

> <r_i_glide_emodel>
-81.6667672355363

> <r_i_glide_energy>
-56.6766958236694

> <r_i_glide_einternal>
5.02323055267334

> <i_i_glide_confnum>
14

> <i_i_glide_posenum>
76

> <r_i_glide_eff_state_penalty>
0

> <s_user_duplicate_titles>
402878

> <s_m_subgroup_title>
dock_pv

> <s_m_subgroupid>
dock_pv1

> <b_m_subgroup_collapsed>
0

$$$$
328931
                    3D
 Schrodinger Suite 2021-1.
 64 67  0  0  1  0            999 V2000
   28.8472    2.2580   28.4550 C   0  0  0  0  0  0
   29.6600    1.3593   29.3581 C   0  0  0  0  0  0
   29.9808    0.0695   28.6640 C   0  0  0  0  0  0
   31.1736   -0.4177   28.2705 C   0  0  0  0  0  0
   31.0540   -1.6947   27.4971 C   0  0  1  0  0  0
   29.5835   -1.9233   27.6345 C   0  0  0  0  0  0
   28.9329   -0.8638   28.2279 C   0  0  0  0  0  0
   27.5256   -0.8513   28.2640 C   0  0  0  0  0  0
   26.7864   -1.9175   27.7531 C   0  0  0  0  0  0
   27.4728   -2.9943   27.2155 C   0  0  0  0  0  0
   28.8446   -2.9718   27.1720 C   0  0  0  0  0  0
   26.8600   -4.0685   26.6641 O   0  0  0  0  0  0
   31.4349   -1.5392   26.0035 C   0  0  0  0  0  0
   30.9993   -0.5813   25.3586 O   0  0  0  0  0  0
   32.2283   -2.4975   25.4799 N   0  0  0  0  0  0
   32.5194   -2.7173   24.1218 C   0  0  0  0  0  0
   33.6696   -3.4371   23.8153 C   0  0  0  0  0  0
   33.9597   -3.7696   22.4909 C   0  0  0  0  0  0
   33.0637   -3.4473   21.4696 C   0  0  0  0  0  0
   31.9080   -2.7550   21.7845 C   0  0  0  0  0  0
   31.6600   -2.3386   23.0863 C   0  0  0  0  0  0
   33.2427   -3.7500   20.1389 O   0  0  0  0  0  0
   34.0975   -4.8305   19.7793 C   0  0  0  0  0  0
   33.7667   -5.2932   18.3438 C   0  0  0  0  0  0
   34.3342   -4.4531   17.2760 N   0  0  0  0  0  0
   34.0313   -5.0479   15.9765 C   0  0  0  0  0  0
   33.8296   -3.0800   17.3038 C   0  0  0  0  0  0
   32.4034    0.3481   28.3025 C   0  0  0  0  0  0
   33.5043   -0.0703   29.0477 C   0  0  0  0  0  0
   34.6589    0.6984   29.0224 C   0  0  0  0  0  0
   34.6800    1.8535   28.2462 C   0  0  0  0  0  0
   33.6076    2.2426   27.4640 C   0  0  0  0  0  0
   32.4604    1.4795   27.4925 C   0  0  0  0  0  0
   35.7581    2.6580   28.2640 O   0  0  0  0  0  0
   28.4602    3.0580   29.0641 H   0  0  0  0  0  0
   29.4724    2.6580   27.6574 H   0  0  0  0  0  0
   27.9890    1.7783   27.9899 H   0  0  0  0  0  0
   29.1312    1.1605   30.2827 H   0  0  0  0  0  0
   30.5824    1.8583   29.6539 H   0  0  0  0  0  0
   31.6454   -2.4959   27.9374 H   0  0  0  0  0  0
   26.9599   -0.0404   28.6640 H   0  0  0  0  0  0
   25.7069   -1.9043   27.7677 H   0  0  0  0  0  0
   29.3565   -3.7420   26.6640 H   0  0  0  0  0  0
   25.9549   -3.8786   26.3300 H   0  0  0  0  0  0
   32.6606   -3.1427   26.1218 H   0  0  0  0  0  0
   34.3484   -3.7420   24.5986 H   0  0  0  0  0  0
   34.8600   -4.3134   22.2632 H   0  0  0  0  0  0
   31.2026   -2.5420   20.9963 H   0  0  0  0  0  0
   30.7609   -1.7754   23.2811 H   0  0  0  0  0  0
   35.1429   -4.5307   19.8620 H   0  0  0  0  0  0
   33.9380   -5.6746   20.4540 H   0  0  0  0  0  0
   34.1379   -6.3128   18.2275 H   0  0  0  0  0  0
   32.6821   -5.3512   18.2322 H   0  0  0  0  0  0
   34.4823   -4.4684   15.1692 H   0  0  0  0  0  0
   34.4336   -6.0600   15.9104 H   0  0  0  0  0  0
   32.9555   -5.0985   15.7971 H   0  0  0  0  0  0
   34.2101   -2.5061   16.4573 H   0  0  0  0  0  0
   32.7386   -3.0506   17.2723 H   0  0  0  0  0  0
   34.1582   -2.5608   18.2039 H   0  0  0  0  0  0
   33.4613   -0.9660   29.6510 H   0  0  0  0  0  0
   35.5180    0.4105   29.6110 H   0  0  0  0  0  0
   33.6596    3.1317   26.8555 H   0  0  0  0  0  0
   31.6131    1.7673   26.8878 H   0  0  0  0  0  0
   36.5375    2.2093   28.6253 H   0  0  0  0  0  0
  1  2  1  0  0  0
  1 35  1  0  0  0
  1 36  1  0  0  0
  1 37  1  0  0  0
  2  3  1  0  0  0
  2 38  1  0  0  0
  2 39  1  0  0  0
  3  7  1  0  0  0
  3  4  2  0  0  0
  4  5  1  0  0  0
  4 28  1  0  0  0
  5  6  1  0  0  0
  5 13  1  0  0  0
  5 40  1  0  0  0
  6 11  2  0  0  0
  6  7  1  0  0  0
  7  8  2  0  0  0
  8  9  1  0  0  0
  8 41  1  0  0  0
  9 10  2  0  0  0
  9 42  1  0  0  0
 10 11  1  0  0  0
 10 12  1  0  0  0
 11 43  1  0  0  0
 12 44  1  0  0  0
 13 14  2  0  0  0
 13 15  1  0  0  0
 15 16  1  0  0  0
 15 45  1  0  0  0
 16 21  1  0  0  0
 16 17  2  0  0  0
 17 18  1  0  0  0
 17 46  1  0  0  0
 18 19  2  0  0  0
 18 47  1  0  0  0
 19 20  1  0  0  0
 19 22  1  0  0  0
 20 21  2  0  0  0
 20 48  1  0  0  0
 21 49  1  0  0  0
 22 23  1  0  0  0
 23 24  1  0  0  0
 23 50  1  0  0  0
 23 51  1  0  0  0
 24 25  1  0  0  0
 24 52  1  0  0  0
 24 53  1  0  0  0
 25 26  1  0  0  0
 25 27  1  0  0  0
 26 54  1  0  0  0
 26 55  1  0  0  0
 26 56  1  0  0  0
 27 57  1  0  0  0
 27 58  1  0  0  0
 27 59  1  0  0  0
 28 33  1  0  0  0
 28 29  2  0  0  0
 29 30  1  0  0  0
 29 60  1  0  0  0
 30 31  2  0  0  0
 30 61  1  0  0  0
 31 32  1  0  0  0
 31 34  1  0  0  0
 32 33  2  0  0  0
 32 62  1  0  0  0
 33 63  1  0  0  0
 34 64  1  0  0  0
M  END
> <s_m_entry_id>
17290

> <s_m_entry_name>
ligand_docking-pose.217

> <s_m_Source_Path>
/home/csk/Desktop/cluster/DUD-E-result/esr1

> <s_m_Source_File>
ligand_docking-pose.sdf

> <i_m_Source_File_Index>
217

> <i_lp_mmshare_version>
53161

> <i_f3d_flags>
0

> <r_lp_tautomer_probability>
1

> <s_lp_Force_Field>
OPLS_2005

> <r_lp_Energy>
50.531092

> <b_lp_Chiralities_Consistent>
1

> <s_lp_Variant>
328931-1

> <s_i_glide_gridfile>
glide-grid_1sj0

> <i_i_glide_lignum>
1136

> <i_i_glide_rotatable_bonds>
11

> <r_i_docking_score>
-8.96574518652134

> <r_i_glide_ligand_efficiency>
-0.263698387838863

> <r_i_glide_ligand_efficiency_sa>
-0.85428040821646

> <r_i_glide_ligand_efficiency_ln>
-1.98078459233683

> <r_i_glide_gscore>
-8.96574518652134

> <r_i_glide_lipo>
-4.48301624089724

> <r_i_glide_hbond>
-0.456

> <r_i_glide_metal>
0

> <r_i_glide_rewards>
-1.45135449970555

> <r_i_glide_evdw>
-27.9424896240234

> <r_i_glide_ecoul>
-12.3190202713013

> <r_i_glide_erotb>
0.669603075977818

> <r_i_glide_esite>
0

> <r_i_glide_emodel>
-40.4841433662474

> <r_i_glide_energy>
-40.2615098953247

> <r_i_glide_einternal>
13.5361013412476

> <i_i_glide_confnum>
2

> <i_i_glide_posenum>
6

> <r_i_glide_eff_state_penalty>
0

> <s_user_duplicate_titles>
328931

> <s_m_subgroup_title>
dock_pv

> <s_m_subgroupid>
dock_pv1

> <b_m_subgroup_collapsed>
0

$$$$
396501
                    3D
 Schrodinger Suite 2021-1.
 38 41  0  0  1  0            999 V2000
   27.7667    1.4560   27.8640 C   0  0  0  0  0  0
   27.2585    0.3015   27.2734 C   0  0  0  0  0  0
   28.1278   -0.7094   26.8744 C   0  0  0  0  0  0
   29.4970   -0.5544   27.0807 C   0  0  0  0  0  0
   30.0239    0.5783   27.7381 C   0  0  0  0  0  0
   29.1314    1.5807   28.1191 C   0  0  0  0  0  0
   31.5390    0.7179   27.9603 C   0  0  1  0  0  0
   31.9621    0.6006   29.4430 C   0  0  0  0  0  0
   33.0914   -0.4303   29.4715 C   0  0  0  0  0  0
   32.7879   -1.3495   28.2938 C   0  0  0  0  0  0
   32.3425   -0.3782   27.1895 C   0  0  1  0  0  0
   31.4980   -0.9460   26.0137 C   0  0  2  0  0  0
   30.3110   -1.5283   26.5445 O   0  0  0  0  0  0
   32.1862   -1.8547   24.9966 C   0  0  0  0  0  0
   32.9828   -2.9412   25.3660 C   0  0  0  0  0  0
   33.6154   -3.7012   24.3841 C   0  0  0  0  0  0
   33.4213   -3.4085   23.0391 C   0  0  0  0  0  0
   32.5797   -2.3732   22.6639 C   0  0  0  0  0  0
   31.9733   -1.5953   23.6404 C   0  0  0  0  0  0
   34.0595   -4.1418   22.0796 O   0  0  0  0  0  0
   31.8650    1.6735   27.5449 H   0  0  0  0  0  0
   33.2373    0.0906   26.7736 H   0  0  0  0  0  0
   31.2245   -0.0729   25.4121 H   0  0  0  0  0  0
   27.0949    2.2418   28.1669 H   0  0  0  0  0  0
   26.1958    0.2042   27.1026 H   0  0  0  0  0  0
   27.7488   -1.5899   26.3757 H   0  0  0  0  0  0
   29.5020    2.4708   28.6058 H   0  0  0  0  0  0
   32.3389    1.5414   29.8458 H   0  0  0  0  0  0
   31.1538    0.2072   30.0630 H   0  0  0  0  0  0
   33.1371   -0.9696   30.4183 H   0  0  0  0  0  0
   34.0583    0.0565   29.3291 H   0  0  0  0  0  0
   31.9861   -2.0444   28.5518 H   0  0  0  0  0  0
   33.6601   -1.9370   28.0228 H   0  0  0  0  0  0
   33.1169   -3.2141   26.3987 H   0  0  0  0  0  0
   34.2302   -4.5369   24.6640 H   0  0  0  0  0  0
   32.4135   -2.1447   21.6218 H   0  0  0  0  0  0
   31.3378   -0.7775   23.3359 H   0  0  0  0  0  0
   33.7087   -4.0082   21.1957 H   0  0  0  0  0  0
  1  6  1  0  0  0
  1  2  2  0  0  0
  1 24  1  0  0  0
  2  3  1  0  0  0
  2 25  1  0  0  0
  3  4  2  0  0  0
  3 26  1  0  0  0
  4 13  1  0  0  0
  4  5  1  0  0  0
  5  6  2  0  0  0
  5  7  1  0  0  0
  6 27  1  0  0  0
  7 21  1  0  0  0
  7 11  1  0  0  0
  7  8  1  0  0  0
  8  9  1  0  0  0
  8 28  1  0  0  0
  8 29  1  0  0  0
  9 10  1  0  0  0
  9 30  1  0  0  0
  9 31  1  0  0  0
 10 11  1  0  0  0
 10 32  1  0  0  0
 10 33  1  0  0  0
 11 22  1  0  0  0
 11 12  1  0  0  0
 12 23  1  0  0  0
 12 13  1  0  0  0
 12 14  1  0  0  0
 14 19  1  0  0  0
 14 15  2  0  0  0
 15 16  1  0  0  0
 15 34  1  0  0  0
 16 17  2  0  0  0
 16 35  1  0  0  0
 17 18  1  0  0  0
 17 20  1  0  0  0
 18 19  2  0  0  0
 18 36  1  0  0  0
 19 37  1  0  0  0
 20 38  1  0  0  0
M  END
> <s_m_entry_id>
17291

> <s_m_entry_name>
ligand_docking-pose.218

> <s_m_Source_Path>
/home/csk/Desktop/cluster/DUD-E-result/esr1

> <s_m_Source_File>
ligand_docking-pose.sdf

> <i_m_Source_File_Index>
218

> <i_lp_mmshare_version>
53161

> <i_f3d_flags>
0

> <r_lp_tautomer_probability>
0.999999999997365

> <s_lp_Force_Field>
OPLS_2005

> <r_lp_Energy>
34.23952

> <b_lp_Chiralities_Consistent>
1

> <s_lp_Variant>
396501-1

> <s_i_glide_gridfile>
glide-grid_1sj0

> <i_i_glide_lignum>
103

> <i_i_glide_rotatable_bonds>
2

> <r_i_docking_score>
-8.95560640226332

> <r_i_glide_ligand_efficiency>
-0.447780320113166

> <r_i_glide_ligand_efficiency_sa>
-1.21546278806595

> <r_i_glide_ligand_efficiency_ln>
-2.24129290681875

> <r_i_glide_gscore>
-8.95560640226332

> <r_i_glide_lipo>
-4.99871062978751

> <r_i_glide_hbond>
0

> <r_i_glide_metal>
0

> <r_i_glide_rewards>
-2.49317509090909

> <r_i_glide_evdw>
-32.3665084838867

> <r_i_glide_ecoul>
-0.643358111381531

> <r_i_glide_erotb>
0.251108459334845

> <r_i_glide_esite>
0

> <r_i_glide_emodel>
-42.0638596683005

> <r_i_glide_energy>
-33.0098665952682

> <r_i_glide_einternal>
7.88637065887451

> <i_i_glide_confnum>
1

> <i_i_glide_posenum>
374

> <r_i_glide_eff_state_penalty>
0

> <s_user_duplicate_titles>
396501

> <s_m_subgroup_title>
dock_pv

> <s_m_subgroupid>
dock_pv1

> <b_m_subgroup_collapsed>
0

$$$$
89006
                    3D
 Schrodinger Suite 2021-1.
 39 41  0  0  1  0            999 V2000
   29.1354    1.4812   28.6521 C   0  0  0  0  0  0
   30.5746    1.0372   28.8060 C   0  0  0  0  0  0
   31.2464    1.2125   29.9659 C   0  0  0  0  0  0
   32.7221    0.8828   30.1766 C   0  0  0  0  0  0
   33.3841    0.2236   28.9212 C   0  0  2  0  0  0
   32.7591    0.8226   27.6293 C   0  0  0  0  0  0
   31.2662    0.4511   27.5711 C   0  0  1  0  0  0
   31.1220   -1.1013   27.5070 C   0  0  2  0  0  0
   31.7247   -1.6570   28.6884 O   0  0  0  0  0  0
   33.0944   -1.3048   28.9422 C   0  0  0  0  0  0
   31.6507   -1.7301   26.2002 C   0  0  0  0  0  0
   32.4669   -2.8675   26.2310 C   0  0  0  0  0  0
   33.0554   -3.3420   25.0660 C   0  0  0  0  0  0
   32.7627   -2.7502   23.8464 C   0  0  0  0  0  0
   31.8929   -1.6675   23.7879 C   0  0  0  0  0  0
   31.3413   -1.1547   24.9599 C   0  0  0  0  0  0
   33.3299   -3.2499   22.7058 O   0  0  0  0  0  0
   34.9166    0.4578   28.9171 C   0  0  0  0  0  0
   35.2599    1.8053   28.6640 O   0  0  0  0  0  0
   30.8304    0.9196   26.6900 H   0  0  0  0  0  0
   28.4679    0.6191   28.6619 H   0  0  0  0  0  0
   28.8600    2.1487   29.4655 H   0  0  0  0  0  0
   28.9913    2.0262   27.7193 H   0  0  0  0  0  0
   30.7128    1.6458   30.7988 H   0  0  0  0  0  0
   32.8880    0.2995   31.0834 H   0  0  0  0  0  0
   33.1716    1.8570   30.3572 H   0  0  0  0  0  0
   32.8683    1.9091   27.6091 H   0  0  0  0  0  0
   33.2734    0.4601   26.7389 H   0  0  0  0  0  0
   30.0629   -1.3623   27.5385 H   0  0  0  0  0  0
   33.7469   -1.8139   28.2405 H   0  0  0  0  0  0
   33.3717   -1.7242   29.9093 H   0  0  0  0  0  0
   32.6858   -3.3751   27.1577 H   0  0  0  0  0  0
   33.7297   -4.1797   25.1034 H   0  0  0  0  0  0
   31.6621   -1.2111   22.8402 H   0  0  0  0  0  0
   30.6842   -0.3012   24.8903 H   0  0  0  0  0  0
   32.9559   -2.8896   21.8994 H   0  0  0  0  0  0
   35.3976   -0.1422   28.1435 H   0  0  0  0  0  0
   35.3611    0.1463   29.8629 H   0  0  0  0  0  0
   36.2262    1.8575   28.6643 H   0  0  0  0  0  0
  1  2  1  0  0  0
  1 21  1  0  0  0
  1 22  1  0  0  0
  1 23  1  0  0  0
  2  7  1  0  0  0
  2  3  2  0  0  0
  3  4  1  0  0  0
  3 24  1  0  0  0
  4  5  1  0  0  0
  4 25  1  0  0  0
  4 26  1  0  0  0
  5 10  1  0  0  0
  5  6  1  0  0  0
  5 18  1  0  0  0
  6  7  1  0  0  0
  6 27  1  0  0  0
  6 28  1  0  0  0
  7 20  1  0  0  0
  7  8  1  0  0  0
  8  9  1  0  0  0
  8 11  1  0  0  0
  8 29  1  0  0  0
  9 10  1  0  0  0
 10 30  1  0  0  0
 10 31  1  0  0  0
 11 16  1  0  0  0
 11 12  2  0  0  0
 12 13  1  0  0  0
 12 32  1  0  0  0
 13 14  2  0  0  0
 13 33  1  0  0  0
 14 15  1  0  0  0
 14 17  1  0  0  0
 15 16  2  0  0  0
 15 34  1  0  0  0
 16 35  1  0  0  0
 17 36  1  0  0  0
 18 19  1  0  0  0
 18 37  1  0  0  0
 18 38  1  0  0  0
 19 39  1  0  0  0
M  END
> <s_m_entry_id>
17292

> <s_m_entry_name>
ligand_docking-pose.219

> <s_m_Source_Path>
/home/csk/Desktop/cluster/DUD-E-result/esr1

> <s_m_Source_File>
ligand_docking-pose.sdf

> <i_m_Source_File_Index>
219

> <i_lp_mmshare_version>
53161

> <i_f3d_flags>
0

> <r_lp_tautomer_probability>
0.999999999997365

> <s_lp_Force_Field>
OPLS_2005

> <r_lp_Energy>
30.011827

> <b_lp_Chiralities_Consistent>
1

> <s_lp_Variant>
89006-2

> <s_i_glide_gridfile>
glide-grid_1sj0

> <i_i_glide_lignum>
940

> <i_i_glide_rotatable_bonds>
4

> <r_i_docking_score>
-8.95401727707751

> <r_i_glide_ligand_efficiency>
-0.471264067214606

> <r_i_glide_ligand_efficiency_sa>
-1.25752181270463

> <r_i_glide_ligand_efficiency_ln>
-2.2700356943967

> <r_i_glide_gscore>
-8.95401727707751

> <r_i_glide_lipo>
-4.45648314899609

> <r_i_glide_hbond>
-0.32

> <r_i_glide_metal>
0

> <r_i_glide_rewards>
-2.53412590909091

> <r_i_glide_evdw>
-32.2337837219238

> <r_i_glide_ecoul>
-3.69391393661499

> <r_i_glide_erotb>
0.522368057597938

> <r_i_glide_esite>
0

> <r_i_glide_emodel>
-53.4217572370219

> <r_i_glide_energy>
-35.9276976585388

> <r_i_glide_einternal>
2.60870718955994

> <i_i_glide_confnum>
6

> <i_i_glide_posenum>
145

> <r_i_glide_eff_state_penalty>
0

> <s_user_duplicate_titles>
89006

> <s_m_subgroup_title>
dock_pv

> <s_m_subgroupid>
dock_pv1

> <b_m_subgroup_collapsed>
0

$$$$
360298
                    3D
 Schrodinger Suite 2021-1.
 39 42  0  0  1  0            999 V2000
   33.1328   -2.8036   25.0590 C   0  0  0  0  0  0
   33.3799   -3.7092   24.0307 C   0  0  0  0  0  0
   32.7000   -3.5961   22.8239 C   0  0  0  0  0  0
   31.8168   -2.5442   22.6167 C   0  0  0  0  0  0
   31.5896   -1.6223   23.6350 C   0  0  0  0  0  0
   32.2200   -1.7571   24.8751 C   0  0  0  0  0  0
   31.9352   -0.7601   26.0099 C   0  0  1  0  0  0
   30.4537   -0.2726   26.0989 C   0  0  1  0  0  0
   29.3844   -1.3420   26.3938 C   0  0  0  0  0  0
   28.3084   -0.6890   27.2760 C   0  0  0  0  0  0
   28.7429    0.7670   27.4565 C   0  0  0  0  0  0
   30.2574    0.7795   27.2001 C   0  0  1  0  0  0
   31.1416    0.4978   28.4170 C   0  0  0  0  0  0
   30.9889    1.2009   29.6144 C   0  0  0  0  0  0
   31.8310    0.9637   30.6978 C   0  0  0  0  0  0
   32.8490    0.0254   30.6012 C   0  0  0  0  0  0
   33.0082   -0.7103   29.4312 C   0  0  0  0  0  0
   32.1589   -0.4751   28.3512 C   0  0  0  0  0  0
   32.3324   -1.3084   27.2688 O   0  0  0  0  0  0
   31.6603    1.6458   31.8640 O   0  0  0  0  0  0
   32.8927   -4.5419   21.8544 O   0  0  0  0  0  0
   32.5791    0.0929   25.7840 H   0  0  0  0  0  0
   30.1804    0.2310   25.1726 H   0  0  0  0  0  0
   30.5751    1.7740   26.8835 H   0  0  0  0  0  0
   33.6523   -2.9259   25.9977 H   0  0  0  0  0  0
   34.0599   -4.5325   24.1846 H   0  0  0  0  0  0
   31.2918   -2.4697   21.6758 H   0  0  0  0  0  0
   30.8930   -0.8197   23.4641 H   0  0  0  0  0  0
   28.9547   -1.7225   25.4679 H   0  0  0  0  0  0
   29.8193   -2.1974   26.9152 H   0  0  0  0  0  0
   27.3142   -0.7593   26.8309 H   0  0  0  0  0  0
   28.2649   -1.1904   28.2452 H   0  0  0  0  0  0
   28.4598    1.1942   28.4187 H   0  0  0  0  0  0
   28.2547    1.4119   26.7239 H   0  0  0  0  0  0
   30.2055    1.9351   29.6970 H   0  0  0  0  0  0
   33.4986   -0.1416   31.4436 H   0  0  0  0  0  0
   33.7802   -1.4633   29.3661 H   0  0  0  0  0  0
   30.9232    2.2588   31.8345 H   0  0  0  0  0  0
   32.1828   -4.6543   21.2100 H   0  0  0  0  0  0
  1  6  1  0  0  0
  1  2  2  0  0  0
  1 25  1  0  0  0
  2  3  1  0  0  0
  2 26  1  0  0  0
  3  4  2  0  0  0
  3 21  1  0  0  0
  4  5  1  0  0  0
  4 27  1  0  0  0
  5  6  2  0  0  0
  5 28  1  0  0  0
  6  7  1  0  0  0
  7 22  1  0  0  0
  7 19  1  0  0  0
  7  8  1  0  0  0
  8 23  1  0  0  0
  8 12  1  0  0  0
  8  9  1  0  0  0
  9 10  1  0  0  0
  9 29  1  0  0  0
  9 30  1  0  0  0
 10 11  1  0  0  0
 10 31  1  0  0  0
 10 32  1  0  0  0
 11 12  1  0  0  0
 11 33  1  0  0  0
 11 34  1  0  0  0
 12 24  1  0  0  0
 12 13  1  0  0  0
 13 18  2  0  0  0
 13 14  1  0  0  0
 14 15  2  0  0  0
 14 35  1  0  0  0
 15 16  1  0  0  0
 15 20  1  0  0  0
 16 17  2  0  0  0
 16 36  1  0  0  0
 17 18  1  0  0  0
 17 37  1  0  0  0
 18 19  1  0  0  0
 20 38  1  0  0  0
 21 39  1  0  0  0
M  END
> <s_m_entry_id>
17293

> <s_m_entry_name>
ligand_docking-pose.220

> <s_m_Source_Path>
/home/csk/Desktop/cluster/DUD-E-result/esr1

> <s_m_Source_File>
ligand_docking-pose.sdf

> <i_m_Source_File_Index>
220

> <i_lp_mmshare_version>
53161

> <i_f3d_flags>
0

> <r_lp_tautomer_probability>
0.999999999997365

> <s_lp_Force_Field>
OPLS_2005

> <r_lp_Energy>
32.67643

> <b_lp_Chiralities_Consistent>
1

> <s_lp_Variant>
360298-1

> <s_i_glide_gridfile>
glide-grid_1sj0

> <i_i_glide_lignum>
482

> <i_i_glide_rotatable_bonds>
3

> <r_i_docking_score>
-8.95137156100846

> <r_i_glide_ligand_efficiency>
-0.42625578861945

> <r_i_glide_ligand_efficiency_sa>
-1.17600739935114

> <r_i_glide_ligand_efficiency_ln>
-2.21320853050997

> <r_i_glide_gscore>
-8.95137156100846

> <r_i_glide_lipo>
-4.85357477399583

> <r_i_glide_hbond>
-0.0557191717819053

> <r_i_glide_metal>
0

> <r_i_glide_rewards>
-2.27504203991808

> <r_i_glide_evdw>
-33.8965377807617

> <r_i_glide_ecoul>
-1.9944976568222

> <r_i_glide_erotb>
0.226965962248775

> <r_i_glide_esite>
0

> <r_i_glide_emodel>
-52.1308970026314

> <r_i_glide_energy>
-35.8910354375839

> <r_i_glide_einternal>
3.257155418396

> <i_i_glide_confnum>
3

> <i_i_glide_posenum>
158

> <r_i_glide_eff_state_penalty>
0

> <s_user_duplicate_titles>
360298

> <s_m_subgroup_title>
dock_pv

> <s_m_subgroupid>
dock_pv1

> <b_m_subgroup_collapsed>
0

$$$$
350917
                    3D
 Schrodinger Suite 2021-1.
 37 40  0  0  1  0            999 V2000
   26.5184   -2.8095   27.8634 C   0  0  0  0  0  0
   27.7747   -3.4053   27.8660 C   0  0  0  0  0  0
   28.8947   -2.6545   27.5263 C   0  0  0  0  0  0
   28.7719   -1.3057   27.1585 C   0  0  0  0  0  0
   27.4923   -0.7296   27.1419 C   0  0  0  0  0  0
   26.3728   -1.4735   27.5009 C   0  0  0  0  0  0
   30.0086   -0.4944   26.6856 C   0  0  1  0  0  0
   29.9424    0.9996   27.1290 C   0  0  0  0  0  0
   29.9695    1.1363   28.6682 C   0  0  0  0  0  0
   31.1348    0.3597   29.3106 C   0  0  0  0  0  0
   31.4652    0.5783   30.4756 O   0  0  0  0  0  0
   31.7961   -0.6666   28.4899 C   0  0  0  0  0  0
   31.3486   -1.0205   27.2516 C   0  0  0  0  0  0
   31.9483   -1.8820   26.2018 C   0  0  0  0  0  0
   33.0437   -2.7483   26.2218 C   0  0  0  0  0  0
   33.4954   -3.3419   25.0436 C   0  0  0  0  0  0
   32.8541   -3.0875   23.8375 C   0  0  0  0  0  0
   31.7572   -2.2297   23.8081 C   0  0  0  0  0  0
   31.2915   -1.6553   24.9928 C   0  0  0  0  0  0
   30.1821   -0.6668   25.1676 C   0  0  0  0  0  0
   33.3008   -3.6965   22.6967 O   0  0  0  0  0  0
   33.5159   -1.3626   29.1979 Br  0  0  0  0  0  0
   25.6462   -3.3977   28.1097 H   0  0  0  0  0  0
   27.8819   -4.4494   28.1209 H   0  0  0  0  0  0
   29.8542   -3.1494   27.5154 H   0  0  0  0  0  0
   27.3366    0.2912   26.8317 H   0  0  0  0  0  0
   25.3927   -1.0226   27.4688 H   0  0  0  0  0  0
   29.0757    1.5147   26.7156 H   0  0  0  0  0  0
   30.7969    1.5392   26.7185 H   0  0  0  0  0  0
   29.0568    0.6911   29.0631 H   0  0  0  0  0  0
   29.9999    2.1762   28.9930 H   0  0  0  0  0  0
   33.5729   -2.9766   27.1311 H   0  0  0  0  0  0
   34.3411   -4.0117   25.0632 H   0  0  0  0  0  0
   31.2632   -2.0324   22.8704 H   0  0  0  0  0  0
   30.4840    0.2580   24.6979 H   0  0  0  0  0  0
   29.2626   -0.9829   24.6754 H   0  0  0  0  0  0
   32.7064   -3.6104   21.9478 H   0  0  0  0  0  0
  1  6  1  0  0  0
  1  2  2  0  0  0
  1 23  1  0  0  0
  2  3  1  0  0  0
  2 24  1  0  0  0
  3  4  2  0  0  0
  3 25  1  0  0  0
  4  5  1  0  0  0
  4  7  1  0  0  0
  5  6  2  0  0  0
  5 26  1  0  0  0
  6 27  1  0  0  0
  7 13  1  0  0  0
  7 20  1  0  0  0
  7  8  1  0  0  0
  8  9  1  0  0  0
  8 28  1  0  0  0
  8 29  1  0  0  0
  9 10  1  0  0  0
  9 30  1  0  0  0
  9 31  1  0  0  0
 10 11  2  0  0  0
 10 12  1  0  0  0
 12 13  2  0  0  0
 12 22  1  0  0  0
 13 14  1  0  0  0
 14 19  1  0  0  0
 14 15  2  0  0  0
 15 16  1  0  0  0
 15 32  1  0  0  0
 16 17  2  0  0  0
 16 33  1  0  0  0
 17 18  1  0  0  0
 17 21  1  0  0  0
 18 19  2  0  0  0
 18 34  1  0  0  0
 19 20  1  0  0  0
 20 35  1  0  0  0
 20 36  1  0  0  0
 21 37  1  0  0  0
M  END
> <s_m_entry_id>
17294

> <s_m_entry_name>
ligand_docking-pose.221

> <s_m_Source_Path>
/home/csk/Desktop/cluster/DUD-E-result/esr1

> <s_m_Source_File>
ligand_docking-pose.sdf

> <i_m_Source_File_Index>
221

> <i_lp_mmshare_version>
53161

> <i_f3d_flags>
0

> <r_lp_tautomer_probability>
1

> <s_lp_Force_Field>
OPLS_2005

> <r_lp_Energy>
31.22154

> <b_lp_Chiralities_Consistent>
1

> <s_lp_Variant>
350917-1

> <s_i_glide_gridfile>
glide-grid_1sj0

> <i_i_glide_lignum>
147

> <i_i_glide_rotatable_bonds>
2

> <r_i_docking_score>
-8.94852936440122

> <r_i_glide_ligand_efficiency>
-0.40675133474551

> <r_i_glide_ligand_efficiency_sa>
-1.13973323657917

> <r_i_glide_ligand_efficiency_ln>
-2.18734698219898

> <r_i_glide_gscore>
-8.94852936440122

> <r_i_glide_lipo>
-4.72543221923569

> <r_i_glide_hbond>
0

> <r_i_glide_metal>
0

> <r_i_glide_rewards>
-2.17725556526078

> <r_i_glide_evdw>
-42.2664756774902

> <r_i_glide_ecoul>
-0.560173034667969

> <r_i_glide_erotb>
0.151508159169956

> <r_i_glide_esite>
0

> <r_i_glide_emodel>
-64.2508998180517

> <r_i_glide_energy>
-42.8266487121582

> <r_i_glide_einternal>
1.51987826824188

> <i_i_glide_confnum>
2

> <i_i_glide_posenum>
368

> <r_i_glide_eff_state_penalty>
0

> <s_user_duplicate_titles>
350917

> <s_m_subgroup_title>
dock_pv

> <s_m_subgroupid>
dock_pv1

> <b_m_subgroup_collapsed>
0

$$$$
357172
                    3D
 Schrodinger Suite 2021-1.
 43 46  0  0  1  0            999 V2000
   26.3871   -3.2681   28.1647 C   0  0  0  0  0  0
   27.4773   -3.4245   27.0985 C   0  0  0  0  0  0
   28.7989   -2.7002   27.4307 C   0  0  0  0  0  0
   28.6829   -1.1544   27.4695 C   0  0  0  0  0  0
   29.8848   -0.2991   26.9250 C   0  0  1  0  0  0
   29.6134    1.2116   27.1587 C   0  0  0  0  0  0
   29.6259    1.5783   28.6533 C   0  0  0  0  0  0
   30.8726    1.0569   29.3812 C   0  0  0  0  0  0
   31.0759    1.4193   30.5402 O   0  0  0  0  0  0
   31.6822   -0.0007   28.7171 C   0  0  0  0  0  0
   31.2337   -0.6488   27.5959 C   0  0  0  0  0  0
   31.8367   -1.7035   26.7229 C   0  0  0  0  0  0
   32.7974   -2.7012   26.9358 C   0  0  0  0  0  0
   33.2595   -3.4968   25.8815 C   0  0  0  0  0  0
   32.8622   -3.1958   24.5859 C   0  0  0  0  0  0
   31.8796   -2.2196   24.3654 C   0  0  0  0  0  0
   31.3006   -1.5420   25.4451 C   0  0  0  0  0  0
   30.1449   -0.6008   25.4384 C   0  0  0  0  0  0
   31.6415   -2.1365   23.0362 N   0  0  0  0  0  0
   32.4775   -3.0694   22.5472 N   0  0  3  0  0  0
   33.2558   -3.7438   23.4065 N   0  0  0  0  0  0
   33.0402   -0.2261   29.4112 C   0  0  0  0  0  0
   32.8495   -0.9408   30.5124 F   0  0  0  0  0  0
   33.9142   -0.8537   28.6376 F   0  0  0  0  0  0
   33.6255    0.9281   29.7396 F   0  0  0  0  0  0
   32.5125   -3.2661   21.5564 H   0  0  0  0  0  0
   25.4540   -3.7396   27.8583 H   0  0  0  0  0  0
   26.1672   -2.2209   28.3701 H   0  0  0  0  0  0
   26.6983   -3.7527   29.0832 H   0  0  0  0  0  0
   27.6718   -4.4878   26.9544 H   0  0  0  0  0  0
   27.0964   -3.0666   26.1412 H   0  0  0  0  0  0
   29.2060   -3.0688   28.3732 H   0  0  0  0  0  0
   29.5204   -3.0081   26.6801 H   0  0  0  0  0  0
   27.7943   -0.8531   26.9115 H   0  0  0  0  0  0
   28.4597   -0.8892   28.5026 H   0  0  0  0  0  0
   30.3766    1.8111   26.6642 H   0  0  0  0  0  0
   28.6630    1.5042   26.7098 H   0  0  0  0  0  0
   28.7767    1.1045   29.1332 H   0  0  0  0  0  0
   29.5363    2.6522   28.8208 H   0  0  0  0  0  0
   33.1614   -2.9206   27.9275 H   0  0  0  0  0  0
   33.9144   -4.3334   26.0210 H   0  0  0  0  0  0
   29.2709   -1.0304   24.9504 H   0  0  0  0  0  0
   30.4233    0.2582   24.8517 H   0  0  0  0  0  0
  1  2  1  0  0  0
  1 27  1  0  0  0
  1 28  1  0  0  0
  1 29  1  0  0  0
  2  3  1  0  0  0
  2 30  1  0  0  0
  2 31  1  0  0  0
  3  4  1  0  0  0
  3 32  1  0  0  0
  3 33  1  0  0  0
  4  5  1  0  0  0
  4 34  1  0  0  0
  4 35  1  0  0  0
  5 11  1  0  0  0
  5 18  1  0  0  0
  5  6  1  0  0  0
  6  7  1  0  0  0
  6 36  1  0  0  0
  6 37  1  0  0  0
  7  8  1  0  0  0
  7 38  1  0  0  0
  7 39  1  0  0  0
  8  9  2  0  0  0
  8 10  1  0  0  0
 10 11  2  0  0  0
 10 22  1  0  0  0
 11 12  1  0  0  0
 12 17  2  0  0  0
 12 13  1  0  0  0
 13 14  2  0  0  0
 13 40  1  0  0  0
 14 15  1  0  0  0
 14 41  1  0  0  0
 15 16  1  0  0  0
 15 21  2  0  0  0
 16 17  1  0  0  0
 16 19  2  0  0  0
 17 18  1  0  0  0
 18 42  1  0  0  0
 18 43  1  0  0  0
 19 20  1  0  0  0
 20 26  1  0  0  0
 20 21  1  0  0  0
 22 23  1  0  0  0
 22 24  1  0  0  0
 22 25  1  0  0  0
M  END
> <s_m_entry_id>
17295

> <s_m_entry_name>
ligand_docking-pose.222

> <s_m_Source_Path>
/home/csk/Desktop/cluster/DUD-E-result/esr1

> <s_m_Source_File>
ligand_docking-pose.sdf

> <i_m_Source_File_Index>
222

> <i_lp_mmshare_version>
53161

> <i_f3d_flags>
0

> <r_lp_tautomer_probability>
0.5

> <s_lp_Force_Field>
OPLS_2005

> <r_lp_Energy>
31.980474

> <b_lp_Chiralities_Consistent>
1

> <s_lp_Variant>
357172-1

> <s_i_glide_gridfile>
glide-grid_1sj0

> <i_i_glide_lignum>
1332

> <i_i_glide_rotatable_bonds>
4

> <r_i_docking_score>
-8.94618584759817

> <r_i_glide_ligand_efficiency>
-0.357847433903927

> <r_i_glide_ligand_efficiency_sa>
-1.04635224318635

> <r_i_glide_ligand_efficiency_ln>
-2.12051414143664

> <r_i_glide_gscore>
-8.94618584759817

> <r_i_glide_lipo>
-4.19204961539846

> <r_i_glide_hbond>
0

> <r_i_glide_metal>
0

> <r_i_glide_rewards>
-3.15978014044704

> <r_i_glide_evdw>
-36.6395797729492

> <r_i_glide_ecoul>
-0.496783822774887

> <r_i_glide_erotb>
0.312140470311027

> <r_i_glide_esite>
0

> <r_i_glide_emodel>
-52.7862674593043

> <r_i_glide_energy>
-37.1363635957241

> <r_i_glide_einternal>
5.51546430587769

> <i_i_glide_confnum>
6

> <i_i_glide_posenum>
77

> <r_i_glide_eff_state_penalty>
0

> <s_user_duplicate_titles>
357172

> <s_m_subgroup_title>
dock_pv

> <s_m_subgroupid>
dock_pv1

> <b_m_subgroup_collapsed>
0

$$$$
341872
                    3D
 Schrodinger Suite 2021-1.
 38 40  0  0  1  0            999 V2000
   32.5095   -1.1974   25.3593 C   0  0  0  0  0  0
   31.1396   -1.6532   25.8737 C   0  0  0  0  0  0
   31.0609   -1.9887   27.3897 C   0  0  1  0  0  0
   31.3791   -0.7842   28.3022 C   0  0  0  0  0  0
   32.6229   -0.5325   28.9131 C   0  0  0  0  0  0
   32.7988    0.6023   29.7178 C   0  0  0  0  0  0
   31.7294    1.4376   29.9857 C   0  0  0  0  0  0
   30.4943    1.1988   29.4068 C   0  0  0  0  0  0
   30.3193    0.0971   28.5658 C   0  0  0  0  0  0
   28.9902   -0.2489   28.0126 C   0  0  0  0  0  0
   27.9782    0.6918   27.8634 C   0  0  0  0  0  0
   26.7195    0.2820   27.4638 C   0  0  0  0  0  0
   26.4698   -1.0426   27.1215 C   0  0  0  0  0  0
   27.4812   -2.0053   27.2327 C   0  0  0  0  0  0
   28.7483   -1.5865   27.6558 C   0  0  0  0  0  0
   29.7664   -2.5201   27.7114 O   0  0  0  0  0  0
   27.2007   -3.4726   26.9253 C   0  0  0  0  0  0
   25.2203   -1.3418   26.6644 O   0  0  0  0  0  0
   34.0105    0.9240   30.2636 O   0  0  0  0  0  0
   33.7810   -1.4865   28.7179 C   0  0  0  0  0  0
   32.4586   -0.9661   24.2943 H   0  0  0  0  0  0
   32.8593   -0.2998   25.8727 H   0  0  0  0  0  0
   33.2587   -1.9791   25.4863 H   0  0  0  0  0  0
   30.8611   -2.5422   25.3101 H   0  0  0  0  0  0
   30.4027   -0.8915   25.6153 H   0  0  0  0  0  0
   31.7438   -2.8148   27.5701 H   0  0  0  0  0  0
   31.8561    2.2575   30.6678 H   0  0  0  0  0  0
   29.6743    1.8568   29.6537 H   0  0  0  0  0  0
   28.1321    1.7337   28.1041 H   0  0  0  0  0  0
   25.9401    1.0194   27.4035 H   0  0  0  0  0  0
   26.4013   -3.8394   27.5681 H   0  0  0  0  0  0
   26.8603   -3.5790   25.8973 H   0  0  0  0  0  0
   28.0603   -4.1268   27.0662 H   0  0  0  0  0  0
   25.1156   -2.2346   26.2639 H   0  0  0  0  0  0
   34.7009    0.3045   30.0117 H   0  0  0  0  0  0
   33.6608   -2.0354   27.7890 H   0  0  0  0  0  0
   34.7276   -0.9441   28.6636 H   0  0  0  0  0  0
   33.8378   -2.1996   29.5409 H   0  0  0  0  0  0
  1  2  1  0  0  0
  1 21  1  0  0  0
  1 22  1  0  0  0
  1 23  1  0  0  0
  2  3  1  0  0  0
  2 24  1  0  0  0
  2 25  1  0  0  0
  3 16  1  0  0  0
  3  4  1  0  0  0
  3 26  1  0  0  0
  4  9  2  0  0  0
  4  5  1  0  0  0
  5  6  2  0  0  0
  5 20  1  0  0  0
  6  7  1  0  0  0
  6 19  1  0  0  0
  7  8  2  0  0  0
  7 27  1  0  0  0
  8  9  1  0  0  0
  8 28  1  0  0  0
  9 10  1  0  0  0
 10 15  2  0  0  0
 10 11  1  0  0  0
 11 12  2  0  0  0
 11 29  1  0  0  0
 12 13  1  0  0  0
 12 30  1  0  0  0
 13 14  2  0  0  0
 13 18  1  0  0  0
 14 15  1  0  0  0
 14 17  1  0  0  0
 15 16  1  0  0  0
 17 31  1  0  0  0
 17 32  1  0  0  0
 17 33  1  0  0  0
 18 34  1  0  0  0
 19 35  1  0  0  0
 20 36  1  0  0  0
 20 37  1  0  0  0
 20 38  1  0  0  0
M  END
> <s_m_entry_id>
17296

> <s_m_entry_name>
ligand_docking-pose.223

> <s_m_Source_Path>
/home/csk/Desktop/cluster/DUD-E-result/esr1

> <s_m_Source_File>
ligand_docking-pose.sdf

> <i_m_Source_File_Index>
223

> <i_lp_mmshare_version>
53161

> <i_f3d_flags>
0

> <r_lp_tautomer_probability>
0.999999999938865

> <s_lp_Force_Field>
OPLS_2005

> <r_lp_Energy>
18.262744

> <b_lp_Chiralities_Consistent>
1

> <s_lp_Variant>
341872-2

> <s_i_glide_gridfile>
glide-grid_1sj0

> <i_i_glide_lignum>
1123

> <i_i_glide_rotatable_bonds>
3

> <r_i_docking_score>
-8.94592484965693

> <r_i_glide_ligand_efficiency>
-0.447296242482846

> <r_i_glide_ligand_efficiency_sa>
-1.21414879921972

> <r_i_glide_ligand_efficiency_ln>
-2.23886993352035

> <r_i_glide_gscore>
-8.94592484965693

> <r_i_glide_lipo>
-3.79862458193725

> <r_i_glide_hbond>
-0.211787701280139

> <r_i_glide_metal>
0

> <r_i_glide_rewards>
-2.46597940909091

> <r_i_glide_evdw>
-28.2799873352051

> <r_i_glide_ecoul>
-7.03689193725586

> <r_i_glide_erotb>
0

> <r_i_glide_esite>
0

> <r_i_glide_emodel>
-50.1021114296509

> <r_i_glide_energy>
-35.3168792724609

> <r_i_glide_einternal>
2.03202056884766

> <i_i_glide_confnum>
1

> <i_i_glide_posenum>
367

> <r_i_glide_eff_state_penalty>
0

> <s_user_duplicate_titles>
341872

> <s_m_subgroup_title>
dock_pv

> <s_m_subgroupid>
dock_pv1

> <b_m_subgroup_collapsed>
0

$$$$
350885
                    3D
 Schrodinger Suite 2021-1.
 42 44  0  0  1  0            999 V2000
   26.4599   -3.3097   28.0693 C   0  0  0  0  0  0
   26.2126   -1.7943   27.9485 C   0  0  0  0  0  0
   27.2718   -1.0283   27.1334 C   0  0  0  0  0  0
   28.7411   -1.2450   27.5831 C   0  0  0  0  0  0
   29.8153   -0.3244   26.9035 C   0  0  1  0  0  0
   29.5920    1.1811   27.2044 C   0  0  0  0  0  0
   29.7102    1.4796   28.7148 C   0  0  0  0  0  0
   30.9758    0.8778   29.3575 C   0  0  0  0  0  0
   31.1896    1.1008   30.5487 O   0  0  0  0  0  0
   31.7457   -0.1226   28.5658 C   0  0  0  0  0  0
   31.2180   -0.6790   27.4334 C   0  0  0  0  0  0
   31.7881   -1.6506   26.4614 C   0  0  0  0  0  0
   32.8606   -2.5458   26.5337 C   0  0  0  0  0  0
   33.2600   -3.2595   25.4041 C   0  0  0  0  0  0
   32.6547   -3.0345   24.1769 C   0  0  0  0  0  0
   31.5941   -2.1417   24.0946 C   0  0  0  0  0  0
   31.1147   -1.5177   25.2497 C   0  0  0  0  0  0
   29.9213   -0.6311   25.3977 C   0  0  0  0  0  0
   33.0823   -3.7227   23.0735 O   0  0  0  0  0  0
   33.1730   -0.4443   29.0633 C   0  0  0  0  0  0
   33.6047    0.3362   30.0563 F   0  0  0  0  0  0
   33.2342   -1.7071   29.4705 F   0  0  0  0  0  0
   34.0368   -0.2714   28.0648 F   0  0  0  0  0  0
   25.6117   -3.8034   28.5445 H   0  0  0  0  0  0
   27.3455   -3.5312   28.6636 H   0  0  0  0  0  0
   26.5925   -3.7625   27.0854 H   0  0  0  0  0  0
   25.2563   -1.6504   27.4484 H   0  0  0  0  0  0
   26.0913   -1.3435   28.9353 H   0  0  0  0  0  0
   27.1514   -1.3137   26.0897 H   0  0  0  0  0  0
   27.0136    0.0287   27.1797 H   0  0  0  0  0  0
   28.7932   -1.1377   28.6655 H   0  0  0  0  0  0
   29.0071   -2.2868   27.3954 H   0  0  0  0  0  0
   30.3266    1.7838   26.6651 H   0  0  0  0  0  0
   28.6232    1.5159   26.8321 H   0  0  0  0  0  0
   28.8610    1.0240   29.2203 H   0  0  0  0  0  0
   29.6819    2.5496   28.9192 H   0  0  0  0  0  0
   33.3992   -2.7278   27.4449 H   0  0  0  0  0  0
   34.0600   -3.9779   25.4643 H   0  0  0  0  0  0
   31.0972   -1.9931   23.1466 H   0  0  0  0  0  0
   29.0274   -1.1410   25.0568 H   0  0  0  0  0  0
   30.0428    0.2582   24.7942 H   0  0  0  0  0  0
   32.5160   -3.6230   22.3046 H   0  0  0  0  0  0
  1  2  1  0  0  0
  1 24  1  0  0  0
  1 25  1  0  0  0
  1 26  1  0  0  0
  2  3  1  0  0  0
  2 27  1  0  0  0
  2 28  1  0  0  0
  3  4  1  0  0  0
  3 29  1  0  0  0
  3 30  1  0  0  0
  4  5  1  0  0  0
  4 31  1  0  0  0
  4 32  1  0  0  0
  5 11  1  0  0  0
  5 18  1  0  0  0
  5  6  1  0  0  0
  6  7  1  0  0  0
  6 33  1  0  0  0
  6 34  1  0  0  0
  7  8  1  0  0  0
  7 35  1  0  0  0
  7 36  1  0  0  0
  8  9  2  0  0  0
  8 10  1  0  0  0
 10 11  2  0  0  0
 10 20  1  0  0  0
 11 12  1  0  0  0
 12 17  1  0  0  0
 12 13  2  0  0  0
 13 14  1  0  0  0
 13 37  1  0  0  0
 14 15  2  0  0  0
 14 38  1  0  0  0
 15 16  1  0  0  0
 15 19  1  0  0  0
 16 17  2  0  0  0
 16 39  1  0  0  0
 17 18  1  0  0  0
 18 40  1  0  0  0
 18 41  1  0  0  0
 19 42  1  0  0  0
 20 21  1  0  0  0
 20 22  1  0  0  0
 20 23  1  0  0  0
M  END
> <s_m_entry_id>
17297

> <s_m_entry_name>
ligand_docking-pose.224

> <s_m_Source_Path>
/home/csk/Desktop/cluster/DUD-E-result/esr1

> <s_m_Source_File>
ligand_docking-pose.sdf

> <i_m_Source_File_Index>
224

> <i_lp_mmshare_version>
53161

> <i_f3d_flags>
0

> <r_lp_tautomer_probability>
1

> <s_lp_Force_Field>
OPLS_2005

> <r_lp_Energy>
23.304267

> <b_lp_Chiralities_Consistent>
1

> <s_lp_Variant>
350885-2

> <s_i_glide_gridfile>
glide-grid_1sj0

> <i_i_glide_lignum>
1353

> <i_i_glide_rotatable_bonds>
5

> <r_i_docking_score>
-8.94536920552

> <r_i_glide_ligand_efficiency>
-0.388929095892174

> <r_i_glide_ligand_efficiency_sa>
-1.10606261215526

> <r_i_glide_ligand_efficiency_ln>
-2.16307138601817

> <r_i_glide_gscore>
-8.94536920552

> <r_i_glide_lipo>
-4.04721357798375

> <r_i_glide_hbond>
0

> <r_i_glide_metal>
0

> <r_i_glide_rewards>
-3.41559268044152

> <r_i_glide_evdw>
-36.7684326171875

> <r_i_glide_ecoul>
-0.00114746834151447

> <r_i_glide_erotb>
0.356030804015871

> <r_i_glide_esite>
0

> <r_i_glide_emodel>
-53.9972328336806

> <r_i_glide_energy>
-36.769580085529

> <r_i_glide_einternal>
1.63095486164093

> <i_i_glide_confnum>
3

> <i_i_glide_posenum>
248

> <r_i_glide_eff_state_penalty>
0

> <s_user_duplicate_titles>
350885

> <s_m_subgroup_title>
dock_pv

> <s_m_subgroupid>
dock_pv1

> <b_m_subgroup_collapsed>
0

$$$$
162457
                    3D
 Schrodinger Suite 2021-1.
 65 69  0  0  1  0            999 V2000
   24.0916   -0.2406   26.6147 C   0  0  0  0  0  0
   24.8717   -1.3419   27.0386 O   0  0  0  0  0  0
   26.2071   -1.1863   27.3141 C   0  0  0  0  0  0
   26.9742   -2.3362   27.4611 C   0  0  0  0  0  0
   28.3403   -2.2398   27.7142 C   0  0  0  0  0  0
   28.9639   -0.9944   27.8628 C   0  0  0  0  0  0
   28.1677    0.1696   27.7721 C   0  0  0  0  0  0
   26.8156    0.0548   27.4660 C   0  0  0  0  0  0
   28.7136    1.5544   28.0426 C   0  0  0  0  0  0
   30.2158    1.6720   27.8369 C   0  0  0  0  0  0
   30.9785    0.4955   28.4835 C   0  0  1  0  0  0
   30.4921   -0.9114   27.9921 C   0  0  2  0  0  0
   31.1623   -1.3680   26.6808 C   0  0  0  0  0  0
   32.1404   -2.3704   26.6872 C   0  0  0  0  0  0
   32.7611   -2.7579   25.5002 C   0  0  0  0  0  0
   32.4280   -2.1232   24.2954 C   0  0  0  0  0  0
   31.4444   -1.1407   24.2953 C   0  0  0  0  0  0
   30.8042   -0.7722   25.4693 C   0  0  0  0  0  0
   33.0094   -2.3769   23.0722 O   0  0  0  0  0  0
   34.0718   -3.3189   22.9607 C   0  0  0  0  0  0
   34.8661   -3.0818   21.6554 C   0  0  0  0  0  0
   34.0287   -3.0238   20.4564 N   0  0  0  0  0  0
   33.3220   -4.2612   20.1526 C   0  0  0  0  0  0
   32.8560   -4.1093   18.7031 C   0  0  0  0  0  0
   33.8134   -3.0765   18.1021 C   0  0  0  0  0  0
   34.7866   -2.7633   19.2404 C   0  0  0  0  0  0
   32.5047    0.6392   28.4347 C   0  0  0  0  0  0
   33.1170    1.5733   27.5859 C   0  0  0  0  0  0
   34.4948    1.5892   27.4477 C   0  0  0  0  0  0
   35.2559    0.6649   28.1466 C   0  0  0  0  0  0
   34.6773   -0.2061   29.0631 C   0  0  0  0  0  0
   33.2952   -0.2148   29.2131 C   0  0  0  0  0  0
   23.1194   -0.5423   26.2345 H   0  0  0  0  0  0
   23.8864    0.4147   27.4580 H   0  0  0  0  0  0
   24.5866    0.2579   25.7899 H   0  0  0  0  0  0
   26.5100   -3.3030   27.3344 H   0  0  0  0  0  0
   28.9263   -3.1469   27.7635 H   0  0  0  0  0  0
   26.2274    0.9548   27.3943 H   0  0  0  0  0  0
   28.4668    1.8368   29.0640 H   0  0  0  0  0  0
   28.2017    2.2585   27.3945 H   0  0  0  0  0  0
   30.5211    2.6088   28.3022 H   0  0  0  0  0  0
   30.4152    1.7370   26.7680 H   0  0  0  0  0  0
   30.7587    0.5012   29.5531 H   0  0  0  0  0  0
   30.7744   -1.6496   28.7476 H   0  0  0  0  0  0
   32.4346   -2.8454   27.6109 H   0  0  0  0  0  0
   33.5063   -3.5369   25.5378 H   0  0  0  0  0  0
   31.1910   -0.6473   23.3740 H   0  0  0  0  0  0
   30.0386   -0.0118   25.4326 H   0  0  0  0  0  0
   33.6763   -4.3345   23.0031 H   0  0  0  0  0  0
   34.7791   -3.2082   23.7827 H   0  0  0  0  0  0
   35.6205   -3.8594   21.5406 H   0  0  0  0  0  0
   35.4153   -2.1437   21.7396 H   0  0  0  0  0  0
   32.4872   -4.3712   20.8450 H   0  0  0  0  0  0
   33.9424   -5.1465   20.3020 H   0  0  0  0  0  0
   31.8217   -3.7635   18.6691 H   0  0  0  0  0  0
   32.8981   -5.0653   18.1810 H   0  0  0  0  0  0
   34.3366   -3.4656   17.2283 H   0  0  0  0  0  0
   33.2825   -2.1746   17.7877 H   0  0  0  0  0  0
   35.7028   -3.3556   19.1865 H   0  0  0  0  0  0
   35.1091   -1.7216   19.2412 H   0  0  0  0  0  0
   32.5487    2.2569   26.9755 H   0  0  0  0  0  0
   34.9701    2.2596   26.7467 H   0  0  0  0  0  0
   36.3043    0.6046   27.9023 H   0  0  0  0  0  0
   35.2929   -0.9080   29.6066 H   0  0  0  0  0  0
   32.8384   -0.9270   29.8865 H   0  0  0  0  0  0
  1  2  1  0  0  0
  1 33  1  0  0  0
  1 34  1  0  0  0
  1 35  1  0  0  0
  2  3  1  0  0  0
  3  8  1  0  0  0
  3  4  2  0  0  0
  4  5  1  0  0  0
  4 36  1  0  0  0
  5  6  2  0  0  0
  5 37  1  0  0  0
  6 12  1  0  0  0
  6  7  1  0  0  0
  7  8  2  0  0  0
  7  9  1  0  0  0
  8 38  1  0  0  0
  9 10  1  0  0  0
  9 39  1  0  0  0
  9 40  1  0  0  0
 10 11  1  0  0  0
 10 41  1  0  0  0
 10 42  1  0  0  0
 11 12  1  0  0  0
 11 27  1  0  0  0
 11 43  1  0  0  0
 12 13  1  0  0  0
 12 44  1  0  0  0
 13 18  1  0  0  0
 13 14  2  0  0  0
 14 15  1  0  0  0
 14 45  1  0  0  0
 15 16  2  0  0  0
 15 46  1  0  0  0
 16 17  1  0  0  0
 16 19  1  0  0  0
 17 18  2  0  0  0
 17 47  1  0  0  0
 18 48  1  0  0  0
 19 20  1  0  0  0
 20 21  1  0  0  0
 20 49  1  0  0  0
 20 50  1  0  0  0
 21 22  1  0  0  0
 21 51  1  0  0  0
 21 52  1  0  0  0
 22 26  1  0  0  0
 22 23  1  0  0  0
 23 24  1  0  0  0
 23 53  1  0  0  0
 23 54  1  0  0  0
 24 25  1  0  0  0
 24 55  1  0  0  0
 24 56  1  0  0  0
 25 26  1  0  0  0
 25 57  1  0  0  0
 25 58  1  0  0  0
 26 59  1  0  0  0
 26 60  1  0  0  0
 27 32  1  0  0  0
 27 28  2  0  0  0
 28 29  1  0  0  0
 28 61  1  0  0  0
 29 30  2  0  0  0
 29 62  1  0  0  0
 30 31  1  0  0  0
 30 63  1  0  0  0
 31 32  2  0  0  0
 31 64  1  0  0  0
 32 65  1  0  0  0
M  END
> <s_m_entry_id>
17298

> <s_m_entry_name>
ligand_docking-pose.225

> <s_m_Source_Path>
/home/csk/Desktop/cluster/DUD-E-result/esr1

> <s_m_Source_File>
ligand_docking-pose.sdf

> <i_m_Source_File_Index>
225

> <i_lp_mmshare_version>
53161

> <i_f3d_flags>
0

> <r_lp_tautomer_probability>
1

> <s_lp_Force_Field>
OPLS_2005

> <r_lp_Energy>
49.019054

> <b_lp_Chiralities_Consistent>
1

> <s_lp_Variant>
162457-3

> <s_i_glide_gridfile>
glide-grid_1sj0

> <i_i_glide_lignum>
1756

> <i_i_glide_rotatable_bonds>
7

> <r_i_docking_score>
-8.94326858336675

> <r_i_glide_ligand_efficiency>
-0.279477143230211

> <r_i_glide_ligand_efficiency_sa>
-0.887284621304377

> <r_i_glide_ligand_efficiency_ln>
-2.00264162011011

> <r_i_glide_gscore>
-8.94326858336675

> <r_i_glide_lipo>
-5.61007090583389

> <r_i_glide_hbond>
-0.102838564291221

> <r_i_glide_metal>
0

> <r_i_glide_rewards>
-1.38821632853854

> <r_i_glide_evdw>
-42.5207061767578

> <r_i_glide_ecoul>
-1.72767126560211

> <r_i_glide_erotb>
0.543043213975114

> <r_i_glide_esite>
0

> <r_i_glide_emodel>
-63.7394767864433

> <r_i_glide_energy>
-44.2483774423599

> <r_i_glide_einternal>
1.54991674423218

> <i_i_glide_confnum>
3

> <i_i_glide_posenum>
17

> <r_i_glide_eff_state_penalty>
0

> <s_user_duplicate_titles>
162457

> <s_m_subgroup_title>
dock_pv

> <s_m_subgroupid>
dock_pv1

> <b_m_subgroup_collapsed>
0

$$$$
287287
                    3D
 Schrodinger Suite 2021-1.
 36 38  0  0  1  0            999 V2000
   30.8022    0.9236   30.6083 C   0  0  0  0  0  0
   31.4988    0.5178   29.3997 N   0  0  0  0  0  0
   32.8633    0.5870   29.2427 C   0  0  0  0  0  0
   33.2930    0.4944   28.0546 N   0  0  0  0  0  0
   32.1274    0.3362   27.2090 C   0  0  2  0  0  0
   30.8666    0.4823   28.0934 C   0  0  1  0  0  0
   29.7407   -0.5509   27.8793 C   0  0  0  0  0  0
   29.8291   -1.8153   28.4721 C   0  0  0  0  0  0
   28.8607   -2.7883   28.2277 C   0  0  0  0  0  0
   27.7801   -2.5160   27.3975 C   0  0  0  0  0  0
   27.6645   -1.2557   26.8116 C   0  0  0  0  0  0
   28.6390   -0.2762   27.0449 C   0  0  0  0  0  0
   28.4614    1.2592   26.2666 Cl  0  0  0  0  0  0
   26.8602   -3.5072   27.1693 O   0  0  0  0  0  0
   32.2393   -0.8785   26.2571 C   0  0  0  0  0  0
   31.7964   -0.6847   24.9436 C   0  0  0  0  0  0
   31.9679   -1.6595   23.9651 C   0  0  0  0  0  0
   32.5664   -2.8673   24.2954 C   0  0  0  0  0  0
   32.9341   -3.1196   25.6135 C   0  0  0  0  0  0
   32.7711   -2.1439   26.6009 C   0  0  0  0  0  0
   33.2594   -2.5732   28.2062 Cl  0  0  0  0  0  0
   32.8023   -3.7993   23.3239 O   0  0  0  0  0  0
   32.1522    1.2173   26.5637 H   0  0  0  0  0  0
   30.4435    1.4768   27.9423 H   0  0  0  0  0  0
   30.9129    0.1627   31.3811 H   0  0  0  0  0  0
   31.2007    1.8614   30.9955 H   0  0  0  0  0  0
   29.7397    1.0698   30.4145 H   0  0  0  0  0  0
   33.4988    0.7147   30.1149 H   0  0  0  0  0  0
   30.6640   -2.0566   29.1135 H   0  0  0  0  0  0
   28.9560   -3.7705   28.6634 H   0  0  0  0  0  0
   26.8268   -1.0401   26.1648 H   0  0  0  0  0  0
   26.1658   -3.3385   26.5118 H   0  0  0  0  0  0
   31.3533    0.2569   24.6670 H   0  0  0  0  0  0
   31.6610   -1.4606   22.9501 H   0  0  0  0  0  0
   33.3679   -4.0762   25.8635 H   0  0  0  0  0  0
   32.4576   -3.5568   22.4611 H   0  0  0  0  0  0
  1  2  1  0  0  0
  1 25  1  0  0  0
  1 26  1  0  0  0
  1 27  1  0  0  0
  2  6  1  0  0  0
  2  3  1  0  0  0
  3  4  2  0  0  0
  3 28  1  0  0  0
  4  5  1  0  0  0
  5 23  1  0  0  0
  5  6  1  0  0  0
  5 15  1  0  0  0
  6 24  1  0  0  0
  6  7  1  0  0  0
  7 12  1  0  0  0
  7  8  2  0  0  0
  8  9  1  0  0  0
  8 29  1  0  0  0
  9 10  2  0  0  0
  9 30  1  0  0  0
 10 11  1  0  0  0
 10 14  1  0  0  0
 11 12  2  0  0  0
 11 31  1  0  0  0
 12 13  1  0  0  0
 14 32  1  0  0  0
 15 20  1  0  0  0
 15 16  2  0  0  0
 16 17  1  0  0  0
 16 33  1  0  0  0
 17 18  2  0  0  0
 17 34  1  0  0  0
 18 19  1  0  0  0
 18 22  1  0  0  0
 19 20  2  0  0  0
 19 35  1  0  0  0
 20 21  1  0  0  0
 22 36  1  0  0  0
M  END
> <s_m_entry_id>
17299

> <s_m_entry_name>
ligand_docking-pose.226

> <s_m_Source_Path>
/home/csk/Desktop/cluster/DUD-E-result/esr1

> <s_m_Source_File>
ligand_docking-pose.sdf

> <i_m_Source_File_Index>
226

> <i_lp_mmshare_version>
53161

> <i_f3d_flags>
0

> <r_lp_tautomer_probability>
0.99999999998839

> <s_lp_Force_Field>
OPLS_2005

> <r_lp_Energy>
26.590425

> <b_lp_Chiralities_Consistent>
1

> <s_lp_Variant>
287287-1

> <s_i_glide_gridfile>
glide-grid_1sj0

> <i_i_glide_lignum>
1693

> <i_i_glide_rotatable_bonds>
4

> <r_i_docking_score>
-8.93573676406449

> <r_i_glide_ligand_efficiency>
-0.406169852912022

> <r_i_glide_ligand_efficiency_sa>
-1.13810390161336

> <r_i_glide_ligand_efficiency_ln>
-2.18422000405525

> <r_i_glide_gscore>
-8.93573676406449

> <r_i_glide_lipo>
-4.28869001210573

> <r_i_glide_hbond>
-0.16

> <r_i_glide_metal>
0

> <r_i_glide_rewards>
-2.34849938354905

> <r_i_glide_evdw>
-39.1831893920898

> <r_i_glide_ecoul>
-3.41175317764282

> <r_i_glide_erotb>
0.332375077841208

> <r_i_glide_esite>
0

> <r_i_glide_emodel>
-56.0005360545859

> <r_i_glide_energy>
-42.5949425697327

> <r_i_glide_einternal>
7.07587194442749

> <i_i_glide_confnum>
2

> <i_i_glide_posenum>
127

> <r_i_glide_eff_state_penalty>
0

> <s_user_duplicate_titles>
287287

> <s_m_subgroup_title>
dock_pv

> <s_m_subgroupid>
dock_pv1

> <b_m_subgroup_collapsed>
0

$$$$
402877
                    3D
 Schrodinger Suite 2021-1.
 51 54  0  0  1  0            999 V2000
   35.1240    1.8534   28.4378 C   0  0  0  0  0  0
   33.9845    1.0054   28.5047 O   0  0  0  0  0  0
   33.1306    0.9056   27.4563 C   0  0  0  0  0  0
   33.2634    1.5688   26.4236 O   0  0  0  0  0  0
   32.0371   -0.0916   27.6225 C   0  0  0  0  0  0
   31.7848   -0.7881   28.7639 C   0  0  0  0  0  0
   30.8182   -1.7417   28.8747 O   0  0  0  0  0  0
   29.8022   -1.7690   27.9361 C   0  0  0  0  0  0
   28.6625   -2.5270   28.2121 C   0  0  0  0  0  0
   27.5595   -2.4754   27.3647 C   0  0  0  0  0  0
   27.5867   -1.6296   26.2636 C   0  0  0  0  0  0
   28.7510   -0.9202   25.9542 C   0  0  0  0  0  0
   29.8969   -1.0388   26.7442 C   0  0  0  0  0  0
   31.2414   -0.4285   26.3445 C   0  0  2  0  0  0
   31.9301   -1.3869   25.3550 C   0  0  0  0  0  0
   31.6252   -1.3064   23.9926 C   0  0  0  0  0  0
   32.1720   -2.2142   23.0887 C   0  0  0  0  0  0
   33.0607   -3.2006   23.5316 C   0  0  0  0  0  0
   33.3845   -3.2631   24.8842 C   0  0  0  0  0  0
   32.8232   -2.3719   25.7939 C   0  0  0  0  0  0
   33.6567   -4.1417   22.7161 O   0  0  0  0  0  0
   33.1523   -4.3900   21.4012 C   0  0  0  0  0  0
   33.6109   -3.3680   20.3603 C   0  0  0  0  0  0
   32.7804   -3.1140   19.2626 C   0  0  0  0  0  0
   33.1732   -2.2173   18.2679 C   0  0  0  0  0  0
   34.4039   -1.5682   18.3606 C   0  0  0  0  0  0
   35.2367   -1.8133   19.4519 C   0  0  0  0  0  0
   34.8494   -2.7136   20.4451 C   0  0  0  0  0  0
   35.6925   -2.9422   21.4765 F   0  0  0  0  0  0
   26.4601   -3.2559   27.6114 O   0  0  0  0  0  0
   32.4025   -0.7011   29.9811 N   0  0  0  0  0  0
   35.6588    1.8193   29.3859 H   0  0  0  0  0  0
   35.8054    1.5325   27.6482 H   0  0  0  0  0  0
   34.8434    2.8905   28.2488 H   0  0  0  0  0  0
   28.6197   -3.1730   29.0640 H   0  0  0  0  0  0
   26.7271   -1.5696   25.6107 H   0  0  0  0  0  0
   28.7958   -0.3127   25.0641 H   0  0  0  0  0  0
   31.0257    0.4973   25.8141 H   0  0  0  0  0  0
   30.9388   -0.5544   23.6344 H   0  0  0  0  0  0
   31.9007   -2.1418   22.0479 H   0  0  0  0  0  0
   34.0598   -4.0303   25.2287 H   0  0  0  0  0  0
   33.0722   -2.4648   26.8402 H   0  0  0  0  0  0
   33.5220   -5.3617   21.0719 H   0  0  0  0  0  0
   32.0643   -4.4815   21.4332 H   0  0  0  0  0  0
   31.8325   -3.6280   19.1720 H   0  0  0  0  0  0
   32.5225   -2.0273   17.4272 H   0  0  0  0  0  0
   34.7091   -0.8738   17.5910 H   0  0  0  0  0  0
   36.1900   -1.3117   19.5287 H   0  0  0  0  0  0
   25.8489   -3.3434   26.8577 H   0  0  0  0  0  0
   33.1798   -0.0694   30.1114 H   0  0  0  0  0  0
   32.1296   -1.2961   30.7481 H   0  0  0  0  0  0
  1  2  1  0  0  0
  1 32  1  0  0  0
  1 33  1  0  0  0
  1 34  1  0  0  0
  2  3  1  0  0  0
  3  4  2  0  0  0
  3  5  1  0  0  0
  5 14  1  0  0  0
  5  6  2  0  0  0
  6  7  1  0  0  0
  6 31  1  0  0  0
  7  8  1  0  0  0
  8 13  2  0  0  0
  8  9  1  0  0  0
  9 10  2  0  0  0
  9 35  1  0  0  0
 10 11  1  0  0  0
 10 30  1  0  0  0
 11 12  2  0  0  0
 11 36  1  0  0  0
 12 13  1  0  0  0
 12 37  1  0  0  0
 13 14  1  0  0  0
 14 15  1  0  0  0
 14 38  1  0  0  0
 15 20  1  0  0  0
 15 16  2  0  0  0
 16 17  1  0  0  0
 16 39  1  0  0  0
 17 18  2  0  0  0
 17 40  1  0  0  0
 18 19  1  0  0  0
 18 21  1  0  0  0
 19 20  2  0  0  0
 19 41  1  0  0  0
 20 42  1  0  0  0
 21 22  1  0  0  0
 22 23  1  0  0  0
 22 43  1  0  0  0
 22 44  1  0  0  0
 23 28  1  0  0  0
 23 24  2  0  0  0
 24 25  1  0  0  0
 24 45  1  0  0  0
 25 26  2  0  0  0
 25 46  1  0  0  0
 26 27  1  0  0  0
 26 47  1  0  0  0
 27 28  2  0  0  0
 27 48  1  0  0  0
 28 29  1  0  0  0
 30 49  1  0  0  0
 31 50  1  0  0  0
 31 51  1  0  0  0
M  END
> <s_m_entry_id>
17300

> <s_m_entry_name>
ligand_docking-pose.227

> <s_m_Source_Path>
/home/csk/Desktop/cluster/DUD-E-result/esr1

> <s_m_Source_File>
ligand_docking-pose.sdf

> <i_m_Source_File_Index>
227

> <i_lp_mmshare_version>
53161

> <i_f3d_flags>
0

> <r_lp_tautomer_probability>
1

> <s_lp_Force_Field>
OPLS_2005

> <r_lp_Energy>
39.524786

> <b_lp_Chiralities_Consistent>
1

> <s_lp_Variant>
402877-2

> <s_i_glide_gridfile>
glide-grid_1sj0

> <i_i_glide_lignum>
1801

> <i_i_glide_rotatable_bonds>
7

> <r_i_docking_score>
-8.92263854752186

> <r_i_glide_ligand_efficiency>
-0.28782704992006

> <r_i_glide_ligand_efficiency_sa>
-0.904174324818794

> <r_i_glide_ligand_efficiency_ln>
-2.01232843849803

> <r_i_glide_gscore>
-8.92263854752186

> <r_i_glide_lipo>
-4.20914906886749

> <r_i_glide_hbond>
-0.16

> <r_i_glide_metal>
0

> <r_i_glide_rewards>
-1.58751186005381

> <r_i_glide_evdw>
-50.813060760498

> <r_i_glide_ecoul>
-6.55210113525391

> <r_i_glide_erotb>
0.557490589712433

> <r_i_glide_esite>
0

> <r_i_glide_emodel>
-79.0122290937543

> <r_i_glide_energy>
-57.365161895752

> <r_i_glide_einternal>
10.2106008529663

> <i_i_glide_confnum>
6

> <i_i_glide_posenum>
34

> <r_i_glide_eff_state_penalty>
0

> <s_user_duplicate_titles>
402877

> <s_m_subgroup_title>
dock_pv

> <s_m_subgroupid>
dock_pv1

> <b_m_subgroup_collapsed>
0

$$$$
223341
                    3D
 Schrodinger Suite 2021-1.
 32 33  0  0  1  0            999 V2000
   33.4911   -0.7684   29.4645 C   0  0  0  0  0  0
   32.2473   -0.6692   28.8435 C   0  0  0  0  0  0
   32.0279    0.3031   27.8605 C   0  0  0  0  0  0
   33.0540    1.1986   27.5434 C   0  0  0  0  0  0
   34.2874    1.1116   28.1816 C   0  0  0  0  0  0
   34.5138    0.1197   29.1326 C   0  0  0  0  0  0
   35.2701    2.0034   27.8639 O   0  0  0  0  0  0
   30.7055    0.4016   27.1074 C   0  0  2  0  0  0
   29.7150    1.1475   27.8965 C   0  0  0  0  0  0
   28.9383    1.7416   28.5115 N   0  0  0  0  0  0
   30.1566   -0.9203   26.5136 C   0  0  2  0  0  0
   29.5309   -1.8239   27.4962 C   0  0  0  0  0  0
   29.0375   -2.5333   28.2640 N   0  0  0  0  0  0
   31.1617   -1.6479   25.6198 C   0  0  0  0  0  0
   31.9983   -2.6503   26.1265 C   0  0  0  0  0  0
   32.8593   -3.3365   25.2751 C   0  0  0  0  0  0
   32.8695   -3.0326   23.9169 C   0  0  0  0  0  0
   32.0595   -2.0240   23.4097 C   0  0  0  0  0  0
   31.2166   -1.3212   24.2639 C   0  0  0  0  0  0
   33.6634   -3.7475   23.0671 O   0  0  0  0  0  0
   33.6606   -1.5320   30.2095 H   0  0  0  0  0  0
   31.4693   -1.3619   29.1251 H   0  0  0  0  0  0
   32.9049    1.9624   26.7948 H   0  0  0  0  0  0
   35.4744    0.0394   29.6210 H   0  0  0  0  0  0
   36.1228    1.7849   28.2625 H   0  0  0  0  0  0
   30.8893    1.0576   26.2640 H   0  0  0  0  0  0
   29.3075   -0.6554   25.8807 H   0  0  0  0  0  0
   31.9712   -2.9173   27.1720 H   0  0  0  0  0  0
   33.4915   -4.1247   25.6576 H   0  0  0  0  0  0
   32.0646   -1.8014   22.3536 H   0  0  0  0  0  0
   30.5776   -0.5477   23.8637 H   0  0  0  0  0  0
   33.4827   -3.5777   22.1396 H   0  0  0  0  0  0
  1  6  1  0  0  0
  1  2  2  0  0  0
  1 21  1  0  0  0
  2  3  1  0  0  0
  2 22  1  0  0  0
  3  4  2  0  0  0
  3  8  1  0  0  0
  4  5  1  0  0  0
  4 23  1  0  0  0
  5  6  2  0  0  0
  5  7  1  0  0  0
  6 24  1  0  0  0
  7 25  1  0  0  0
  8  9  1  0  0  0
  8 11  1  0  0  0
  8 26  1  0  0  0
  9 10  3  0  0  0
 11 12  1  0  0  0
 11 14  1  0  0  0
 11 27  1  0  0  0
 12 13  3  0  0  0
 14 19  1  0  0  0
 14 15  2  0  0  0
 15 16  1  0  0  0
 15 28  1  0  0  0
 16 17  2  0  0  0
 16 29  1  0  0  0
 17 18  1  0  0  0
 17 20  1  0  0  0
 18 19  2  0  0  0
 18 30  1  0  0  0
 19 31  1  0  0  0
 20 32  1  0  0  0
M  END
> <s_m_entry_id>
17301

> <s_m_entry_name>
ligand_docking-pose.228

> <s_m_Source_Path>
/home/csk/Desktop/cluster/DUD-E-result/esr1

> <s_m_Source_File>
ligand_docking-pose.sdf

> <i_m_Source_File_Index>
228

> <i_lp_mmshare_version>
53161

> <i_f3d_flags>
0

> <r_lp_tautomer_probability>
0.99999999999473

> <s_lp_Force_Field>
OPLS_2005

> <r_lp_Energy>
10.718033

> <b_lp_Chiralities_Consistent>
1

> <s_lp_Variant>
223341-1

> <s_i_glide_gridfile>
glide-grid_1sj0

> <i_i_glide_lignum>
651

> <i_i_glide_rotatable_bonds>
5

> <r_i_docking_score>
-8.91847080759179

> <r_i_glide_ligand_efficiency>
-0.445923540379589

> <r_i_glide_ligand_efficiency_sa>
-1.21042271245203

> <r_i_glide_ligand_efficiency_ln>
-2.23199909228635

> <r_i_glide_gscore>
-8.91847080759179

> <r_i_glide_lipo>
-3.78621122663844

> <r_i_glide_hbond>
-0.287886506320955

> <r_i_glide_metal>
0

> <r_i_glide_rewards>
-3.285332584704

> <r_i_glide_evdw>
-35.3865585327148

> <r_i_glide_ecoul>
-3.6878776550293

> <r_i_glide_erotb>
0.763469084961734

> <r_i_glide_esite>
0

> <r_i_glide_emodel>
-59.2398587631065

> <r_i_glide_energy>
-39.0744361877441

> <r_i_glide_einternal>
1.78137218952179

> <i_i_glide_confnum>
12

> <i_i_glide_posenum>
225

> <r_i_glide_eff_state_penalty>
0

> <s_user_duplicate_titles>
223341

> <s_m_subgroup_title>
dock_pv

> <s_m_subgroupid>
dock_pv1

> <b_m_subgroup_collapsed>
0

$$$$
75386
                    3D
 Schrodinger Suite 2021-1.
 39 42  0  0  1  0            999 V2000
   35.1652    1.5426   28.2640 C   0  0  0  0  0  0
   34.7137    0.3372   28.7996 C   0  0  0  0  0  0
   33.5773   -0.2639   28.2640 C   0  0  0  0  0  0
   32.9228    0.3439   27.1880 C   0  0  0  0  0  0
   33.3837    1.5459   26.6640 C   0  0  0  0  0  0
   34.5072    2.1394   27.1997 C   0  0  0  0  0  0
   31.6446   -0.1395   26.7000 C   0  0  0  0  0  0
   31.3695   -0.9895   25.6912 C   0  0  0  0  0  0
   29.8937   -1.1562   25.5521 C   0  0  0  0  0  0
   29.3699   -0.1716   26.5046 C   0  0  0  0  0  0
   30.4052    0.4456   27.1852 C   0  0  0  0  0  0
   30.1462    1.4486   28.1175 C   0  0  0  0  0  0
   28.8241    1.8216   28.3347 C   0  0  0  0  0  0
   27.7995    1.1589   27.6519 C   0  0  0  0  0  0
   28.0600    0.1490   26.7547 C   0  0  0  0  0  0
   26.5060    1.4580   27.8640 O   0  0  0  0  0  0
   32.2362   -1.7605   24.8127 C   0  0  0  0  0  0
   31.9512   -1.7397   23.4485 C   0  0  0  0  0  0
   32.6447   -2.5429   22.5615 C   0  0  0  0  0  0
   33.6600   -3.3470   23.0452 C   0  0  0  0  0  0
   33.9810   -3.3420   24.4045 C   0  0  0  0  0  0
   33.2600   -2.5603   25.2968 C   0  0  0  0  0  0
   34.3320   -4.1420   22.1621 O   0  0  0  0  0  0
   36.0343    2.0359   28.6699 H   0  0  0  0  0  0
   35.2339   -0.1173   29.6303 H   0  0  0  0  0  0
   33.1967   -1.1786   28.6952 H   0  0  0  0  0  0
   32.8600    2.0367   25.8591 H   0  0  0  0  0  0
   34.8600    3.0580   26.7786 H   0  0  0  0  0  0
   29.5954   -2.1420   25.8708 H   0  0  0  0  0  0
   29.5263   -0.9747   24.5452 H   0  0  0  0  0  0
   30.9445    1.9446   28.6505 H   0  0  0  0  0  0
   28.5931    2.6007   29.0457 H   0  0  0  0  0  0
   27.2554   -0.3756   26.2640 H   0  0  0  0  0  0
   25.8951    1.1783   27.1746 H   0  0  0  0  0  0
   31.1737   -1.1055   23.0640 H   0  0  0  0  0  0
   32.3919   -2.5391   21.5111 H   0  0  0  0  0  0
   34.7630   -3.9645   24.7978 H   0  0  0  0  0  0
   33.4870   -2.5922   26.3522 H   0  0  0  0  0  0
   33.9083   -4.2069   21.3025 H   0  0  0  0  0  0
  1  6  1  0  0  0
  1  2  2  0  0  0
  1 24  1  0  0  0
  2  3  1  0  0  0
  2 25  1  0  0  0
  3  4  2  0  0  0
  3 26  1  0  0  0
  4  5  1  0  0  0
  4  7  1  0  0  0
  5  6  2  0  0  0
  5 27  1  0  0  0
  6 28  1  0  0  0
  7 11  1  0  0  0
  7  8  2  0  0  0
  8  9  1  0  0  0
  8 17  1  0  0  0
  9 10  1  0  0  0
  9 29  1  0  0  0
  9 30  1  0  0  0
 10 15  2  0  0  0
 10 11  1  0  0  0
 11 12  2  0  0  0
 12 13  1  0  0  0
 12 31  1  0  0  0
 13 14  2  0  0  0
 13 32  1  0  0  0
 14 15  1  0  0  0
 14 16  1  0  0  0
 15 33  1  0  0  0
 16 34  1  0  0  0
 17 22  1  0  0  0
 17 18  2  0  0  0
 18 19  1  0  0  0
 18 35  1  0  0  0
 19 20  2  0  0  0
 19 36  1  0  0  0
 20 21  1  0  0  0
 20 23  1  0  0  0
 21 22  2  0  0  0
 21 37  1  0  0  0
 22 38  1  0  0  0
 23 39  1  0  0  0
M  END
> <s_m_entry_id>
17302

> <s_m_entry_name>
ligand_docking-pose.229

> <s_m_Source_Path>
/home/csk/Desktop/cluster/DUD-E-result/esr1

> <s_m_Source_File>
ligand_docking-pose.sdf

> <i_m_Source_File_Index>
229

> <i_lp_mmshare_version>
53161

> <i_f3d_flags>
0

> <r_lp_tautomer_probability>
1

> <s_lp_Force_Field>
OPLS_2005

> <r_lp_Energy>
39.185029

> <b_lp_Chiralities_Consistent>
1

> <s_lp_Variant>
75386-1

> <s_i_glide_gridfile>
glide-grid_1sj0

> <i_i_glide_lignum>
291

> <i_i_glide_rotatable_bonds>
4

> <r_i_docking_score>
-8.91834665957687

> <r_i_glide_ligand_efficiency>
-0.387754202590299

> <r_i_glide_ligand_efficiency_sa>
-1.1027213718927

> <r_i_glide_ligand_efficiency_ln>
-2.15653708938222

> <r_i_glide_gscore>
-8.91834665957687

> <r_i_glide_lipo>
-5.39384755507678

> <r_i_glide_hbond>
-0.16953964596128

> <r_i_glide_metal>
0

> <r_i_glide_rewards>
-2.25668803583496

> <r_i_glide_evdw>
-20.7428455352783

> <r_i_glide_ecoul>
-3.12419199943542

> <r_i_glide_erotb>
0.407499653975379

> <r_i_glide_esite>
0

> <r_i_glide_emodel>
-28.2392169842717

> <r_i_glide_energy>
-23.8670375347137

> <r_i_glide_einternal>
7.53125190734863

> <i_i_glide_confnum>
12

> <i_i_glide_posenum>
353

> <r_i_glide_eff_state_penalty>
0

> <s_user_duplicate_titles>
75386

> <s_m_subgroup_title>
dock_pv

> <s_m_subgroupid>
dock_pv1

> <b_m_subgroup_collapsed>
0

$$$$
323113
                    3D
 Schrodinger Suite 2021-1.
 31 33  0  0  1  0            999 V2000
   33.1242   -3.0720   24.8662 C   0  0  0  0  0  0
   33.4301   -3.8341   23.7462 C   0  0  0  0  0  0
   32.8155   -3.5998   22.5278 C   0  0  0  0  0  0
   31.9310   -2.5420   22.4113 C   0  0  0  0  0  0
   31.6599   -1.7375   23.5221 C   0  0  0  0  0  0
   32.2202   -2.0079   24.7780 C   0  0  0  0  0  0
   31.8415   -1.2110   25.9929 C   0  0  0  0  0  0
   32.7006   -1.1308   27.0935 C   0  0  0  0  0  0
   32.3553   -0.4229   28.2648 C   0  0  0  0  0  0
   33.2327   -0.3944   29.3777 C   0  0  0  0  0  0
   32.8596    0.2559   30.5472 C   0  0  0  0  0  0
   31.6341    0.8948   30.6360 C   0  0  0  0  0  0
   30.7755    0.9387   29.5420 C   0  0  0  0  0  0
   31.1008    0.2590   28.3302 C   0  0  0  0  0  0
   30.2364    0.2038   27.1907 C   0  0  0  0  0  0
   30.6138   -0.5430   26.0715 C   0  0  0  0  0  0
   28.9529    0.9014   27.1485 C   0  0  0  0  0  0
   27.9390    1.4570   27.1153 N   0  0  0  0  0  0
   31.2628    1.4580   31.8228 O   0  0  0  0  0  0
   33.0719   -4.4273   21.4647 O   0  0  0  0  0  0
   33.5712   -3.3556   25.8060 H   0  0  0  0  0  0
   34.0600   -4.6956   23.8518 H   0  0  0  0  0  0
   31.4589   -2.3505   21.4603 H   0  0  0  0  0  0
   30.9763   -0.9115   23.4183 H   0  0  0  0  0  0
   33.6596   -1.6247   27.0737 H   0  0  0  0  0  0
   34.1847   -0.9043   29.3262 H   0  0  0  0  0  0
   33.5191    0.2482   31.4014 H   0  0  0  0  0  0
   29.8301    1.4521   29.6329 H   0  0  0  0  0  0
   29.9255   -0.6057   25.2406 H   0  0  0  0  0  0
   30.4169    1.9075   31.7785 H   0  0  0  0  0  0
   32.3074   -4.6646   20.9224 H   0  0  0  0  0  0
  1  6  1  0  0  0
  1  2  2  0  0  0
  1 21  1  0  0  0
  2  3  1  0  0  0
  2 22  1  0  0  0
  3  4  2  0  0  0
  3 20  1  0  0  0
  4  5  1  0  0  0
  4 23  1  0  0  0
  5  6  2  0  0  0
  5 24  1  0  0  0
  6  7  1  0  0  0
  7 16  1  0  0  0
  7  8  2  0  0  0
  8  9  1  0  0  0
  8 25  1  0  0  0
  9 14  2  0  0  0
  9 10  1  0  0  0
 10 11  2  0  0  0
 10 26  1  0  0  0
 11 12  1  0  0  0
 11 27  1  0  0  0
 12 13  2  0  0  0
 12 19  1  0  0  0
 13 14  1  0  0  0
 13 28  1  0  0  0
 14 15  1  0  0  0
 15 16  2  0  0  0
 15 17  1  0  0  0
 16 29  1  0  0  0
 17 18  3  0  0  0
 19 30  1  0  0  0
 20 31  1  0  0  0
M  END
> <s_m_entry_id>
17303

> <s_m_entry_name>
ligand_docking-pose.230

> <s_m_Source_Path>
/home/csk/Desktop/cluster/DUD-E-result/esr1

> <s_m_Source_File>
ligand_docking-pose.sdf

> <i_m_Source_File_Index>
230

> <i_lp_mmshare_version>
53161

> <i_f3d_flags>
0

> <r_lp_tautomer_probability>
0.999999999997365

> <s_lp_Force_Field>
OPLS_2005

> <r_lp_Energy>
16.871059

> <b_lp_Chiralities_Consistent>
1

> <s_lp_Variant>
323113-1

> <s_i_glide_gridfile>
glide-grid_1sj0

> <i_i_glide_lignum>
233

> <i_i_glide_rotatable_bonds>
3

> <r_i_docking_score>
-8.91658448131688

> <r_i_glide_ligand_efficiency>
-0.445829224065844

> <r_i_glide_ligand_efficiency_sa>
-1.21016669858872

> <r_i_glide_ligand_efficiency_ln>
-2.23152700703495

> <r_i_glide_gscore>
-8.91658448131688

> <r_i_glide_lipo>
-4.21042993809229

> <r_i_glide_hbond>
-0.096735910431673

> <r_i_glide_metal>
0

> <r_i_glide_rewards>
-2.82172005270726

> <r_i_glide_evdw>
-34.403995513916

> <r_i_glide_ecoul>
-2.18036532402039

> <r_i_glide_erotb>
0.259555994213202

> <r_i_glide_esite>
0

> <r_i_glide_emodel>
-54.6015628054151

> <r_i_glide_energy>
-36.5843608379364

> <r_i_glide_einternal>
2.88279747962952

> <i_i_glide_confnum>
3

> <i_i_glide_posenum>
185

> <r_i_glide_eff_state_penalty>
0

> <s_user_duplicate_titles>
323113

> <s_m_subgroup_title>
dock_pv

> <s_m_subgroupid>
dock_pv1

> <b_m_subgroup_collapsed>
0

$$$$
373333
                    3D
 Schrodinger Suite 2021-1.
 39 41  0  0  1  0            999 V2000
   31.1571   -0.5455   23.8641 C   0  0  0  0  0  0
   31.8027   -1.8907   23.9028 C   0  0  0  0  0  0
   31.9571   -2.5424   22.6698 C   0  0  0  0  0  0
   32.7885   -3.6388   22.5594 C   0  0  0  0  0  0
   33.4611   -4.0674   23.6836 C   0  0  0  0  0  0
   33.2608   -3.4729   24.9245 C   0  0  0  0  0  0
   32.4167   -2.3743   25.0692 C   0  0  0  0  0  0
   32.2602   -1.7862   26.4483 C   0  0  0  0  0  0
   31.1748   -1.0557   27.0459 C   0  0  0  0  0  0
   29.8570   -0.7336   26.6829 C   0  0  0  0  0  0
   29.1314    0.1370   27.4862 C   0  0  0  0  0  0
   29.6709    0.6386   28.6640 C   0  0  0  0  0  0
   30.9405    0.2689   29.1367 C   0  0  0  0  0  0
   31.6864   -0.5742   28.2874 C   0  0  0  0  0  0
   32.9584   -1.1300   28.3780 N   0  0  0  0  0  0
   33.2564   -1.8505   27.2910 N   0  0  0  0  0  0
   34.0554   -0.8820   29.3155 C   0  0  0  0  0  0
   34.8600    0.3896   29.0640 C   0  0  0  0  0  0
   34.6835    1.2835   28.0743 C   0  0  0  0  0  0
   31.3798    0.7334   30.5207 C   0  0  0  0  0  0
   32.4889    1.4580   30.4458 F   0  0  0  0  0  0
   30.4604    1.4579   31.1492 F   0  0  0  0  0  0
   31.6173   -0.3427   31.2622 F   0  0  0  0  0  0
   32.9696   -4.2877   21.3692 O   0  0  0  0  0  0
   31.6425   -0.1420   22.9920 H   0  0  0  0  0  0
   30.0792   -0.5817   23.7103 H   0  0  0  0  0  0
   31.4413    0.1084   24.6857 H   0  0  0  0  0  0
   31.4892   -2.1609   21.7764 H   0  0  0  0  0  0
   34.0600   -4.9420   23.6196 H   0  0  0  0  0  0
   33.7406   -3.9092   25.7849 H   0  0  0  0  0  0
   29.4150   -1.1299   25.7821 H   0  0  0  0  0  0
   28.1289    0.4201   27.1973 H   0  0  0  0  0  0
   29.0482    1.2990   29.2505 H   0  0  0  0  0  0
   33.6599   -0.8593   30.3234 H   0  0  0  0  0  0
   34.7357   -1.7344   29.3090 H   0  0  0  0  0  0
   35.6596    0.5700   29.7685 H   0  0  0  0  0  0
   35.3260    2.1490   27.9950 H   0  0  0  0  0  0
   33.9083    1.1695   27.3308 H   0  0  0  0  0  0
   32.1646   -4.4733   20.8696 H   0  0  0  0  0  0
  1  2  1  0  0  0
  1 25  1  0  0  0
  1 26  1  0  0  0
  1 27  1  0  0  0
  2  7  1  0  0  0
  2  3  2  0  0  0
  3  4  1  0  0  0
  3 28  1  0  0  0
  4  5  2  0  0  0
  4 24  1  0  0  0
  5  6  1  0  0  0
  5 29  1  0  0  0
  6  7  2  0  0  0
  6 30  1  0  0  0
  7  8  1  0  0  0
  8 16  2  0  0  0
  8  9  1  0  0  0
  9 14  2  0  0  0
  9 10  1  0  0  0
 10 11  2  0  0  0
 10 31  1  0  0  0
 11 12  1  0  0  0
 11 32  1  0  0  0
 12 13  2  0  0  0
 12 33  1  0  0  0
 13 14  1  0  0  0
 13 20  1  0  0  0
 14 15  1  0  0  0
 15 16  1  0  0  0
 15 17  1  0  0  0
 17 18  1  0  0  0
 17 34  1  0  0  0
 17 35  1  0  0  0
 18 19  2  0  0  0
 18 36  1  0  0  0
 19 37  1  0  0  0
 19 38  1  0  0  0
 20 21  1  0  0  0
 20 22  1  0  0  0
 20 23  1  0  0  0
 24 39  1  0  0  0
M  END
> <s_m_entry_id>
17304

> <s_m_entry_name>
ligand_docking-pose.231

> <s_m_Source_Path>
/home/csk/Desktop/cluster/DUD-E-result/esr1

> <s_m_Source_File>
ligand_docking-pose.sdf

> <i_m_Source_File_Index>
231

> <i_lp_mmshare_version>
53161

> <i_f3d_flags>
0

> <r_lp_tautomer_probability>
0.999999999997365

> <s_lp_Force_Field>
OPLS_2005

> <r_lp_Energy>
18.361267

> <b_lp_Chiralities_Consistent>
1

> <s_lp_Variant>
373333-1

> <s_i_glide_gridfile>
glide-grid_1sj0

> <i_i_glide_lignum>
976

> <i_i_glide_rotatable_bonds>
5

> <r_i_docking_score>
-8.90918227978374

> <r_i_glide_ligand_efficiency>
-0.371215928324322

> <r_i_glide_ligand_efficiency_sa>
-1.07077202509972

> <r_i_glide_ligand_efficiency_ln>
-2.13237613528828

> <r_i_glide_gscore>
-8.90918227978374

> <r_i_glide_lipo>
-4.30206320950585

> <r_i_glide_hbond>
-0.0679851314356939

> <r_i_glide_metal>
0

> <r_i_glide_rewards>
-3.32134644162915

> <r_i_glide_evdw>
-27.0086994171143

> <r_i_glide_ecoul>
-2.52631616592407

> <r_i_glide_erotb>
0.511594898531276

> <r_i_glide_esite>
0

> <r_i_glide_emodel>
-36.7626656718445

> <r_i_glide_energy>
-29.5350155830383

> <r_i_glide_einternal>
4.52651500701904

> <i_i_glide_confnum>
7

> <i_i_glide_posenum>
178

> <r_i_glide_eff_state_penalty>
0

> <s_user_duplicate_titles>
373333

> <s_m_subgroup_title>
dock_pv

> <s_m_subgroupid>
dock_pv1

> <b_m_subgroup_collapsed>
0

$$$$
303488
                    3D
 Schrodinger Suite 2021-1.
 63 67  0  0  1  0            999 V2000
   24.0933   -0.2367   26.6246 C   0  0  0  0  0  0
   24.8607   -1.3434   27.0583 O   0  0  0  0  0  0
   26.2041   -1.2182   27.2780 C   0  0  0  0  0  0
   26.9932   -2.3647   27.2771 C   0  0  0  0  0  0
   28.3662   -2.2680   27.4922 C   0  0  0  0  0  0
   28.9724   -1.0357   27.7775 C   0  0  0  0  0  0
   28.1328    0.0990   27.8764 C   0  0  0  0  0  0
   26.7897    0.0038   27.5536 C   0  0  0  0  0  0
   28.6179    1.4142   28.4293 C   0  0  0  0  0  0
   30.1111    1.8580   27.6537 S   0  0  0  0  0  0
   31.0441    0.4597   28.3569 C   0  0  1  0  0  0
   30.5134   -0.9345   27.8775 C   0  0  2  0  0  0
   31.1603   -1.3902   26.5641 C   0  0  0  0  0  0
   30.8488   -0.7238   25.3793 C   0  0  0  0  0  0
   31.4761   -1.0829   24.1978 C   0  0  0  0  0  0
   32.3972   -2.1232   24.1691 C   0  0  0  0  0  0
   32.6887   -2.8217   25.3502 C   0  0  0  0  0  0
   32.0805   -2.4442   26.5461 C   0  0  0  0  0  0
   32.9667   -2.3634   22.9396 O   0  0  0  0  0  0
   33.9315   -3.3967   22.7854 C   0  0  0  0  0  0
   34.6892   -3.2335   21.4488 C   0  0  0  0  0  0
   33.8167   -2.9364   20.3112 N   0  0  0  0  0  0
   32.8600   -3.9826   19.9798 C   0  0  0  0  0  0
   32.3315   -3.6065   18.5941 C   0  0  0  0  0  0
   33.4480   -2.7547   17.9826 C   0  0  0  0  0  0
   34.5324   -2.7283   19.0623 C   0  0  0  0  0  0
   32.5510    0.6869   28.2022 C   0  0  0  0  0  0
   33.0551    1.4558   27.1415 C   0  0  0  0  0  0
   34.4013    1.7459   27.0625 C   0  0  0  0  0  0
   35.2598    1.1971   27.9935 C   0  0  0  0  0  0
   34.7963    0.3970   29.0350 C   0  0  0  0  0  0
   33.4319    0.1511   29.1472 C   0  0  0  0  0  0
   30.8773    0.5249   29.4336 H   0  0  0  0  0  0
   30.8203   -1.6614   28.6320 H   0  0  0  0  0  0
   23.1286   -0.5416   26.2307 H   0  0  0  0  0  0
   23.8784    0.4207   27.4636 H   0  0  0  0  0  0
   24.6035    0.2579   25.8075 H   0  0  0  0  0  0
   26.5408   -3.3228   27.0633 H   0  0  0  0  0  0
   28.9703   -3.1612   27.4164 H   0  0  0  0  0  0
   26.1799    0.8922   27.5973 H   0  0  0  0  0  0
   28.8595    1.3640   29.4918 H   0  0  0  0  0  0
   27.9176    2.2344   28.2638 H   0  0  0  0  0  0
   30.1364    0.0880   25.3745 H   0  0  0  0  0  0
   31.2604   -0.5422   23.2915 H   0  0  0  0  0  0
   33.3908   -3.6403   25.3619 H   0  0  0  0  0  0
   32.3366   -2.9647   27.4565 H   0  0  0  0  0  0
   33.4453   -4.3718   22.8418 H   0  0  0  0  0  0
   34.6646   -3.3417   23.5888 H   0  0  0  0  0  0
   35.2594   -4.1399   21.2439 H   0  0  0  0  0  0
   35.4164   -2.4283   21.5513 H   0  0  0  0  0  0
   32.0703   -4.0011   20.7328 H   0  0  0  0  0  0
   33.3031   -4.9803   20.0076 H   0  0  0  0  0  0
   31.3990   -3.0463   18.6763 H   0  0  0  0  0  0
   32.1254   -4.5002   18.0036 H   0  0  0  0  0  0
   33.8265   -3.1855   17.0556 H   0  0  0  0  0  0
   33.1003   -1.7455   17.7566 H   0  0  0  0  0  0
   35.3124   -3.4755   18.9013 H   0  0  0  0  0  0
   35.0544   -1.7715   19.1096 H   0  0  0  0  0  0
   32.4186    1.8582   26.3722 H   0  0  0  0  0  0
   34.7877    2.3541   26.2593 H   0  0  0  0  0  0
   36.3082    1.3901   27.8637 H   0  0  0  0  0  0
   35.4914   -0.0230   29.7476 H   0  0  0  0  0  0
   33.0640   -0.4524   29.9640 H   0  0  0  0  0  0
  1  2  1  0  0  0
  1 35  1  0  0  0
  1 36  1  0  0  0
  1 37  1  0  0  0
  2  3  1  0  0  0
  3  8  1  0  0  0
  3  4  2  0  0  0
  4  5  1  0  0  0
  4 38  1  0  0  0
  5  6  2  0  0  0
  5 39  1  0  0  0
  6 12  1  0  0  0
  6  7  1  0  0  0
  7  8  2  0  0  0
  7  9  1  0  0  0
  8 40  1  0  0  0
  9 10  1  0  0  0
  9 41  1  0  0  0
  9 42  1  0  0  0
 10 11  1  0  0  0
 11 33  1  0  0  0
 11 12  1  0  0  0
 11 27  1  0  0  0
 12 34  1  0  0  0
 12 13  1  0  0  0
 13 18  1  0  0  0
 13 14  2  0  0  0
 14 15  1  0  0  0
 14 43  1  0  0  0
 15 16  2  0  0  0
 15 44  1  0  0  0
 16 17  1  0  0  0
 16 19  1  0  0  0
 17 18  2  0  0  0
 17 45  1  0  0  0
 18 46  1  0  0  0
 19 20  1  0  0  0
 20 21  1  0  0  0
 20 47  1  0  0  0
 20 48  1  0  0  0
 21 22  1  0  0  0
 21 49  1  0  0  0
 21 50  1  0  0  0
 22 26  1  0  0  0
 22 23  1  0  0  0
 23 24  1  0  0  0
 23 51  1  0  0  0
 23 52  1  0  0  0
 24 25  1  0  0  0
 24 53  1  0  0  0
 24 54  1  0  0  0
 25 26  1  0  0  0
 25 55  1  0  0  0
 25 56  1  0  0  0
 26 57  1  0  0  0
 26 58  1  0  0  0
 27 32  1  0  0  0
 27 28  2  0  0  0
 28 29  1  0  0  0
 28 59  1  0  0  0
 29 30  2  0  0  0
 29 60  1  0  0  0
 30 31  1  0  0  0
 30 61  1  0  0  0
 31 32  2  0  0  0
 31 62  1  0  0  0
 32 63  1  0  0  0
M  END
> <s_m_entry_id>
17305

> <s_m_entry_name>
ligand_docking-pose.232

> <s_m_Source_Path>
/home/csk/Desktop/cluster/DUD-E-result/esr1

> <s_m_Source_File>
ligand_docking-pose.sdf

> <i_m_Source_File_Index>
232

> <i_lp_mmshare_version>
53161

> <i_f3d_flags>
0

> <r_lp_tautomer_probability>
1

> <s_lp_Force_Field>
OPLS_2005

> <r_lp_Energy>
49.159622

> <b_lp_Chiralities_Consistent>
1

> <s_lp_Variant>
303488-1

> <s_i_glide_gridfile>
glide-grid_1sj0

> <i_i_glide_lignum>
1759

> <i_i_glide_rotatable_bonds>
7

> <r_i_docking_score>
-8.90323002069756

> <r_i_glide_ligand_efficiency>
-0.278225938146799

> <r_i_glide_ligand_efficiency_sa>
-0.883312292777693

> <r_i_glide_ligand_efficiency_ln>
-1.99367589451848

> <r_i_glide_gscore>
-8.90323002069756

> <r_i_glide_lipo>
-5.63390281816007

> <r_i_glide_hbond>
-0.101379409083231

> <r_i_glide_metal>
0

> <r_i_glide_rewards>
-1.2297640681972

> <r_i_glide_evdw>
-39.8022727966309

> <r_i_glide_ecoul>
-3.01268267631531

> <r_i_glide_erotb>
0.503832316021777

> <r_i_glide_esite>
0

> <r_i_glide_emodel>
-57.9582826731313

> <r_i_glide_energy>
-42.8149554729462

> <r_i_glide_einternal>
7.5381326675415

> <i_i_glide_confnum>
10

> <i_i_glide_posenum>
58

> <r_i_glide_eff_state_penalty>
0

> <s_user_duplicate_titles>
303488

> <s_m_subgroup_title>
dock_pv

> <s_m_subgroupid>
dock_pv1

> <b_m_subgroup_collapsed>
0

$$$$
373325
                    3D
 Schrodinger Suite 2021-1.
 39 42  0  0  1  0            999 V2000
   27.8913   -0.5010   26.5204 C   0  0  0  0  0  0
   29.0227   -0.9802   25.8724 C   0  0  0  0  0  0
   30.2822   -0.5032   26.2545 C   0  0  0  0  0  0
   30.3791    0.5068   27.2497 C   0  0  0  0  0  0
   29.2256    1.0325   27.8616 C   0  0  0  0  0  0
   27.9927    0.5069   27.4690 C   0  0  0  0  0  0
   29.2596    2.2578   29.0663 Cl  0  0  0  0  0  0
   31.7482    0.7519   27.3616 N   0  0  0  0  0  0
   32.4588   -0.0822   26.5821 N   0  0  0  0  0  0
   31.6265   -0.7895   25.8790 C   0  0  0  0  0  0
   32.1164   -1.7099   24.8315 C   0  0  0  0  0  0
   31.4537   -1.7420   23.6102 C   0  0  0  0  0  0
   31.8947   -2.5874   22.5979 C   0  0  0  0  0  0
   32.9899   -3.4110   22.8214 C   0  0  0  0  0  0
   33.6410   -3.3933   24.0532 C   0  0  0  0  0  0
   33.2079   -2.5428   25.0610 C   0  0  0  0  0  0
   33.4175   -4.2559   21.8346 O   0  0  0  0  0  0
   32.4957    1.6923   28.2042 C   0  0  0  0  0  0
   33.0864    1.0056   29.4445 C   0  0  0  0  0  0
   34.4950    0.5819   29.0176 C   0  0  0  0  0  0
   34.9498    1.6109   27.9687 C   0  0  0  0  0  0
   33.6918    2.3376   27.4649 C   0  0  0  0  0  0
   26.9176   -0.8904   26.2592 H   0  0  0  0  0  0
   28.9289   -1.7410   25.1184 H   0  0  0  0  0  0
   27.0862    0.8846   27.9197 H   0  0  0  0  0  0
   30.5991   -1.0994   23.4637 H   0  0  0  0  0  0
   31.3835   -2.6068   21.6472 H   0  0  0  0  0  0
   34.4558   -4.0623   24.2554 H   0  0  0  0  0  0
   33.7082   -2.5402   26.0187 H   0  0  0  0  0  0
   32.7638   -4.4168   21.1452 H   0  0  0  0  0  0
   31.7502    2.4407   28.4489 H   0  0  0  0  0  0
   32.4837    0.1665   29.7978 H   0  0  0  0  0  0
   33.1384    1.7148   30.2707 H   0  0  0  0  0  0
   34.4595   -0.4132   28.5717 H   0  0  0  0  0  0
   35.1815    0.5270   29.8635 H   0  0  0  0  0  0
   35.4828    1.1192   27.1530 H   0  0  0  0  0  0
   35.6473    2.3241   28.4102 H   0  0  0  0  0  0
   33.7518    3.3953   27.7266 H   0  0  0  0  0  0
   33.5987    2.3087   26.3794 H   0  0  0  0  0  0
  1  6  1  0  0  0
  1  2  2  0  0  0
  1 23  1  0  0  0
  2  3  1  0  0  0
  2 24  1  0  0  0
  3 10  1  0  0  0
  3  4  2  0  0  0
  4  5  1  0  0  0
  4  8  1  0  0  0
  5  6  2  0  0  0
  5  7  1  0  0  0
  6 25  1  0  0  0
  8  9  1  0  0  0
  8 18  1  0  0  0
  9 10  2  0  0  0
 10 11  1  0  0  0
 11 16  1  0  0  0
 11 12  2  0  0  0
 12 13  1  0  0  0
 12 26  1  0  0  0
 13 14  2  0  0  0
 13 27  1  0  0  0
 14 15  1  0  0  0
 14 17  1  0  0  0
 15 16  2  0  0  0
 15 28  1  0  0  0
 16 29  1  0  0  0
 17 30  1  0  0  0
 18 22  1  0  0  0
 18 19  1  0  0  0
 18 31  1  0  0  0
 19 20  1  0  0  0
 19 32  1  0  0  0
 19 33  1  0  0  0
 20 21  1  0  0  0
 20 34  1  0  0  0
 20 35  1  0  0  0
 21 22  1  0  0  0
 21 36  1  0  0  0
 21 37  1  0  0  0
 22 38  1  0  0  0
 22 39  1  0  0  0
M  END
> <s_m_entry_id>
17306

> <s_m_entry_name>
ligand_docking-pose.233

> <s_m_Source_Path>
/home/csk/Desktop/cluster/DUD-E-result/esr1

> <s_m_Source_File>
ligand_docking-pose.sdf

> <i_m_Source_File_Index>
233

> <i_lp_mmshare_version>
53161

> <i_f3d_flags>
0

> <r_lp_tautomer_probability>
0.999999999997365

> <s_lp_Force_Field>
OPLS_2005

> <r_lp_Energy>
37.000176

> <b_lp_Chiralities_Consistent>
1

> <s_lp_Variant>
373325-1

> <s_i_glide_gridfile>
glide-grid_1sj0

> <i_i_glide_lignum>
5

> <i_i_glide_rotatable_bonds>
3

> <r_i_docking_score>
-8.89914592238827

> <r_i_glide_ligand_efficiency>
-0.404506632835831

> <r_i_glide_ligand_efficiency_sa>
-1.13344349354913

> <r_i_glide_ligand_efficiency_ln>
-2.1752758676662

> <r_i_glide_gscore>
-8.89914592238827

> <r_i_glide_lipo>
-4.84675744661156

> <r_i_glide_hbond>
0

> <r_i_glide_metal>
0

> <r_i_glide_rewards>
-2.34198154529986

> <r_i_glide_evdw>
-38.5911331176758

> <r_i_glide_ecoul>
-1.06897127628326

> <r_i_glide_erotb>
0.379495416849426

> <r_i_glide_esite>
0

> <r_i_glide_emodel>
-58.1064575617849

> <r_i_glide_energy>
-39.660104393959

> <r_i_glide_einternal>
2.31181049346924

> <i_i_glide_confnum>
42

> <i_i_glide_posenum>
318

> <r_i_glide_eff_state_penalty>
0

> <s_user_duplicate_titles>
373325

> <s_m_subgroup_title>
dock_pv

> <s_m_subgroupid>
dock_pv1

> <b_m_subgroup_collapsed>
0

$$$$
399905
                    3D
 Schrodinger Suite 2021-1.
 38 41  0  0  1  0            999 V2000
   33.1119   -2.8220   25.0951 C   0  0  0  0  0  0
   33.3835   -3.7225   24.0685 C   0  0  0  0  0  0
   32.7360   -3.6012   22.8425 C   0  0  0  0  0  0
   31.8629   -2.5426   22.6239 C   0  0  0  0  0  0
   31.6109   -1.6268   23.6439 C   0  0  0  0  0  0
   32.2066   -1.7718   24.8981 C   0  0  0  0  0  0
   31.9062   -0.7787   26.0337 C   0  0  1  0  0  0
   30.4277   -0.2754   26.1108 C   0  0  1  0  0  0
   29.3593   -1.3417   26.3996 C   0  0  0  0  0  0
   28.2596   -0.6259   27.1877 C   0  0  0  0  0  0
   27.1846   -1.1081   27.5343 O   0  0  0  0  0  0
   28.7259    0.7998   27.4695 C   0  0  0  0  0  0
   30.2375    0.7801   27.2056 C   0  0  1  0  0  0
   31.1170    0.4970   28.4259 C   0  0  0  0  0  0
   30.9774    1.2188   29.6152 C   0  0  0  0  0  0
   31.8145    0.9796   30.7026 C   0  0  0  0  0  0
   32.8120    0.0195   30.6178 C   0  0  0  0  0  0
   32.9585   -0.7340   29.4577 C   0  0  0  0  0  0
   32.1159   -0.4950   28.3735 C   0  0  0  0  0  0
   32.2765   -1.3370   27.2966 O   0  0  0  0  0  0
   31.6599    1.6773   31.8635 O   0  0  0  0  0  0
   32.9454   -4.5394   21.8649 O   0  0  0  0  0  0
   32.5619    0.0696   25.8218 H   0  0  0  0  0  0
   30.1668    0.2209   25.1739 H   0  0  0  0  0  0
   30.5631    1.7525   26.8354 H   0  0  0  0  0  0
   33.6088   -2.9527   26.0449 H   0  0  0  0  0  0
   34.0600   -4.5418   24.2540 H   0  0  0  0  0  0
   31.3662   -2.4543   21.6695 H   0  0  0  0  0  0
   30.9227   -0.8173   23.4639 H   0  0  0  0  0  0
   28.9508   -1.7419   25.4734 H   0  0  0  0  0  0
   29.7515   -2.1695   26.9923 H   0  0  0  0  0  0
   28.2106    1.4768   26.7891 H   0  0  0  0  0  0
   28.4799    1.0951   28.4885 H   0  0  0  0  0  0
   30.2092    1.9723   29.6853 H   0  0  0  0  0  0
   33.4581   -0.1424   31.4640 H   0  0  0  0  0  0
   33.7160   -1.5023   29.4007 H   0  0  0  0  0  0
   30.9252    2.2927   31.8370 H   0  0  0  0  0  0
   32.2454   -4.6385   21.2069 H   0  0  0  0  0  0
  1  6  1  0  0  0
  1  2  2  0  0  0
  1 26  1  0  0  0
  2  3  1  0  0  0
  2 27  1  0  0  0
  3  4  2  0  0  0
  3 22  1  0  0  0
  4  5  1  0  0  0
  4 28  1  0  0  0
  5  6  2  0  0  0
  5 29  1  0  0  0
  6  7  1  0  0  0
  7 23  1  0  0  0
  7 20  1  0  0  0
  7  8  1  0  0  0
  8 24  1  0  0  0
  8 13  1  0  0  0
  8  9  1  0  0  0
  9 10  1  0  0  0
  9 30  1  0  0  0
  9 31  1  0  0  0
 10 11  2  0  0  0
 10 12  1  0  0  0
 12 13  1  0  0  0
 12 32  1  0  0  0
 12 33  1  0  0  0
 13 25  1  0  0  0
 13 14  1  0  0  0
 14 19  2  0  0  0
 14 15  1  0  0  0
 15 16  2  0  0  0
 15 34  1  0  0  0
 16 17  1  0  0  0
 16 21  1  0  0  0
 17 18  2  0  0  0
 17 35  1  0  0  0
 18 19  1  0  0  0
 18 36  1  0  0  0
 19 20  1  0  0  0
 21 37  1  0  0  0
 22 38  1  0  0  0
M  END
> <s_m_entry_id>
17307

> <s_m_entry_name>
ligand_docking-pose.234

> <s_m_Source_Path>
/home/csk/Desktop/cluster/DUD-E-result/esr1

> <s_m_Source_File>
ligand_docking-pose.sdf

> <i_m_Source_File_Index>
234

> <i_lp_mmshare_version>
53161

> <i_f3d_flags>
0

> <r_lp_tautomer_probability>
0.999999979997365

> <s_lp_Force_Field>
OPLS_2005

> <r_lp_Energy>
24.424991

> <b_lp_Chiralities_Consistent>
1

> <s_lp_Variant>
399905-1

> <s_i_glide_gridfile>
glide-grid_1sj0

> <i_i_glide_lignum>
486

> <i_i_glide_rotatable_bonds>
3

> <r_i_docking_score>
-8.89675689611232

> <r_i_glide_ligand_efficiency>
-0.404398040732378

> <r_i_glide_ligand_efficiency_sa>
-1.13313921420458

> <r_i_glide_ligand_efficiency_ln>
-2.17469190250251

> <r_i_glide_gscore>
-8.89675689611232

> <r_i_glide_lipo>
-4.61628329862052

> <r_i_glide_hbond>
-0.0410261081776872

> <r_i_glide_metal>
0

> <r_i_glide_rewards>
-2.44930579235382

> <r_i_glide_evdw>
-36.0287094116211

> <r_i_glide_ecoul>
-1.31554102897644

> <r_i_glide_erotb>
0.208624927967228

> <r_i_glide_esite>
0

> <r_i_glide_emodel>
-55.6780140281025

> <r_i_glide_energy>
-37.3442504405975

> <r_i_glide_einternal>
2.02503275871277

> <i_i_glide_confnum>
2

> <i_i_glide_posenum>
130

> <r_i_glide_eff_state_penalty>
0

> <s_user_duplicate_titles>
399905

> <s_m_subgroup_title>
dock_pv

> <s_m_subgroupid>
dock_pv1

> <b_m_subgroup_collapsed>
0

$$$$
301199
                    3D
 Schrodinger Suite 2021-1.
 42 44  0  0  1  0            999 V2000
   30.2627   -0.1640   25.5518 C   0  0  0  0  0  0
   31.2980   -0.2017   26.6747 C   0  0  0  0  0  0
   31.8834    0.9361   27.1080 C   0  0  0  0  0  0
   32.9616    1.0426   28.1762 C   0  0  0  0  0  0
   33.2315   -0.3098   28.9077 C   0  0  2  0  0  0
   33.0090   -1.4982   27.9445 C   0  0  0  0  0  0
   31.5605   -1.5316   27.4130 C   0  0  1  0  0  0
   30.5779   -1.6149   28.6404 C   0  0  1  0  0  0
   30.8602   -0.5526   29.5602 O   0  0  0  0  0  0
   32.1982   -0.4750   30.0529 C   0  0  0  0  0  0
   29.0976   -1.5697   28.2373 C   0  0  0  0  0  0
   28.4280   -2.7403   27.8640 C   0  0  0  0  0  0
   27.1323   -2.6679   27.3592 C   0  0  0  0  0  0
   26.5075   -1.4285   27.2257 C   0  0  0  0  0  0
   27.1466   -0.2658   27.6355 C   0  0  0  0  0  0
   28.4367   -0.3371   28.1494 C   0  0  0  0  0  0
   25.2644   -1.3420   26.6641 O   0  0  0  0  0  0
   31.4752   -2.7482   26.4589 C   0  0  0  0  0  0
   34.6785   -0.3618   29.4629 C   0  0  0  0  0  0
   35.6598   -0.1402   28.4725 O   0  0  0  0  0  0
   30.7283   -2.5420   29.1861 H   0  0  0  0  0  0
   29.5151   -0.9496   25.6418 H   0  0  0  0  0  0
   29.7178    0.7779   25.5332 H   0  0  0  0  0  0
   30.7578   -0.3042   24.5913 H   0  0  0  0  0  0
   31.5815    1.8579   26.6639 H   0  0  0  0  0  0
   33.8336    1.3364   27.5912 H   0  0  0  0  0  0
   32.7716    1.8582   28.8748 H   0  0  0  0  0  0
   33.2587   -2.4389   28.4406 H   0  0  0  0  0  0
   33.6747   -1.4223   27.0900 H   0  0  0  0  0  0
   32.4309   -1.3418   30.6659 H   0  0  0  0  0  0
   32.2528    0.3757   30.7338 H   0  0  0  0  0  0
   28.9222   -3.7001   27.9213 H   0  0  0  0  0  0
   26.6278   -3.5699   27.0430 H   0  0  0  0  0  0
   26.6532    0.6896   27.5303 H   0  0  0  0  0  0
   28.9436    0.5757   28.4276 H   0  0  0  0  0  0
   24.9896   -2.1976   26.2640 H   0  0  0  0  0  0
   31.8251   -3.6617   26.9394 H   0  0  0  0  0  0
   32.0820   -2.6047   25.5635 H   0  0  0  0  0  0
   30.4599   -2.9408   26.1385 H   0  0  0  0  0  0
   34.8098    0.3704   30.2582 H   0  0  0  0  0  0
   34.8857   -1.3507   29.8640 H   0  0  0  0  0  0
   36.4161    0.3307   28.8487 H   0  0  0  0  0  0
  1  2  1  0  0  0
  1 22  1  0  0  0
  1 23  1  0  0  0
  1 24  1  0  0  0
  2  7  1  0  0  0
  2  3  2  0  0  0
  3  4  1  0  0  0
  3 25  1  0  0  0
  4  5  1  0  0  0
  4 26  1  0  0  0
  4 27  1  0  0  0
  5 10  1  0  0  0
  5  6  1  0  0  0
  5 19  1  0  0  0
  6  7  1  0  0  0
  6 28  1  0  0  0
  6 29  1  0  0  0
  7  8  1  0  0  0
  7 18  1  0  0  0
  8 21  1  0  0  0
  8  9  1  0  0  0
  8 11  1  0  0  0
  9 10  1  0  0  0
 10 30  1  0  0  0
 10 31  1  0  0  0
 11 16  1  0  0  0
 11 12  2  0  0  0
 12 13  1  0  0  0
 12 32  1  0  0  0
 13 14  2  0  0  0
 13 33  1  0  0  0
 14 15  1  0  0  0
 14 17  1  0  0  0
 15 16  2  0  0  0
 15 34  1  0  0  0
 16 35  1  0  0  0
 17 36  1  0  0  0
 18 37  1  0  0  0
 18 38  1  0  0  0
 18 39  1  0  0  0
 19 20  1  0  0  0
 19 40  1  0  0  0
 19 41  1  0  0  0
 20 42  1  0  0  0
M  END
> <s_m_entry_id>
17308

> <s_m_entry_name>
ligand_docking-pose.235

> <s_m_Source_Path>
/home/csk/Desktop/cluster/DUD-E-result/esr1

> <s_m_Source_File>
ligand_docking-pose.sdf

> <i_m_Source_File_Index>
235

> <i_lp_mmshare_version>
53161

> <i_f3d_flags>
0

> <r_lp_tautomer_probability>
0.999999999997365

> <s_lp_Force_Field>
OPLS_2005

> <r_lp_Energy>
30.368613

> <b_lp_Chiralities_Consistent>
1

> <s_lp_Variant>
301199-1

> <s_i_glide_gridfile>
glide-grid_1sj0

> <i_i_glide_lignum>
922

> <i_i_glide_rotatable_bonds>
4

> <r_i_docking_score>
-8.8938974268349

> <r_i_glide_ligand_efficiency>
-0.444694871341745

> <r_i_glide_ligand_efficiency_sa>
-1.20708759157407

> <r_i_glide_ligand_efficiency_ln>
-2.22584918556724

> <r_i_glide_gscore>
-8.8938974268349

> <r_i_glide_lipo>
-3.78599669983151

> <r_i_glide_hbond>
-0.493474371406673

> <r_i_glide_metal>
0

> <r_i_glide_rewards>
-2.38486032282651

> <r_i_glide_evdw>
-22.8722190856934

> <r_i_glide_ecoul>
-9.46611976623535

> <r_i_glide_erotb>
0.333962886449766

> <r_i_glide_esite>
0

> <r_i_glide_emodel>
-46.9439696272772

> <r_i_glide_energy>
-32.3383388519287

> <r_i_glide_einternal>
2.46713089942932

> <i_i_glide_confnum>
3

> <i_i_glide_posenum>
247

> <r_i_glide_eff_state_penalty>
0

> <s_user_duplicate_titles>
301199

> <s_m_subgroup_title>
dock_pv

> <s_m_subgroupid>
dock_pv1

> <b_m_subgroup_collapsed>
0

$$$$
90565
                    3D
 Schrodinger Suite 2021-1.
 53 56  0  0  1  0            999 V2000
   34.1676   -1.7423   29.0656 C   0  0  0  0  0  0
   32.7711   -1.4937   29.3253 N   0  0  0  0  0  0
   32.4319   -0.7526   30.5559 C   0  0  0  0  0  0
   32.9137    0.7212   30.6245 C   0  0  0  0  0  0
   33.4258    1.2796   29.3083 C   0  0  0  0  0  0
   34.7990    1.4550   29.0905 C   0  0  0  0  0  0
   35.2501    1.8625   27.8412 C   0  0  0  0  0  0
   34.3255    2.1065   26.8332 C   0  0  0  0  0  0
   32.9676    1.9366   27.0529 C   0  0  0  0  0  0
   32.5080    1.5507   28.2970 C   0  0  0  0  0  0
   31.9262   -1.5729   28.1883 C   0  0  0  0  0  0
   30.5643   -1.3344   28.3216 C   0  0  0  0  0  0
   29.7725   -1.3133   27.1901 C   0  0  0  0  0  0
   30.3385   -1.5208   25.9401 C   0  0  0  0  0  0
   31.6915   -1.8461   25.8367 C   0  0  0  0  0  0
   32.4628   -1.8743   26.9590 N   0  0  0  0  0  0
   32.3325   -2.2052   24.5223 C   0  0  0  0  0  0
   31.6090   -2.1304   23.3255 C   0  0  0  0  0  0
   32.1296   -2.5558   22.1104 C   0  0  0  0  0  0
   33.4523   -2.9467   22.0438 C   0  0  0  0  0  0
   34.2237   -2.9439   23.1911 C   0  0  0  0  0  0
   33.6599   -2.6443   24.4293 C   0  0  0  0  0  0
   34.0014   -3.3316   20.8519 O   0  0  0  0  0  0
   28.3497   -1.0556   27.3202 C   0  0  0  0  0  0
   27.4522   -2.1216   27.3738 C   0  0  0  0  0  0
   26.0958   -1.8577   27.4639 C   0  0  0  0  0  0
   25.6599   -0.5420   27.4639 C   0  0  0  0  0  0
   26.5618    0.5147   27.4639 C   0  0  0  0  0  0
   27.9163    0.2625   27.3874 C   0  0  0  0  0  0
   34.2418   -2.7777   28.7402 H   0  0  0  0  0  0
   34.4600   -1.0747   28.2608 H   0  0  0  0  0  0
   34.8645   -1.5528   29.8641 H   0  0  0  0  0  0
   32.8600   -1.2942   31.3986 H   0  0  0  0  0  0
   31.3653   -0.7777   30.7602 H   0  0  0  0  0  0
   33.6595    0.8376   31.4091 H   0  0  0  0  0  0
   32.0895    1.3520   30.9601 H   0  0  0  0  0  0
   35.5192    1.2393   29.8646 H   0  0  0  0  0  0
   36.3027    1.9826   27.6397 H   0  0  0  0  0  0
   34.6664    2.4259   25.8638 H   0  0  0  0  0  0
   32.2687    2.1159   26.2641 H   0  0  0  0  0  0
   31.4501    1.4124   28.4594 H   0  0  0  0  0  0
   30.0966   -1.1586   29.2739 H   0  0  0  0  0  0
   29.6868   -1.4755   25.0844 H   0  0  0  0  0  0
   30.6054   -1.7420   23.3031 H   0  0  0  0  0  0
   31.5181   -2.5423   21.2197 H   0  0  0  0  0  0
   35.2599   -3.2065   23.1054 H   0  0  0  0  0  0
   34.2682   -2.7273   25.3168 H   0  0  0  0  0  0
   33.3381   -3.5125   20.1807 H   0  0  0  0  0  0
   27.8021   -3.1428   27.3224 H   0  0  0  0  0  0
   25.3860   -2.6728   27.4667 H   0  0  0  0  0  0
   24.6024   -0.3206   27.4639 H   0  0  0  0  0  0
   26.2109    1.5322   27.4827 H   0  0  0  0  0  0
   28.6191    1.0828   27.3576 H   0  0  0  0  0  0
  1  2  1  0  0  0
  1 30  1  0  0  0
  1 31  1  0  0  0
  1 32  1  0  0  0
  2  3  1  0  0  0
  2 11  1  0  0  0
  3  4  1  0  0  0
  3 33  1  0  0  0
  3 34  1  0  0  0
  4  5  1  0  0  0
  4 35  1  0  0  0
  4 36  1  0  0  0
  5 10  1  0  0  0
  5  6  2  0  0  0
  6  7  1  0  0  0
  6 37  1  0  0  0
  7  8  2  0  0  0
  7 38  1  0  0  0
  8  9  1  0  0  0
  8 39  1  0  0  0
  9 10  2  0  0  0
  9 40  1  0  0  0
 10 41  1  0  0  0
 11 16  1  0  0  0
 11 12  2  0  0  0
 12 13  1  0  0  0
 12 42  1  0  0  0
 13 14  2  0  0  0
 13 24  1  0  0  0
 14 15  1  0  0  0
 14 43  1  0  0  0
 15 16  2  0  0  0
 15 17  1  0  0  0
 17 22  1  0  0  0
 17 18  2  0  0  0
 18 19  1  0  0  0
 18 44  1  0  0  0
 19 20  2  0  0  0
 19 45  1  0  0  0
 20 21  1  0  0  0
 20 23  1  0  0  0
 21 22  2  0  0  0
 21 46  1  0  0  0
 22 47  1  0  0  0
 23 48  1  0  0  0
 24 29  1  0  0  0
 24 25  2  0  0  0
 25 26  1  0  0  0
 25 49  1  0  0  0
 26 27  2  0  0  0
 26 50  1  0  0  0
 27 28  1  0  0  0
 27 51  1  0  0  0
 28 29  2  0  0  0
 28 52  1  0  0  0
 29 53  1  0  0  0
M  END
> <s_m_entry_id>
17309

> <s_m_entry_name>
ligand_docking-pose.236

> <s_m_Source_Path>
/home/csk/Desktop/cluster/DUD-E-result/esr1

> <s_m_Source_File>
ligand_docking-pose.sdf

> <i_m_Source_File_Index>
236

> <i_lp_mmshare_version>
53161

> <i_f3d_flags>
0

> <r_lp_tautomer_probability>
0.999999999997365

> <s_lp_Force_Field>
OPLS_2005

> <r_lp_Energy>
22.355038

> <b_lp_Chiralities_Consistent>
1

> <s_lp_Variant>
90565-1

> <s_i_glide_gridfile>
glide-grid_1sj0

> <i_i_glide_lignum>
1699

> <i_i_glide_rotatable_bonds>
7

> <r_i_docking_score>
-8.88128168815421

> <r_i_glide_ligand_efficiency>
-0.306251092694973

> <r_i_glide_ligand_efficiency_sa>
-0.940900383915345

> <r_i_glide_ligand_efficiency_ln>
-2.03358829671534

> <r_i_glide_gscore>
-8.88128168815421

> <r_i_glide_lipo>
-5.72834854498808

> <r_i_glide_hbond>
0

> <r_i_glide_metal>
0

> <r_i_glide_rewards>
-2.06708963725988

> <r_i_glide_evdw>
-30.4158020019531

> <r_i_glide_ecoul>
-1.56754672527313

> <r_i_glide_erotb>
0.670078602982371

> <r_i_glide_esite>
0

> <r_i_glide_emodel>
-32.5628534414456

> <r_i_glide_energy>
-31.9833487272263

> <r_i_glide_einternal>
10.8627214431763

> <i_i_glide_confnum>
9

> <i_i_glide_posenum>
338

> <r_i_glide_eff_state_penalty>
0

> <s_user_duplicate_titles>
90565

> <s_m_subgroup_title>
dock_pv

> <s_m_subgroupid>
dock_pv1

> <b_m_subgroup_collapsed>
0

$$$$
11655
                    3D
 Schrodinger Suite 2021-1.
 57 58  0  0  1  0            999 V2000
   34.8049   -3.6623   18.1019 C   0  0  0  0  0  0
   35.3424   -4.0061   19.5067 C   0  0  0  0  0  0
   35.1971   -2.9388   20.5159 N   0  0  0  0  0  0
   35.9227   -1.7015   20.1902 C   0  0  0  0  0  0
   37.4392   -1.9034   20.0350 C   0  0  0  0  0  0
   33.7929   -2.6399   20.8483 C   0  0  0  0  0  0
   33.0576   -3.7622   21.6228 C   0  0  0  0  0  0
   33.4879   -3.8455   22.9859 O   0  0  0  0  0  0
   32.9164   -3.0400   23.9544 C   0  0  0  0  0  0
   33.2582   -3.3270   25.2735 C   0  0  0  0  0  0
   32.7002   -2.6034   26.3269 C   0  0  0  0  0  0
   31.7882   -1.5732   26.0703 C   0  0  0  0  0  0
   31.4559   -1.2765   24.7441 C   0  0  0  0  0  0
   32.0178   -1.9972   23.6936 C   0  0  0  0  0  0
   31.1274   -0.8228   27.1759 C   0  0  0  0  0  0
   31.7983   -0.0587   28.0705 C   0  0  0  0  0  0
   33.2983    0.2029   28.1409 C   0  0  0  0  0  0
   33.8723   -0.0767   29.5405 C   0  0  0  0  0  0
   33.6413    1.6254   27.6678 C   0  0  0  0  0  0
   29.6438   -0.9388   27.2339 C   0  0  0  0  0  0
   28.8198    0.1795   27.4244 C   0  0  0  0  0  0
   27.4319    0.0445   27.3974 C   0  0  0  0  0  0
   26.8635   -1.2090   27.1805 C   0  0  0  0  0  0
   27.6657   -2.3347   27.0493 C   0  0  0  0  0  0
   29.0501   -2.1957   27.0834 C   0  0  0  0  0  0
   25.5079   -1.3415   27.0603 O   0  0  0  0  0  0
   34.9800   -4.4950   17.4210 H   0  0  0  0  0  0
   33.7318   -3.4758   18.1072 H   0  0  0  0  0  0
   35.2988   -2.7901   17.6747 H   0  0  0  0  0  0
   36.3961   -4.2788   19.4328 H   0  0  0  0  0  0
   34.8592   -4.9193   19.8564 H   0  0  0  0  0  0
   35.5103   -1.2263   19.2985 H   0  0  0  0  0  0
   35.7818   -0.9903   21.0046 H   0  0  0  0  0  0
   37.9468   -0.9426   19.9638 H   0  0  0  0  0  0
   37.8611   -2.4312   20.8913 H   0  0  0  0  0  0
   37.6840   -2.4652   19.1330 H   0  0  0  0  0  0
   33.2291   -2.3749   19.9536 H   0  0  0  0  0  0
   33.7696   -1.7512   21.4773 H   0  0  0  0  0  0
   33.2292   -4.7358   21.1680 H   0  0  0  0  0  0
   31.9767   -3.6291   21.5573 H   0  0  0  0  0  0
   33.9403   -4.1419   25.4647 H   0  0  0  0  0  0
   32.9605   -2.8565   27.3444 H   0  0  0  0  0  0
   30.7439   -0.4922   24.5253 H   0  0  0  0  0  0
   31.7296   -1.7432   22.6850 H   0  0  0  0  0  0
   31.2288    0.4474   28.8385 H   0  0  0  0  0  0
   33.8053   -0.4803   27.4647 H   0  0  0  0  0  0
   33.6920   -1.1083   29.8434 H   0  0  0  0  0  0
   34.9524    0.0797   29.5636 H   0  0  0  0  0  0
   33.4301    0.5727   30.2974 H   0  0  0  0  0  0
   33.3498    1.7713   26.6272 H   0  0  0  0  0  0
   33.1229    2.3777   28.2618 H   0  0  0  0  0  0
   34.7124    1.8219   27.7321 H   0  0  0  0  0  0
   29.2514    1.1625   27.5516 H   0  0  0  0  0  0
   26.7958    0.9123   27.4996 H   0  0  0  0  0  0
   27.2272   -3.3106   26.8928 H   0  0  0  0  0  0
   29.6648   -3.0790   26.9707 H   0  0  0  0  0  0
   25.2588   -2.1576   26.5987 H   0  0  0  0  0  0
  1  2  1  0  0  0
  1 27  1  0  0  0
  1 28  1  0  0  0
  1 29  1  0  0  0
  2  3  1  0  0  0
  2 30  1  0  0  0
  2 31  1  0  0  0
  3  4  1  0  0  0
  3  6  1  0  0  0
  4  5  1  0  0  0
  4 32  1  0  0  0
  4 33  1  0  0  0
  5 34  1  0  0  0
  5 35  1  0  0  0
  5 36  1  0  0  0
  6  7  1  0  0  0
  6 37  1  0  0  0
  6 38  1  0  0  0
  7  8  1  0  0  0
  7 39  1  0  0  0
  7 40  1  0  0  0
  8  9  1  0  0  0
  9 14  1  0  0  0
  9 10  2  0  0  0
 10 11  1  0  0  0
 10 41  1  0  0  0
 11 12  2  0  0  0
 11 42  1  0  0  0
 12 13  1  0  0  0
 12 15  1  0  0  0
 13 14  2  0  0  0
 13 43  1  0  0  0
 14 44  1  0  0  0
 15 16  2  0  0  0
 15 20  1  0  0  0
 16 17  1  0  0  0
 16 45  1  0  0  0
 17 18  1  0  0  0
 17 19  1  0  0  0
 17 46  1  0  0  0
 18 47  1  0  0  0
 18 48  1  0  0  0
 18 49  1  0  0  0
 19 50  1  0  0  0
 19 51  1  0  0  0
 19 52  1  0  0  0
 20 25  1  0  0  0
 20 21  2  0  0  0
 21 22  1  0  0  0
 21 53  1  0  0  0
 22 23  2  0  0  0
 22 54  1  0  0  0
 23 24  1  0  0  0
 23 26  1  0  0  0
 24 25  2  0  0  0
 24 55  1  0  0  0
 25 56  1  0  0  0
 26 57  1  0  0  0
M  END
> <s_m_entry_id>
17310

> <s_m_entry_name>
ligand_docking-pose.237

> <s_m_Source_Path>
/home/csk/Desktop/cluster/DUD-E-result/esr1

> <s_m_Source_File>
ligand_docking-pose.sdf

> <i_m_Source_File_Index>
237

> <i_lp_mmshare_version>
53161

> <i_f3d_flags>
0

> <r_lp_tautomer_probability>
1

> <s_lp_Force_Field>
OPLS_2005

> <r_lp_Energy>
27.288491

> <b_lp_Chiralities_Consistent>
1

> <s_lp_Variant>
11655-1

> <s_i_glide_gridfile>
glide-grid_1sj0

> <i_i_glide_lignum>
1630

> <i_i_glide_rotatable_bonds>
10

> <r_i_docking_score>
-8.87938865406656

> <r_i_glide_ligand_efficiency>
-0.341514948233329

> <r_i_glide_ligand_efficiency_sa>
-1.01173669034481

> <r_i_glide_ligand_efficiency_ln>
-2.08529528975695

> <r_i_glide_gscore>
-8.87938865406656

> <r_i_glide_lipo>
-4.92270923055748

> <r_i_glide_hbond>
-0.168928571748229

> <r_i_glide_metal>
0

> <r_i_glide_rewards>
-1.82871828595322

> <r_i_glide_evdw>
-42.1291427612305

> <r_i_glide_ecoul>
-4.00956678390503

> <r_i_glide_erotb>
0.748859589839654

> <r_i_glide_esite>
0

> <r_i_glide_emodel>
-68.3782693070278

> <r_i_glide_energy>
-46.1387095451355

> <r_i_glide_einternal>
7.59740877151489

> <i_i_glide_confnum>
106

> <i_i_glide_posenum>
385

> <r_i_glide_eff_state_penalty>
0

> <s_user_duplicate_titles>
11655

> <s_m_subgroup_title>
dock_pv

> <s_m_subgroupid>
dock_pv1

> <b_m_subgroup_collapsed>
0

$$$$
301057
                    3D
 Schrodinger Suite 2021-1.
 39 41  0  0  1  0            999 V2000
   30.8244   -1.0957   25.1796 C   0  0  0  0  0  0
   31.6375   -0.6102   26.3692 C   0  0  0  0  0  0
   32.4600    0.4557   26.2822 C   0  0  0  0  0  0
   33.3397    0.9807   27.4145 C   0  0  0  0  0  0
   33.2701    0.1230   28.7226 C   0  0  2  0  0  0
   32.9212   -1.3507   28.3656 C   0  0  0  0  0  0
   31.5404   -1.3980   27.6785 C   0  0  1  0  0  0
   30.4718   -0.8162   28.6457 C   0  0  1  0  0  0
   30.8411    0.5136   29.0389 O   0  0  0  0  0  0
   32.1283    0.6499   29.6399 C   0  0  0  0  0  0
   29.0481   -0.8541   28.0811 C   0  0  0  0  0  0
   28.4400   -2.0832   27.7939 C   0  0  0  0  0  0
   27.1385   -2.1196   27.2958 C   0  0  0  0  0  0
   26.4395   -0.9295   27.1049 C   0  0  0  0  0  0
   27.0302    0.2926   27.4035 C   0  0  0  0  0  0
   28.3403    0.3345   27.8639 C   0  0  0  0  0  0
   25.1647   -0.9447   26.6086 O   0  0  0  0  0  0
   34.6313    0.1578   29.4683 C   0  0  0  0  0  0
   35.2572    1.4296   29.4645 O   0  0  0  0  0  0
   31.3071   -2.4400   27.4533 H   0  0  0  0  0  0
   30.4542   -1.4342   29.5457 H   0  0  0  0  0  0
   29.7567   -0.9775   25.3662 H   0  0  0  0  0  0
   31.0626   -0.5420   24.2699 H   0  0  0  0  0  0
   31.0310   -2.1485   24.9861 H   0  0  0  0  0  0
   32.5168    0.9687   25.3384 H   0  0  0  0  0  0
   33.1709    2.0409   27.6083 H   0  0  0  0  0  0
   34.3583    0.9193   27.0393 H   0  0  0  0  0  0
   33.6600   -1.7827   27.6926 H   0  0  0  0  0  0
   32.9270   -1.9805   29.2572 H   0  0  0  0  0  0
   32.1328    0.1445   30.6076 H   0  0  0  0  0  0
   32.2846    1.7055   29.8645 H   0  0  0  0  0  0
   28.9709   -3.0109   27.9522 H   0  0  0  0  0  0
   26.6746   -3.0688   27.0641 H   0  0  0  0  0  0
   26.4781    1.2083   27.2582 H   0  0  0  0  0  0
   28.7881    1.2943   28.0718 H   0  0  0  0  0  0
   24.9226   -1.8227   26.2625 H   0  0  0  0  0  0
   35.3373   -0.5512   29.0307 H   0  0  0  0  0  0
   34.4669   -0.1422   30.4982 H   0  0  0  0  0  0
   36.2206    1.3175   29.4284 H   0  0  0  0  0  0
  1  2  1  0  0  0
  1 22  1  0  0  0
  1 23  1  0  0  0
  1 24  1  0  0  0
  2  7  1  0  0  0
  2  3  2  0  0  0
  3  4  1  0  0  0
  3 25  1  0  0  0
  4  5  1  0  0  0
  4 26  1  0  0  0
  4 27  1  0  0  0
  5 10  1  0  0  0
  5  6  1  0  0  0
  5 18  1  0  0  0
  6  7  1  0  0  0
  6 28  1  0  0  0
  6 29  1  0  0  0
  7 20  1  0  0  0
  7  8  1  0  0  0
  8 21  1  0  0  0
  8  9  1  0  0  0
  8 11  1  0  0  0
  9 10  1  0  0  0
 10 30  1  0  0  0
 10 31  1  0  0  0
 11 16  1  0  0  0
 11 12  2  0  0  0
 12 13  1  0  0  0
 12 32  1  0  0  0
 13 14  2  0  0  0
 13 33  1  0  0  0
 14 15  1  0  0  0
 14 17  1  0  0  0
 15 16  2  0  0  0
 15 34  1  0  0  0
 16 35  1  0  0  0
 17 36  1  0  0  0
 18 19  1  0  0  0
 18 37  1  0  0  0
 18 38  1  0  0  0
 19 39  1  0  0  0
M  END
> <s_m_entry_id>
17311

> <s_m_entry_name>
ligand_docking-pose.238

> <s_m_Source_Path>
/home/csk/Desktop/cluster/DUD-E-result/esr1

> <s_m_Source_File>
ligand_docking-pose.sdf

> <i_m_Source_File_Index>
238

> <i_lp_mmshare_version>
53161

> <i_f3d_flags>
0

> <r_lp_tautomer_probability>
0.999999999997365

> <s_lp_Force_Field>
OPLS_2005

> <r_lp_Energy>
26.893132

> <b_lp_Chiralities_Consistent>
1

> <s_lp_Variant>
301057-1

> <s_i_glide_gridfile>
glide-grid_1sj0

> <i_i_glide_lignum>
932

> <i_i_glide_rotatable_bonds>
4

> <r_i_docking_score>
-8.87673288606893

> <r_i_glide_ligand_efficiency>
-0.467196467687838

> <r_i_glide_ligand_efficiency_sa>
-1.24666782343172

> <r_i_glide_ligand_efficiency_ln>
-2.25044244135951

> <r_i_glide_gscore>
-8.87673288606893

> <r_i_glide_lipo>
-3.73740022655627

> <r_i_glide_hbond>
-0.482557062220753

> <r_i_glide_metal>
0

> <r_i_glide_rewards>
-2.44846711593687

> <r_i_glide_evdw>
-27.7695446014404

> <r_i_glide_ecoul>
-7.90325927734375

> <r_i_glide_erotb>
0.365657640318557

> <r_i_glide_esite>
0

> <r_i_glide_emodel>
-54.5844305171503

> <r_i_glide_energy>
-35.6728038787842

> <r_i_glide_einternal>
1.7902684211731

> <i_i_glide_confnum>
2

> <i_i_glide_posenum>
361

> <r_i_glide_eff_state_penalty>
0

> <s_user_duplicate_titles>
301057

> <s_m_subgroup_title>
dock_pv

> <s_m_subgroupid>
dock_pv1

> <b_m_subgroup_collapsed>
0

$$$$
11807
                    3D
 Schrodinger Suite 2021-1.
 66 67  0  0  1  0            999 V2000
   35.4388    1.9902   27.6524 C   0  0  0  0  0  0
   35.0119    0.7485   28.4528 C   0  0  0  0  0  0
   33.5505    0.7476   28.9195 C   0  0  0  0  0  0
   32.5128    1.0763   27.8222 C   0  0  0  0  0  0
   31.1187    0.4817   28.0497 C   0  0  0  0  0  0
   30.6581   -0.5779   27.3214 C   0  0  0  0  0  0
   29.3168   -1.1953   27.4721 C   0  0  0  0  0  0
   28.1329   -0.4691   27.2762 C   0  0  0  0  0  0
   26.8964   -1.0991   27.4042 C   0  0  0  0  0  0
   26.8468   -2.4607   27.7038 C   0  0  0  0  0  0
   28.0134   -3.1995   27.8640 C   0  0  0  0  0  0
   29.2371   -2.5630   27.7497 C   0  0  0  0  0  0
   25.6593   -3.0978   27.8640 O   0  0  0  0  0  0
   31.4529   -1.2477   26.2624 C   0  0  0  0  0  0
   32.3702   -2.2545   26.5739 C   0  0  0  0  0  0
   32.9990   -2.9628   25.5509 C   0  0  0  0  0  0
   32.7542   -2.6577   24.2142 C   0  0  0  0  0  0
   31.8629   -1.6178   23.9095 C   0  0  0  0  0  0
   31.2007   -0.9409   24.9251 C   0  0  0  0  0  0
   33.4057   -3.4148   23.2573 O   0  0  0  0  0  0
   33.1339   -3.1579   21.8768 C   0  0  0  0  0  0
   33.8823   -4.1664   20.9860 C   0  0  0  0  0  0
   34.0583   -3.6934   19.5996 N   0  0  0  0  0  0
   35.0592   -4.5069   18.8908 C   0  0  0  0  0  0
   34.6479   -5.9701   18.6197 C   0  0  0  0  0  0
   32.7806   -3.5654   18.8792 C   0  0  0  0  0  0
   32.9212   -2.8570   17.5199 C   0  0  0  0  0  0
   30.2944    1.2011   29.1315 C   0  0  0  0  0  0
   30.7954    1.0617   30.5797 C   0  0  0  0  0  0
   36.4583    1.8610   27.2895 H   0  0  0  0  0  0
   34.8148    2.1529   26.7729 H   0  0  0  0  0  0
   35.4044    2.8921   28.2643 H   0  0  0  0  0  0
   35.6603    0.6456   29.3240 H   0  0  0  0  0  0
   35.1986   -0.1451   27.8640 H   0  0  0  0  0  0
   33.4666    1.4589   29.7370 H   0  0  0  0  0  0
   33.3363   -0.2336   29.3475 H   0  0  0  0  0  0
   32.9039    0.7554   26.8554 H   0  0  0  0  0  0
   32.4191    2.1594   27.7242 H   0  0  0  0  0  0
   28.1734    0.5823   27.0245 H   0  0  0  0  0  0
   25.9840   -0.5366   27.2646 H   0  0  0  0  0  0
   27.9683   -4.2550   28.0835 H   0  0  0  0  0  0
   30.1312   -3.1538   27.8630 H   0  0  0  0  0  0
   25.2599   -3.3417   26.9932 H   0  0  0  0  0  0
   32.5627   -2.5175   27.6031 H   0  0  0  0  0  0
   33.6620   -3.7769   25.7947 H   0  0  0  0  0  0
   31.6601   -1.3381   22.8915 H   0  0  0  0  0  0
   30.4876   -0.1691   24.6704 H   0  0  0  0  0  0
   32.0606   -3.2410   21.6888 H   0  0  0  0  0  0
   33.4449   -2.1412   21.6301 H   0  0  0  0  0  0
   34.8605   -4.3483   21.4338 H   0  0  0  0  0  0
   33.3501   -5.1194   20.9972 H   0  0  0  0  0  0
   35.3237   -4.0206   17.9518 H   0  0  0  0  0  0
   35.9853   -4.4959   19.4639 H   0  0  0  0  0  0
   35.4750   -6.5201   18.1726 H   0  0  0  0  0  0
   34.3723   -6.4965   19.5337 H   0  0  0  0  0  0
   33.8044   -6.0343   17.9326 H   0  0  0  0  0  0
   32.3166   -4.5414   18.7412 H   0  0  0  0  0  0
   32.0807   -2.9775   19.4726 H   0  0  0  0  0  0
   31.9441   -2.6979   17.0645 H   0  0  0  0  0  0
   33.3957   -1.8808   17.6295 H   0  0  0  0  0  0
   33.5076   -3.4389   16.8114 H   0  0  0  0  0  0
   30.2416    2.2582   28.8694 H   0  0  0  0  0  0
   29.2624    0.8657   29.1219 H   0  0  0  0  0  0
   30.0188    1.3569   31.2847 H   0  0  0  0  0  0
   31.0756    0.0327   30.8127 H   0  0  0  0  0  0
   31.6455    1.7068   30.7881 H   0  0  0  0  0  0
  1  2  1  0  0  0
  1 30  1  0  0  0
  1 31  1  0  0  0
  1 32  1  0  0  0
  2  3  1  0  0  0
  2 33  1  0  0  0
  2 34  1  0  0  0
  3  4  1  0  0  0
  3 35  1  0  0  0
  3 36  1  0  0  0
  4  5  1  0  0  0
  4 37  1  0  0  0
  4 38  1  0  0  0
  5  6  2  0  0  0
  5 28  1  0  0  0
  6  7  1  0  0  0
  6 14  1  0  0  0
  7 12  1  0  0  0
  7  8  2  0  0  0
  8  9  1  0  0  0
  8 39  1  0  0  0
  9 10  2  0  0  0
  9 40  1  0  0  0
 10 11  1  0  0  0
 10 13  1  0  0  0
 11 12  2  0  0  0
 11 41  1  0  0  0
 12 42  1  0  0  0
 13 43  1  0  0  0
 14 19  1  0  0  0
 14 15  2  0  0  0
 15 16  1  0  0  0
 15 44  1  0  0  0
 16 17  2  0  0  0
 16 45  1  0  0  0
 17 18  1  0  0  0
 17 20  1  0  0  0
 18 19  2  0  0  0
 18 46  1  0  0  0
 19 47  1  0  0  0
 20 21  1  0  0  0
 21 22  1  0  0  0
 21 48  1  0  0  0
 21 49  1  0  0  0
 22 23  1  0  0  0
 22 50  1  0  0  0
 22 51  1  0  0  0
 23 24  1  0  0  0
 23 26  1  0  0  0
 24 25  1  0  0  0
 24 52  1  0  0  0
 24 53  1  0  0  0
 25 54  1  0  0  0
 25 55  1  0  0  0
 25 56  1  0  0  0
 26 27  1  0  0  0
 26 57  1  0  0  0
 26 58  1  0  0  0
 27 59  1  0  0  0
 27 60  1  0  0  0
 27 61  1  0  0  0
 28 29  1  0  0  0
 28 62  1  0  0  0
 28 63  1  0  0  0
 29 64  1  0  0  0
 29 65  1  0  0  0
 29 66  1  0  0  0
M  END
> <s_m_entry_id>
17312

> <s_m_entry_name>
ligand_docking-pose.239

> <s_m_Source_Path>
/home/csk/Desktop/cluster/DUD-E-result/esr1

> <s_m_Source_File>
ligand_docking-pose.sdf

> <i_m_Source_File_Index>
239

> <i_lp_mmshare_version>
53161

> <i_f3d_flags>
0

> <r_lp_tautomer_probability>
1

> <s_lp_Force_Field>
OPLS_2005

> <r_lp_Energy>
35.686273

> <b_lp_Chiralities_Consistent>
1

> <s_lp_Variant>
11807-1

> <s_i_glide_gridfile>
glide-grid_1sj0

> <i_i_glide_lignum>
1439

> <i_i_glide_rotatable_bonds>
13

> <r_i_docking_score>
-8.87120725572982

> <r_i_glide_ligand_efficiency>
-0.305903698473442

> <r_i_glide_ligand_efficiency_sa>
-0.939833078804588

> <r_i_glide_ligand_efficiency_ln>
-2.03128150715572

> <r_i_glide_gscore>
-8.87120725572982

> <r_i_glide_lipo>
-4.75530235781651

> <r_i_glide_hbond>
-0.16

> <r_i_glide_metal>
0

> <r_i_glide_rewards>
-1.61196735500585

> <r_i_glide_evdw>
-47.0695762634277

> <r_i_glide_ecoul>
-7.43488836288452

> <r_i_glide_erotb>
1.1247745246966

> <r_i_glide_esite>
0

> <r_i_glide_emodel>
-77.0782535354154

> <r_i_glide_energy>
-54.5044646263123

> <r_i_glide_einternal>
12.8787708282471

> <i_i_glide_confnum>
74

> <i_i_glide_posenum>
352

> <r_i_glide_eff_state_penalty>
0

> <s_user_duplicate_titles>
11807

> <s_m_subgroup_title>
dock_pv

> <s_m_subgroupid>
dock_pv1

> <b_m_subgroup_collapsed>
0

$$$$
322958
                    3D
 Schrodinger Suite 2021-1.
 31 33  0  0  1  0            999 V2000
   33.1931   -0.3911   29.3820 C   0  0  0  0  0  0
   32.8411    0.2608   30.5557 C   0  0  0  0  0  0
   31.6114    0.8886   30.6673 C   0  0  0  0  0  0
   30.7225    0.9100   29.5968 C   0  0  0  0  0  0
   31.0174    0.2097   28.3892 C   0  0  0  0  0  0
   32.2834   -0.4467   28.2972 C   0  0  0  0  0  0
   32.6098   -1.1571   27.1266 C   0  0  0  0  0  0
   31.7128   -1.2900   26.0643 C   0  0  0  0  0  0
   30.4730   -0.6500   26.1615 C   0  0  0  0  0  0
   30.1147    0.1097   27.2802 C   0  0  0  0  0  0
   28.8113    0.7703   27.2777 C   0  0  0  0  0  0
   27.7811    1.2965   27.2795 N   0  0  0  0  0  0
   32.1026   -2.0765   24.8506 C   0  0  0  0  0  0
   31.6623   -1.6990   23.5755 C   0  0  0  0  0  0
   32.0594   -2.4056   22.4372 C   0  0  0  0  0  0
   32.9623   -3.4467   22.5315 C   0  0  0  0  0  0
   33.4080   -3.8306   23.7831 C   0  0  0  0  0  0
   32.9354   -3.2050   24.9354 C   0  0  0  0  0  0
   33.2599   -3.7378   26.1349 F   0  0  0  0  0  0
   33.3795   -4.0919   21.3993 O   0  0  0  0  0  0
   31.2628    1.4579   31.8578 O   0  0  0  0  0  0
   34.1505   -0.8885   29.3083 H   0  0  0  0  0  0
   33.5212    0.2631   31.3940 H   0  0  0  0  0  0
   29.7728    1.4117   29.7087 H   0  0  0  0  0  0
   33.5864   -1.6142   27.0767 H   0  0  0  0  0  0
   29.7713   -0.7457   25.3438 H   0  0  0  0  0  0
   31.0045   -0.8509   23.4641 H   0  0  0  0  0  0
   31.6834   -2.1422   21.4612 H   0  0  0  0  0  0
   34.0581   -4.6828   23.8642 H   0  0  0  0  0  0
   33.8325   -4.9249   21.5467 H   0  0  0  0  0  0
   30.4084    1.8927   31.8324 H   0  0  0  0  0  0
  1  6  1  0  0  0
  1  2  2  0  0  0
  1 22  1  0  0  0
  2  3  1  0  0  0
  2 23  1  0  0  0
  3  4  2  0  0  0
  3 21  1  0  0  0
  4  5  1  0  0  0
  4 24  1  0  0  0
  5 10  2  0  0  0
  5  6  1  0  0  0
  6  7  2  0  0  0
  7  8  1  0  0  0
  7 25  1  0  0  0
  8  9  2  0  0  0
  8 13  1  0  0  0
  9 10  1  0  0  0
  9 26  1  0  0  0
 10 11  1  0  0  0
 11 12  3  0  0  0
 13 18  1  0  0  0
 13 14  2  0  0  0
 14 15  1  0  0  0
 14 27  1  0  0  0
 15 16  2  0  0  0
 15 28  1  0  0  0
 16 17  1  0  0  0
 16 20  1  0  0  0
 17 18  2  0  0  0
 17 29  1  0  0  0
 18 19  1  0  0  0
 20 30  1  0  0  0
 21 31  1  0  0  0
M  END
> <s_m_entry_id>
17313

> <s_m_entry_name>
ligand_docking-pose.240

> <s_m_Source_Path>
/home/csk/Desktop/cluster/DUD-E-result/esr1

> <s_m_Source_File>
ligand_docking-pose.sdf

> <i_m_Source_File_Index>
240

> <i_lp_mmshare_version>
53161

> <i_f3d_flags>
0

> <r_lp_tautomer_probability>
0.999999999997365

> <s_lp_Force_Field>
OPLS_2005

> <r_lp_Energy>
18.701874

> <b_lp_Chiralities_Consistent>
1

> <s_lp_Variant>
322958-1

> <s_i_glide_gridfile>
glide-grid_1sj0

> <i_i_glide_lignum>
128

> <i_i_glide_rotatable_bonds>
3

> <r_i_docking_score>
-8.85678601958181

> <r_i_glide_ligand_efficiency>
-0.421751715218181

> <r_i_glide_ligand_efficiency_sa>
-1.1635810023648

> <r_i_glide_ligand_efficiency_ln>
-2.18982244652031

> <r_i_glide_gscore>
-8.85678601958181

> <r_i_glide_lipo>
-4.21074528181164

> <r_i_glide_hbond>
0

> <r_i_glide_metal>
0

> <r_i_glide_rewards>
-3.02514830784254

> <r_i_glide_evdw>
-34.2771492004395

> <r_i_glide_ecoul>
-0.922341883182526

> <r_i_glide_erotb>
0.231316312571725

> <r_i_glide_esite>
0

> <r_i_glide_emodel>
-53.3277711547724

> <r_i_glide_energy>
-35.199491083622

> <r_i_glide_einternal>
1.14550423622131

> <i_i_glide_confnum>
4

> <i_i_glide_posenum>
165

> <r_i_glide_eff_state_penalty>
0

> <s_user_duplicate_titles>
322958

> <s_m_subgroup_title>
dock_pv

> <s_m_subgroupid>
dock_pv1

> <b_m_subgroup_collapsed>
0

$$$$
330374
                    3D
 Schrodinger Suite 2021-1.
 35 37  0  0  1  0            999 V2000
   27.6575    0.6104   27.3143 C   0  0  0  0  0  0
   28.9622    1.3877   27.0951 C   0  0  0  0  0  0
   30.2001    0.4944   27.1576 C   0  0  0  0  0  0
   30.5446   -0.2546   26.0335 C   0  0  0  0  0  0
   31.6752   -1.0804   26.0446 C   0  0  0  0  0  0
   32.4558   -1.1853   27.1521 N   0  0  0  0  0  0
   32.1348   -0.4892   28.2753 C   0  0  0  0  0  0
   30.9999    0.3813   28.3368 C   0  0  0  0  0  0
   30.7322    1.0565   29.5628 C   0  0  0  0  0  0
   31.5482    0.8501   30.6721 C   0  0  0  0  0  0
   32.6480    0.0116   30.5938 C   0  0  0  0  0  0
   32.9563   -0.6550   29.4129 C   0  0  0  0  0  0
   31.2601    1.4580   31.8620 O   0  0  0  0  0  0
   32.0735   -1.9246   24.8651 C   0  0  0  0  0  0
   33.0365   -2.9396   24.9771 C   0  0  0  0  0  0
   33.3585   -3.7413   23.8880 C   0  0  0  0  0  0
   32.7170   -3.5705   22.6713 C   0  0  0  0  0  0
   31.7871   -2.5537   22.5235 C   0  0  0  0  0  0
   31.4814   -1.7361   23.6089 C   0  0  0  0  0  0
   32.9969   -4.4256   21.6392 O   0  0  0  0  0  0
   26.7977    1.2808   27.3071 H   0  0  0  0  0  0
   27.5077   -0.1340   26.5314 H   0  0  0  0  0  0
   27.6642    0.0805   28.2638 H   0  0  0  0  0  0
   29.0414    2.2278   27.7822 H   0  0  0  0  0  0
   28.9271    1.8581   26.1120 H   0  0  0  0  0  0
   29.9076   -0.1825   25.1668 H   0  0  0  0  0  0
   29.8734    1.7007   29.6533 H   0  0  0  0  0  0
   33.2646   -0.1364   31.4644 H   0  0  0  0  0  0
   33.8125   -1.3126   29.3674 H   0  0  0  0  0  0
   30.4895    2.0271   31.8089 H   0  0  0  0  0  0
   33.5297   -3.1358   25.9166 H   0  0  0  0  0  0
   34.0602   -4.5423   24.0067 H   0  0  0  0  0  0
   31.2869   -2.4268   21.5751 H   0  0  0  0  0  0
   30.7457   -0.9654   23.4630 H   0  0  0  0  0  0
   32.2650   -4.6105   21.0351 H   0  0  0  0  0  0
  1  2  1  0  0  0
  1 21  1  0  0  0
  1 22  1  0  0  0
  1 23  1  0  0  0
  2  3  1  0  0  0
  2 24  1  0  0  0
  2 25  1  0  0  0
  3  8  1  0  0  0
  3  4  2  0  0  0
  4  5  1  0  0  0
  4 26  1  0  0  0
  5  6  2  0  0  0
  5 14  1  0  0  0
  6  7  1  0  0  0
  7 12  2  0  0  0
  7  8  1  0  0  0
  8  9  2  0  0  0
  9 10  1  0  0  0
  9 27  1  0  0  0
 10 11  2  0  0  0
 10 13  1  0  0  0
 11 12  1  0  0  0
 11 28  1  0  0  0
 12 29  1  0  0  0
 13 30  1  0  0  0
 14 19  1  0  0  0
 14 15  2  0  0  0
 15 16  1  0  0  0
 15 31  1  0  0  0
 16 17  2  0  0  0
 16 32  1  0  0  0
 17 18  1  0  0  0
 17 20  1  0  0  0
 18 19  2  0  0  0
 18 33  1  0  0  0
 19 34  1  0  0  0
 20 35  1  0  0  0
M  END
> <s_m_entry_id>
17314

> <s_m_entry_name>
ligand_docking-pose.241

> <s_m_Source_Path>
/home/csk/Desktop/cluster/DUD-E-result/esr1

> <s_m_Source_File>
ligand_docking-pose.sdf

> <i_m_Source_File_Index>
241

> <i_lp_mmshare_version>
53161

> <i_f3d_flags>
0

> <r_lp_tautomer_probability>
0.999999999997365

> <s_lp_Force_Field>
OPLS_2005

> <r_lp_Energy>
14.434528

> <b_lp_Chiralities_Consistent>
1

> <s_lp_Variant>
330374-1

> <s_i_glide_gridfile>
glide-grid_1sj0

> <i_i_glide_lignum>
1170

> <i_i_glide_rotatable_bonds>
4

> <r_i_docking_score>
-8.84903097446417

> <r_i_glide_ligand_efficiency>
-0.442451548723208

> <r_i_glide_ligand_efficiency_sa>
-1.20099827714469

> <r_i_glide_ligand_efficiency_ln>
-2.21462059233349

> <r_i_glide_gscore>
-8.84903097446417

> <r_i_glide_lipo>
-4.62268897504188

> <r_i_glide_hbond>
-0.0668035719668013

> <r_i_glide_metal>
0

> <r_i_glide_rewards>
-2.41093369256319

> <r_i_glide_evdw>
-33.806941986084

> <r_i_glide_ecoul>
-2.07365441322327

> <r_i_glide_erotb>
0.252790526395398

> <r_i_glide_esite>
0

> <r_i_glide_emodel>
-53.4192166588416

> <r_i_glide_energy>
-35.8805963993073

> <r_i_glide_einternal>
1.88063013553619

> <i_i_glide_confnum>
3

> <i_i_glide_posenum>
96

> <r_i_glide_eff_state_penalty>
0

> <s_user_duplicate_titles>
330374

> <s_m_subgroup_title>
dock_pv

> <s_m_subgroupid>
dock_pv1

> <b_m_subgroup_collapsed>
0

$$$$
354395
                    3D
 Schrodinger Suite 2021-1.
 43 46  0  0  1  0            999 V2000
   26.8278   -3.9774   28.2648 C   0  0  0  0  0  0
   26.9952   -2.5192   27.8526 C   0  0  0  0  0  0
   28.4702   -2.1239   27.6974 C   0  0  0  0  0  0
   28.6205   -0.5980   27.5700 C   0  0  0  0  0  0
   30.0059   -0.0275   27.1170 C   0  0  1  0  0  0
   30.0131    1.5068   27.2367 C   0  0  0  0  0  0
   29.8835    1.9562   28.7099 C   0  0  0  0  0  0
   30.8503    1.2060   29.6476 C   0  0  0  0  0  0
   30.8612    1.4575   30.8512 O   0  0  0  0  0  0
   31.6055    0.0612   29.0972 C   0  0  0  0  0  0
   31.2097   -0.5335   27.9285 C   0  0  0  0  0  0
   31.7802   -1.6255   27.1117 C   0  0  0  0  0  0
   32.6455   -2.6650   27.4389 C   0  0  0  0  0  0
   33.1226   -3.5566   26.4834 C   0  0  0  0  0  0
   32.8979   -3.2315   25.1486 C   0  0  0  0  0  0
   31.9928   -2.2215   24.7788 C   0  0  0  0  0  0
   31.3584   -1.4816   25.7892 C   0  0  0  0  0  0
   30.2664   -0.5210   25.6925 C   0  0  0  0  0  0
   29.6601   -0.1853   24.6809 O   0  0  0  0  0  0
   31.9688   -2.2984   23.3560 C   0  0  0  0  0  0
   32.8120   -3.1798   22.8931 N   0  0  0  0  0  0
   33.3865   -3.7419   23.9642 N   0  0  0  0  0  0
   32.8432   -0.2800   29.9557 C   0  0  0  0  0  0
   32.4601   -0.9410   31.0457 F   0  0  0  0  0  0
   33.7482   -0.9910   29.2964 F   0  0  0  0  0  0
   33.4906    0.8292   30.3300 F   0  0  0  0  0  0
   34.0530   -4.4925   23.8465 H   0  0  0  0  0  0
   25.7668   -4.1989   28.3722 H   0  0  0  0  0  0
   27.2586   -4.6460   27.5180 H   0  0  0  0  0  0
   27.3157   -4.1792   29.2179 H   0  0  0  0  0  0
   26.4727   -2.3510   26.9089 H   0  0  0  0  0  0
   26.4958   -1.8787   28.5826 H   0  0  0  0  0  0
   29.0497   -2.4702   28.5555 H   0  0  0  0  0  0
   28.8780   -2.6371   26.8277 H   0  0  0  0  0  0
   27.8501   -0.2218   26.8922 H   0  0  0  0  0  0
   28.3477   -0.1947   28.5434 H   0  0  0  0  0  0
   30.9596    1.8594   26.8278 H   0  0  0  0  0  0
   29.2186    1.9511   26.6336 H   0  0  0  0  0  0
   30.0570    3.0239   28.7980 H   0  0  0  0  0  0
   28.8733    1.7616   29.0646 H   0  0  0  0  0  0
   32.9026   -2.8660   28.4650 H   0  0  0  0  0  0
   33.6600   -4.4411   26.7808 H   0  0  0  0  0  0
   31.3520   -1.7436   22.6794 H   0  0  0  0  0  0
  1  2  1  0  0  0
  1 28  1  0  0  0
  1 29  1  0  0  0
  1 30  1  0  0  0
  2  3  1  0  0  0
  2 31  1  0  0  0
  2 32  1  0  0  0
  3  4  1  0  0  0
  3 33  1  0  0  0
  3 34  1  0  0  0
  4  5  1  0  0  0
  4 35  1  0  0  0
  4 36  1  0  0  0
  5 11  1  0  0  0
  5 18  1  0  0  0
  5  6  1  0  0  0
  6  7  1  0  0  0
  6 37  1  0  0  0
  6 38  1  0  0  0
  7  8  1  0  0  0
  7 39  1  0  0  0
  7 40  1  0  0  0
  8  9  2  0  0  0
  8 10  1  0  0  0
 10 11  2  0  0  0
 10 23  1  0  0  0
 11 12  1  0  0  0
 12 17  1  0  0  0
 12 13  2  0  0  0
 13 14  1  0  0  0
 13 41  1  0  0  0
 14 15  2  0  0  0
 14 42  1  0  0  0
 15 22  1  0  0  0
 15 16  1  0  0  0
 16 17  2  0  0  0
 16 20  1  0  0  0
 17 18  1  0  0  0
 18 19  2  0  0  0
 20 21  2  0  0  0
 20 43  1  0  0  0
 21 22  1  0  0  0
 22 27  1  0  0  0
 23 24  1  0  0  0
 23 25  1  0  0  0
 23 26  1  0  0  0
M  END
> <s_m_entry_id>
17315

> <s_m_entry_name>
ligand_docking-pose.242

> <s_m_Source_Path>
/home/csk/Desktop/cluster/DUD-E-result/esr1

> <s_m_Source_File>
ligand_docking-pose.sdf

> <i_m_Source_File_Index>
242

> <i_lp_mmshare_version>
53161

> <i_f3d_flags>
0

> <r_lp_tautomer_probability>
1

> <s_lp_Force_Field>
OPLS_2005

> <r_lp_Energy>
48.017268

> <b_lp_Chiralities_Consistent>
1

> <s_lp_Variant>
354395-1

> <s_i_glide_gridfile>
glide-grid_1sj0

> <i_i_glide_lignum>
1335

> <i_i_glide_rotatable_bonds>
4

> <r_i_docking_score>
-8.84781996322183

> <r_i_glide_ligand_efficiency>
-0.340300767816224

> <r_i_glide_ligand_efficiency_sa>
-1.0081396856367

> <r_i_glide_ligand_efficiency_ln>
-2.07788148629738

> <r_i_glide_gscore>
-8.84781996322183

> <r_i_glide_lipo>
-4.06611039768769

> <r_i_glide_hbond>
0

> <r_i_glide_metal>
0

> <r_i_glide_rewards>
-3.58153147970823

> <r_i_glide_evdw>
-30.2140121459961

> <r_i_glide_ecoul>
0.120238602161407

> <r_i_glide_erotb>
0.29248673114969

> <r_i_glide_esite>
0

> <r_i_glide_emodel>
-30.767826950309

> <r_i_glide_energy>
-30.0937735438347

> <r_i_glide_einternal>
3.24521470069885

> <i_i_glide_confnum>
5

> <i_i_glide_posenum>
121

> <r_i_glide_eff_state_penalty>
0

> <s_user_duplicate_titles>
354395

> <s_m_subgroup_title>
dock_pv

> <s_m_subgroupid>
dock_pv1

> <b_m_subgroup_collapsed>
0

$$$$
222962
                    3D
 Schrodinger Suite 2021-1.
 34 35  0  0  1  0            999 V2000
   28.8338   -2.4356   27.7127 C   0  0  0  0  0  0
   27.5343   -2.4821   27.2114 C   0  0  0  0  0  0
   26.7965   -1.3028   27.1071 C   0  0  0  0  0  0
   27.3533   -0.0774   27.4603 C   0  0  0  0  0  0
   28.6559   -0.0298   27.9451 C   0  0  0  0  0  0
   29.3865   -1.2107   28.0988 C   0  0  0  0  0  0
   30.7631   -1.1563   28.7485 C   0  0  0  0  0  0
   31.8822   -0.5533   27.8671 C   0  0  1  0  0  0
   33.1930   -0.3401   28.6678 C   0  0  0  0  0  0
   33.0116    0.4456   29.9014 C   0  0  0  0  0  0
   32.8627    1.0580   30.8724 N   0  0  0  0  0  0
   32.1001   -1.3649   26.5880 C   0  0  0  0  0  0
   31.5186   -0.9404   25.3881 C   0  0  0  0  0  0
   31.7215   -1.6648   24.2168 C   0  0  0  0  0  0
   32.5087   -2.8143   24.2433 C   0  0  0  0  0  0
   33.0749   -3.2505   25.4376 C   0  0  0  0  0  0
   32.8595   -2.5388   26.6126 C   0  0  0  0  0  0
   32.7264   -3.5357   23.0999 O   0  0  0  0  0  0
   25.5057   -1.3420   26.6640 O   0  0  0  0  0  0
   31.5623    0.4494   27.5716 H   0  0  0  0  0  0
   29.3983   -3.3500   27.8146 H   0  0  0  0  0  0
   27.0983   -3.4284   26.9232 H   0  0  0  0  0  0
   26.7720    0.8285   27.3636 H   0  0  0  0  0  0
   29.0832    0.9214   28.2307 H   0  0  0  0  0  0
   31.0569   -2.1419   29.1047 H   0  0  0  0  0  0
   30.6533   -0.5657   29.6567 H   0  0  0  0  0  0
   33.6270   -1.2897   28.9798 H   0  0  0  0  0  0
   33.9414    0.1648   28.0527 H   0  0  0  0  0  0
   30.9045   -0.0516   25.3631 H   0  0  0  0  0  0
   31.2714   -1.3316   23.2952 H   0  0  0  0  0  0
   33.6806   -4.1419   25.4476 H   0  0  0  0  0  0
   33.2914   -2.9050   27.5333 H   0  0  0  0  0  0
   32.2306   -3.2263   22.3385 H   0  0  0  0  0  0
   25.2579   -2.2056   26.2826 H   0  0  0  0  0  0
  1  6  1  0  0  0
  1  2  2  0  0  0
  1 21  1  0  0  0
  2  3  1  0  0  0
  2 22  1  0  0  0
  3  4  2  0  0  0
  3 19  1  0  0  0
  4  5  1  0  0  0
  4 23  1  0  0  0
  5  6  2  0  0  0
  5 24  1  0  0  0
  6  7  1  0  0  0
  7  8  1  0  0  0
  7 25  1  0  0  0
  7 26  1  0  0  0
  8 20  1  0  0  0
  8  9  1  0  0  0
  8 12  1  0  0  0
  9 10  1  0  0  0
  9 27  1  0  0  0
  9 28  1  0  0  0
 10 11  3  0  0  0
 12 17  1  0  0  0
 12 13  2  0  0  0
 13 14  1  0  0  0
 13 29  1  0  0  0
 14 15  2  0  0  0
 14 30  1  0  0  0
 15 16  1  0  0  0
 15 18  1  0  0  0
 16 17  2  0  0  0
 16 31  1  0  0  0
 17 32  1  0  0  0
 18 33  1  0  0  0
 19 34  1  0  0  0
M  END
> <s_m_entry_id>
17316

> <s_m_entry_name>
ligand_docking-pose.243

> <s_m_Source_Path>
/home/csk/Desktop/cluster/DUD-E-result/esr1

> <s_m_Source_File>
ligand_docking-pose.sdf

> <i_m_Source_File_Index>
243

> <i_lp_mmshare_version>
53161

> <i_f3d_flags>
0

> <r_lp_tautomer_probability>
0.99999999999473

> <s_lp_Force_Field>
OPLS_2005

> <r_lp_Energy>
7.878726

> <b_lp_Chiralities_Consistent>
1

> <s_lp_Variant>
222962-1

> <s_i_glide_gridfile>
glide-grid_1sj0

> <i_i_glide_lignum>
435

> <i_i_glide_rotatable_bonds>
6

> <r_i_docking_score>
-8.84642847459121

> <r_i_glide_ligand_efficiency>
-0.465601498662695

> <r_i_glide_ligand_efficiency_sa>
-1.24241180545954

> <r_i_glide_ligand_efficiency_ln>
-2.24275962217083

> <r_i_glide_gscore>
-8.84642847459121

> <r_i_glide_lipo>
-3.81115114061746

> <r_i_glide_hbond>
-0.16

> <r_i_glide_metal>
0

> <r_i_glide_rewards>
-2.89885914967881

> <r_i_glide_evdw>
-34.1374282836914

> <r_i_glide_ecoul>
-5.62987995147705

> <r_i_glide_erotb>
0.57493522261119

> <r_i_glide_esite>
0

> <r_i_glide_emodel>
-62.5181623548247

> <r_i_glide_energy>
-39.7673082351685

> <r_i_glide_einternal>
0.682394742965698

> <i_i_glide_confnum>
8

> <i_i_glide_posenum>
203

> <r_i_glide_eff_state_penalty>
0

> <s_user_duplicate_titles>
222962

> <s_m_subgroup_title>
dock_pv

> <s_m_subgroupid>
dock_pv1

> <b_m_subgroup_collapsed>
0

$$$$
573234
                    3D
 Schrodinger Suite 2021-1.
 31 33  0  0  1  0            999 V2000
   33.0310    0.3760   28.9569 C   0  0  0  0  0  0
   34.2024    1.0975   29.1278 C   0  0  0  0  0  0
   34.6860    1.8616   28.0711 C   0  0  0  0  0  0
   34.0599    1.8684   26.8322 C   0  0  0  0  0  0
   32.9182    1.1092   26.6489 C   0  0  0  0  0  0
   32.3921    0.3875   27.7150 C   0  0  0  0  0  0
   31.1744   -0.3927   27.5229 C   0  0  0  0  0  0
   29.8758    0.2858   27.6594 C   0  0  0  0  0  0
   29.7164    1.4970   27.8238 O   0  0  0  0  0  0
   28.7246   -0.6538   27.6208 C   0  0  0  0  0  0
   27.4075   -0.2100   27.7886 C   0  0  0  0  0  0
   26.3689   -1.1347   27.8639 C   0  0  0  0  0  0
   26.6455   -2.4944   27.7584 C   0  0  0  0  0  0
   27.9288   -2.9459   27.5223 C   0  0  0  0  0  0
   28.9541   -2.0246   27.4458 C   0  0  0  0  0  0
   30.1970   -2.5420   27.1955 O   0  0  0  0  0  0
   31.2654   -1.7182   27.2609 C   0  0  0  0  0  0
   32.5614   -2.5003   27.0465 C   0  0  0  0  0  0
   33.2599   -2.5465   28.1797 F   0  0  0  0  0  0
   32.3311   -3.7420   26.6637 F   0  0  0  0  0  0
   33.2599   -1.9567   26.0626 F   0  0  0  0  0  0
   25.6573   -3.4089   27.8640 O   0  0  0  0  0  0
   35.7462    2.6581   28.2639 F   0  0  0  0  0  0
   32.6291   -0.1992   29.7786 H   0  0  0  0  0  0
   34.7088    1.1102   30.0804 H   0  0  0  0  0  0
   34.4607    2.4548   26.0197 H   0  0  0  0  0  0
   32.4600    1.0585   25.6753 H   0  0  0  0  0  0
   27.1820    0.8440   27.8868 H   0  0  0  0  0  0
   25.3554   -0.7963   28.0168 H   0  0  0  0  0  0
   28.1350   -3.9992   27.4031 H   0  0  0  0  0  0
   25.2598   -3.5481   26.9723 H   0  0  0  0  0  0
  1  6  1  0  0  0
  1  2  2  0  0  0
  1 24  1  0  0  0
  2  3  1  0  0  0
  2 25  1  0  0  0
  3  4  2  0  0  0
  3 23  1  0  0  0
  4  5  1  0  0  0
  4 26  1  0  0  0
  5  6  2  0  0  0
  5 27  1  0  0  0
  6  7  1  0  0  0
  7 17  2  0  0  0
  7  8  1  0  0  0
  8  9  2  0  0  0
  8 10  1  0  0  0
 10 15  2  0  0  0
 10 11  1  0  0  0
 11 12  2  0  0  0
 11 28  1  0  0  0
 12 13  1  0  0  0
 12 29  1  0  0  0
 13 14  2  0  0  0
 13 22  1  0  0  0
 14 15  1  0  0  0
 14 30  1  0  0  0
 15 16  1  0  0  0
 16 17  1  0  0  0
 17 18  1  0  0  0
 18 19  1  0  0  0
 18 20  1  0  0  0
 18 21  1  0  0  0
 22 31  1  0  0  0
M  END
> <s_m_entry_id>
17317

> <s_m_entry_name>
ligand_docking-pose.244

> <s_m_Source_Path>
/home/csk/Desktop/cluster/DUD-E-result/esr1

> <s_m_Source_File>
ligand_docking-pose.sdf

> <i_m_Source_File_Index>
244

> <i_lp_mmshare_version>
53161

> <i_f3d_flags>
0

> <r_lp_tautomer_probability>
1

> <s_lp_Force_Field>
OPLS_2005

> <r_lp_Energy>
14.845017

> <b_lp_Chiralities_Consistent>
1

> <s_lp_Variant>
573234-1

> <s_i_glide_gridfile>
glide-grid_1sj0

> <i_i_glide_lignum>
364

> <i_i_glide_rotatable_bonds>
3

> <r_i_docking_score>
-8.8421481039371

> <r_i_glide_ligand_efficiency>
-0.384441221910309

> <r_i_glide_ligand_efficiency_sa>
-1.09329969554184

> <r_i_glide_ligand_efficiency_ln>
-2.13811158769823

> <r_i_glide_gscore>
-8.8421481039371

> <r_i_glide_lipo>
-3.55042884230386

> <r_i_glide_hbond>
-0.16

> <r_i_glide_metal>
0

> <r_i_glide_rewards>
-2.66527689246198

> <r_i_glide_evdw>
-30.5096969604492

> <r_i_glide_ecoul>
-7.16545438766479

> <r_i_glide_erotb>
0.178122879260671

> <r_i_glide_esite>
-0.04426224225975

> <r_i_glide_emodel>
-48.1578563232968

> <r_i_glide_energy>
-37.675151348114

> <r_i_glide_einternal>
5.77646255493164

> <i_i_glide_confnum>
4

> <i_i_glide_posenum>
247

> <r_i_glide_eff_state_penalty>
0

> <s_user_duplicate_titles>
573234

> <s_m_subgroup_title>
dock_pv

> <s_m_subgroupid>
dock_pv1

> <b_m_subgroup_collapsed>
0

$$$$
159502
                    3D
 Schrodinger Suite 2021-1.
 38 41  0  0  1  0            999 V2000
   28.5200    1.2483   27.4575 C   0  0  0  0  0  0
   29.8450    1.6146   27.6789 C   0  0  0  0  0  0
   30.8780    0.7662   27.2829 C   0  0  0  0  0  0
   30.5820   -0.4696   26.7042 C   0  0  0  0  0  0
   29.2488   -0.8150   26.4615 C   0  0  0  0  0  0
   28.2178    0.0385   26.8419 C   0  0  0  0  0  0
   31.6420   -1.4574   26.3416 C   0  0  0  0  0  0
   31.8832   -1.9655   25.0184 C   0  0  0  0  0  0
   31.3817   -1.7152   23.7363 C   0  0  0  0  0  0
   31.8749   -2.4666   22.6619 C   0  0  0  0  0  0
   32.8384   -3.4537   22.8302 C   0  0  0  0  0  0
   33.3464   -3.7392   24.0908 C   0  0  0  0  0  0
   32.8633   -2.9683   25.1543 C   0  0  0  0  0  0
   33.2591   -3.0754   26.4428 O   0  0  0  0  0  0
   32.5752   -2.1284   27.1518 C   0  0  0  0  0  0
   32.9697   -2.0460   28.5583 C   0  0  0  0  0  0
   33.6437   -2.9413   29.0639 O   0  0  0  0  0  0
   32.7265   -0.8237   29.3479 C   0  0  0  0  0  0
   31.5055   -0.6266   30.0035 C   0  0  0  0  0  0
   31.3328    0.4788   30.8408 C   0  0  0  0  0  0
   32.3854    1.3574   31.0614 C   0  0  0  0  0  0
   33.5915    1.1654   30.3949 C   0  0  0  0  0  0
   33.7611    0.1073   29.5133 C   0  0  0  0  0  0
   35.2665   -0.0101   28.6696 Cl  0  0  0  0  0  0
   33.2799   -4.1404   21.7353 O   0  0  0  0  0  0
   27.7194    1.9070   27.7609 H   0  0  0  0  0  0
   30.0670    2.5561   28.1572 H   0  0  0  0  0  0
   31.9048    1.0560   27.4536 H   0  0  0  0  0  0
   29.0030   -1.7535   25.9932 H   0  0  0  0  0  0
   27.1892   -0.2428   26.6662 H   0  0  0  0  0  0
   30.6252   -0.9588   23.5874 H   0  0  0  0  0  0
   31.5027   -2.2921   21.6631 H   0  0  0  0  0  0
   34.0604   -4.5277   24.2529 H   0  0  0  0  0  0
   30.6958   -1.3327   29.8723 H   0  0  0  0  0  0
   30.4020    0.6580   31.3527 H   0  0  0  0  0  0
   32.2620    2.1925   31.7357 H   0  0  0  0  0  0
   34.4055    1.8579   30.5510 H   0  0  0  0  0  0
   33.8451   -4.8904   21.9290 H   0  0  0  0  0  0
  1  6  1  0  0  0
  1  2  2  0  0  0
  1 26  1  0  0  0
  2  3  1  0  0  0
  2 27  1  0  0  0
  3  4  2  0  0  0
  3 28  1  0  0  0
  4  5  1  0  0  0
  4  7  1  0  0  0
  5  6  2  0  0  0
  5 29  1  0  0  0
  6 30  1  0  0  0
  7 15  2  0  0  0
  7  8  1  0  0  0
  8 13  2  0  0  0
  8  9  1  0  0  0
  9 10  2  0  0  0
  9 31  1  0  0  0
 10 11  1  0  0  0
 10 32  1  0  0  0
 11 12  2  0  0  0
 11 25  1  0  0  0
 12 13  1  0  0  0
 12 33  1  0  0  0
 13 14  1  0  0  0
 14 15  1  0  0  0
 15 16  1  0  0  0
 16 17  2  0  0  0
 16 18  1  0  0  0
 18 23  1  0  0  0
 18 19  2  0  0  0
 19 20  1  0  0  0
 19 34  1  0  0  0
 20 21  2  0  0  0
 20 35  1  0  0  0
 21 22  1  0  0  0
 21 36  1  0  0  0
 22 23  2  0  0  0
 22 37  1  0  0  0
 23 24  1  0  0  0
 25 38  1  0  0  0
M  END
> <s_m_entry_id>
17318

> <s_m_entry_name>
ligand_docking-pose.245

> <s_m_Source_Path>
/home/csk/Desktop/cluster/DUD-E-result/esr1

> <s_m_Source_File>
ligand_docking-pose.sdf

> <i_m_Source_File_Index>
245

> <i_lp_mmshare_version>
53161

> <i_f3d_flags>
0

> <r_lp_tautomer_probability>
1

> <s_lp_Force_Field>
OPLS_2005

> <r_lp_Energy>
23.31087

> <b_lp_Chiralities_Consistent>
1

> <s_lp_Variant>
159502-1

> <s_i_glide_gridfile>
glide-grid_1sj0

> <i_i_glide_lignum>
190

> <i_i_glide_rotatable_bonds>
4

> <r_i_docking_score>
-8.84003808957994

> <r_i_glide_ligand_efficiency>
-0.353601523583198

> <r_i_glide_ligand_efficiency_sa>
-1.03393712610699

> <r_i_glide_ligand_efficiency_ln>
-2.0953539417947

> <r_i_glide_gscore>
-8.84003808957994

> <r_i_glide_lipo>
-5.45724096284972

> <r_i_glide_hbond>
0

> <r_i_glide_metal>
0

> <r_i_glide_rewards>
-2.16762634819289

> <r_i_glide_evdw>
-36.3213882446289

> <r_i_glide_ecoul>
0.875491499900818

> <r_i_glide_erotb>
0.469574908708989

> <r_i_glide_esite>
0

> <r_i_glide_emodel>
-48.4101603401078

> <r_i_glide_energy>
-35.4458967447281

> <r_i_glide_einternal>
2.11616182327271

> <i_i_glide_confnum>
13

> <i_i_glide_posenum>
303

> <r_i_glide_eff_state_penalty>
0

> <s_user_duplicate_titles>
159502

> <s_m_subgroup_title>
dock_pv

> <s_m_subgroupid>
dock_pv1

> <b_m_subgroup_collapsed>
0

$$$$
137397
                    3D
 Schrodinger Suite 2021-1.
 60 63  0  0  1  0            999 V2000
   33.9009   -0.7920   29.1089 C   0  0  0  0  0  0
   32.8229    0.0891   28.4297 C   0  0  0  0  0  0
   32.9252    1.4889   29.0409 C   0  0  0  0  0  0
   31.3850   -0.5053   28.5487 C   0  0  2  0  0  0
   31.2872   -1.9210   27.9295 C   0  0  1  0  0  0
   30.0576   -2.5419   28.2602 O   0  0  0  0  0  0
   28.8965   -1.9417   27.8615 C   0  0  0  0  0  0
   27.8275   -2.8249   27.7527 C   0  0  0  0  0  0
   26.5524   -2.3335   27.5138 C   0  0  0  0  0  0
   26.3510   -0.9689   27.3424 C   0  0  0  0  0  0
   27.4249   -0.0779   27.4600 C   0  0  0  0  0  0
   28.7115   -0.5546   27.7394 C   0  0  0  0  0  0
   30.0670    0.5909   27.8869 S   0  0  0  0  0  0
   25.0864   -0.5343   27.0628 O   0  0  0  0  0  0
   31.7484   -2.1275   26.4717 C   0  0  0  0  0  0
   32.7717   -3.0483   26.2136 C   0  0  0  0  0  0
   33.2610   -3.2261   24.9235 C   0  0  0  0  0  0
   32.7394   -2.4769   23.8624 C   0  0  0  0  0  0
   31.6920   -1.5919   24.1105 C   0  0  0  0  0  0
   31.1974   -1.4156   25.4005 C   0  0  0  0  0  0
   33.2039   -2.5422   22.5625 O   0  0  0  0  0  0
   34.4617   -3.1674   22.2933 C   0  0  0  0  0  0
   35.0589   -2.6103   20.9858 C   0  0  0  0  0  0
   34.3225   -3.0152   19.7848 N   0  0  0  0  0  0
   34.6374   -4.4016   19.3960 C   0  0  0  0  0  0
   33.8822   -4.8442   18.1264 C   0  0  0  0  0  0
   34.0500   -3.8574   16.9610 C   0  0  0  0  0  0
   33.7255   -2.4336   17.4357 C   0  0  0  0  0  0
   34.5289   -2.0524   18.6936 C   0  0  0  0  0  0
   31.1426   -0.5916   29.6089 H   0  0  0  0  0  0
   31.9779   -2.5243   28.5153 H   0  0  0  0  0  0
   33.6629   -0.9535   30.1613 H   0  0  0  0  0  0
   34.0080   -1.7697   28.6480 H   0  0  0  0  0  0
   34.8871   -0.3276   29.0634 H   0  0  0  0  0  0
   33.0765    0.1769   27.3713 H   0  0  0  0  0  0
   32.6401    1.4887   30.0951 H   0  0  0  0  0  0
   33.9494    1.8579   28.9740 H   0  0  0  0  0  0
   32.2945    2.2148   28.5244 H   0  0  0  0  0  0
   27.9825   -3.8856   27.8860 H   0  0  0  0  0  0
   25.7174   -3.0177   27.4638 H   0  0  0  0  0  0
   27.2614    0.9827   27.3377 H   0  0  0  0  0  0
   25.0251    0.4046   26.8520 H   0  0  0  0  0  0
   33.2028   -3.6314   27.0148 H   0  0  0  0  0  0
   34.0444   -3.9503   24.7638 H   0  0  0  0  0  0
   31.2735   -1.0226   23.2952 H   0  0  0  0  0  0
   30.3908   -0.7169   25.5438 H   0  0  0  0  0  0
   35.1798   -2.9404   23.0821 H   0  0  0  0  0  0
   34.3449   -4.2505   22.2631 H   0  0  0  0  0  0
   35.0486   -1.5239   21.0631 H   0  0  0  0  0  0
   36.1098   -2.8909   20.8974 H   0  0  0  0  0  0
   35.7140   -4.5045   19.2475 H   0  0  0  0  0  0
   34.3766   -5.0753   20.2127 H   0  0  0  0  0  0
   34.2367   -5.8301   17.8235 H   0  0  0  0  0  0
   32.8327   -4.9909   18.3716 H   0  0  0  0  0  0
   33.4060   -4.1391   16.1272 H   0  0  0  0  0  0
   35.0759   -3.8965   16.5904 H   0  0  0  0  0  0
   32.6579   -2.3148   17.6308 H   0  0  0  0  0  0
   33.9516   -1.7231   16.6426 H   0  0  0  0  0  0
   34.2162   -1.0615   19.0282 H   0  0  0  0  0  0
   35.5943   -1.9803   18.4644 H   0  0  0  0  0  0
  1  2  1  0  0  0
  1 32  1  0  0  0
  1 33  1  0  0  0
  1 34  1  0  0  0
  2  3  1  0  0  0
  2  4  1  0  0  0
  2 35  1  0  0  0
  3 36  1  0  0  0
  3 37  1  0  0  0
  3 38  1  0  0  0
  4 30  1  0  0  0
  4 13  1  0  0  0
  4  5  1  0  0  0
  5 31  1  0  0  0
  5  6  1  0  0  0
  5 15  1  0  0  0
  6  7  1  0  0  0
  7 12  2  0  0  0
  7  8  1  0  0  0
  8  9  2  0  0  0
  8 39  1  0  0  0
  9 10  1  0  0  0
  9 40  1  0  0  0
 10 11  2  0  0  0
 10 14  1  0  0  0
 11 12  1  0  0  0
 11 41  1  0  0  0
 12 13  1  0  0  0
 14 42  1  0  0  0
 15 20  1  0  0  0
 15 16  2  0  0  0
 16 17  1  0  0  0
 16 43  1  0  0  0
 17 18  2  0  0  0
 17 44  1  0  0  0
 18 19  1  0  0  0
 18 21  1  0  0  0
 19 20  2  0  0  0
 19 45  1  0  0  0
 20 46  1  0  0  0
 21 22  1  0  0  0
 22 23  1  0  0  0
 22 47  1  0  0  0
 22 48  1  0  0  0
 23 24  1  0  0  0
 23 49  1  0  0  0
 23 50  1  0  0  0
 24 29  1  0  0  0
 24 25  1  0  0  0
 25 26  1  0  0  0
 25 51  1  0  0  0
 25 52  1  0  0  0
 26 27  1  0  0  0
 26 53  1  0  0  0
 26 54  1  0  0  0
 27 28  1  0  0  0
 27 55  1  0  0  0
 27 56  1  0  0  0
 28 29  1  0  0  0
 28 57  1  0  0  0
 28 58  1  0  0  0
 29 59  1  0  0  0
 29 60  1  0  0  0
M  END
> <s_m_entry_id>
17319

> <s_m_entry_name>
ligand_docking-pose.246

> <s_m_Source_Path>
/home/csk/Desktop/cluster/DUD-E-result/esr1

> <s_m_Source_File>
ligand_docking-pose.sdf

> <i_m_Source_File_Index>
246

> <i_lp_mmshare_version>
53161

> <i_f3d_flags>
0

> <r_lp_tautomer_probability>
1

> <s_lp_Force_Field>
OPLS_2005

> <r_lp_Energy>
38.235239

> <b_lp_Chiralities_Consistent>
1

> <s_lp_Variant>
137397-1

> <s_i_glide_gridfile>
glide-grid_1sj0

> <i_i_glide_lignum>
1463

> <i_i_glide_rotatable_bonds>
7

> <r_i_docking_score>
-8.8261962713043

> <r_i_glide_ligand_efficiency>
-0.304351595562217

> <r_i_glide_ligand_efficiency_sa>
-0.935064526920588

> <r_i_glide_ligand_efficiency_ln>
-2.02097513310236

> <r_i_glide_gscore>
-8.8261962713043

> <r_i_glide_lipo>
-4.86307980530085

> <r_i_glide_hbond>
-0.3493186615823

> <r_i_glide_metal>
0

> <r_i_glide_rewards>
-1.36583933140998

> <r_i_glide_evdw>
-46.7120132446289

> <r_i_glide_ecoul>
-2.49166584014893

> <r_i_glide_erotb>
0.461392065242611

> <r_i_glide_esite>
0

> <r_i_glide_emodel>
-70.4657349055156

> <r_i_glide_energy>
-49.2036790847778

> <r_i_glide_einternal>
9.790771484375

> <i_i_glide_confnum>
7

> <i_i_glide_posenum>
4

> <r_i_glide_eff_state_penalty>
0

> <s_user_duplicate_titles>
137397

> <s_m_subgroup_title>
dock_pv

> <s_m_subgroupid>
dock_pv1

> <b_m_subgroup_collapsed>
0

$$$$
124954
                    3D
 Schrodinger Suite 2021-1.
 35 38  0  0  1  0            999 V2000
   32.6435   -2.6382   25.6979 C   0  0  0  0  0  0
   31.9620   -2.7894   27.0640 C   0  0  0  0  0  0
   30.9869   -1.6623   27.3589 C   0  0  0  0  0  0
   29.5585   -1.7720   27.3672 C   0  0  0  0  0  0
   28.5227   -2.7247   27.2545 C   0  0  0  0  0  0
   27.1810   -2.2951   27.2060 C   0  0  0  0  0  0
   26.8411   -0.9366   27.2894 C   0  0  0  0  0  0
   27.8614   -0.0035   27.4639 C   0  0  0  0  0  0
   29.1189   -0.4777   27.4956 N   0  0  0  0  0  0
   30.0755    0.4395   27.6560 C   0  0  0  0  0  0
   31.2743   -0.2901   27.6230 C   0  0  0  0  0  0
   32.6186    0.3336   27.7659 C   0  0  0  0  0  0
   33.6176   -0.2224   28.5709 C   0  0  0  0  0  0
   34.8599    0.4015   28.6635 C   0  0  0  0  0  0
   35.0957    1.5768   27.9517 C   0  0  0  0  0  0
   34.1028    2.1407   27.1598 C   0  0  0  0  0  0
   32.8670    1.5177   27.0724 C   0  0  0  0  0  0
   29.3659    1.6986   27.7795 C   0  0  0  0  0  0
   28.0436    1.4403   27.6356 C   0  0  0  0  0  0
   25.5361   -0.5419   27.1845 O   0  0  0  0  0  0
   33.2944   -3.4884   25.4911 H   0  0  0  0  0  0
   31.9090   -2.5817   24.8933 H   0  0  0  0  0  0
   33.2554   -1.7381   25.6524 H   0  0  0  0  0  0
   32.7238   -2.8710   27.8390 H   0  0  0  0  0  0
   31.4407   -3.7420   27.0639 H   0  0  0  0  0  0
   28.7595   -3.7684   27.1465 H   0  0  0  0  0  0
   26.3954   -3.0249   27.0650 H   0  0  0  0  0  0
   33.4349   -1.1281   29.1294 H   0  0  0  0  0  0
   35.6407   -0.0222   29.2781 H   0  0  0  0  0  0
   36.0599    2.0590   28.0125 H   0  0  0  0  0  0
   34.2893    3.0512   26.6130 H   0  0  0  0  0  0
   32.0962    1.9540   26.4632 H   0  0  0  0  0  0
   29.8291    2.6578   27.9381 H   0  0  0  0  0  0
   27.2395    2.1577   27.6622 H   0  0  0  0  0  0
   25.4348    0.4092   27.0832 H   0  0  0  0  0  0
  1  2  1  0  0  0
  1 21  1  0  0  0
  1 22  1  0  0  0
  1 23  1  0  0  0
  2  3  1  0  0  0
  2 24  1  0  0  0
  2 25  1  0  0  0
  3 11  1  0  0  0
  3  4  2  0  0  0
  4  9  1  0  0  0
  4  5  1  0  0  0
  5  6  2  0  0  0
  5 26  1  0  0  0
  6  7  1  0  0  0
  6 27  1  0  0  0
  7  8  2  0  0  0
  7 20  1  0  0  0
  8 19  1  0  0  0
  8  9  1  0  0  0
  9 10  1  0  0  0
 10 11  2  0  0  0
 10 18  1  0  0  0
 11 12  1  0  0  0
 12 17  1  0  0  0
 12 13  2  0  0  0
 13 14  1  0  0  0
 13 28  1  0  0  0
 14 15  2  0  0  0
 14 29  1  0  0  0
 15 16  1  0  0  0
 15 30  1  0  0  0
 16 17  2  0  0  0
 16 31  1  0  0  0
 17 32  1  0  0  0
 18 19  2  0  0  0
 18 33  1  0  0  0
 19 34  1  0  0  0
 20 35  1  0  0  0
M  END
> <s_m_entry_id>
17320

> <s_m_entry_name>
ligand_docking-pose.247

> <s_m_Source_Path>
/home/csk/Desktop/cluster/DUD-E-result/esr1

> <s_m_Source_File>
ligand_docking-pose.sdf

> <i_m_Source_File_Index>
247

> <i_lp_mmshare_version>
53161

> <i_f3d_flags>
0

> <r_lp_tautomer_probability>
1

> <s_lp_Force_Field>
OPLS_2005

> <r_lp_Energy>
61.771666

> <b_lp_Chiralities_Consistent>
1

> <s_lp_Variant>
124954-1

> <s_i_glide_gridfile>
glide-grid_1sj0

> <i_i_glide_lignum>
1113

> <i_i_glide_rotatable_bonds>
3

> <r_i_docking_score>
-8.81580404060529

> <r_i_glide_ligand_efficiency>
-0.440790202030264

> <r_i_glide_ligand_efficiency_sa>
-1.19648868841859

> <r_i_glide_ligand_efficiency_ln>
-2.20630498668623

> <r_i_glide_gscore>
-8.81580404060529

> <r_i_glide_lipo>
-4.20757233118638

> <r_i_glide_hbond>
-0.215290845662577

> <r_i_glide_metal>
0

> <r_i_glide_rewards>
-2.46748172596654

> <r_i_glide_evdw>
-36.3768501281738

> <r_i_glide_ecoul>
-2.44065952301025

> <r_i_glide_erotb>
0.259482297070445

> <r_i_glide_esite>
0

> <r_i_glide_emodel>
-56.0468885383368

> <r_i_glide_energy>
-38.8175096511841

> <r_i_glide_einternal>
1.94839155673981

> <i_i_glide_confnum>
2

> <i_i_glide_posenum>
309

> <r_i_glide_eff_state_penalty>
0

> <s_user_duplicate_titles>
124954

> <s_m_subgroup_title>
dock_pv

> <s_m_subgroupid>
dock_pv1

> <b_m_subgroup_collapsed>
0

$$$$
323214
                    3D
 Schrodinger Suite 2021-1.
 31 33  0  0  1  0            999 V2000
   33.1328   -3.3416   24.5974 C   0  0  0  0  0  0
   33.4407   -4.0782   23.4631 C   0  0  0  0  0  0
   32.8908   -3.7605   22.2340 C   0  0  0  0  0  0
   32.0626   -2.6567   22.1260 C   0  0  0  0  0  0
   31.7893   -1.8853   23.2556 C   0  0  0  0  0  0
   32.2822   -2.2378   24.5167 C   0  0  0  0  0  0
   31.8974   -1.4689   25.7387 C   0  0  0  0  0  0
   32.7207   -1.4454   26.8616 C   0  0  0  0  0  0
   32.3889   -0.7092   28.0170 C   0  0  0  0  0  0
   33.2693   -0.7344   29.1214 C   0  0  0  0  0  0
   32.9807   -0.0102   30.2628 C   0  0  0  0  0  0
   31.8377    0.7617   30.3361 C   0  0  0  0  0  0
   30.9343    0.8262   29.2694 C   0  0  0  0  0  0
   31.1796    0.0622   28.0639 C   0  0  0  0  0  0
   30.3261    0.0022   26.8972 C   0  0  0  0  0  0
   30.6968   -0.7657   25.7937 C   0  0  0  0  0  0
   29.0601    0.7109   26.7636 C   0  0  0  0  0  0
   28.0597    1.2788   26.6645 N   0  0  0  0  0  0
   29.5554    1.8580   29.4808 Cl  0  0  0  0  0  0
   31.6223    1.4580   31.4936 O   0  0  0  0  0  0
   33.1770   -4.5414   21.1465 O   0  0  0  0  0  0
   33.5408   -3.6715   25.5402 H   0  0  0  0  0  0
   34.0600   -4.9418   23.5660 H   0  0  0  0  0  0
   31.6491   -2.3905   21.1655 H   0  0  0  0  0  0
   31.1813   -1.0072   23.1411 H   0  0  0  0  0  0
   33.6575   -1.9822   26.8586 H   0  0  0  0  0  0
   34.1754   -1.3237   29.0776 H   0  0  0  0  0  0
   33.6597   -0.0400   31.1002 H   0  0  0  0  0  0
   30.0316   -0.8094   24.9412 H   0  0  0  0  0  0
   30.8219    1.9864   31.4538 H   0  0  0  0  0  0
   32.3964   -4.8548   20.6641 H   0  0  0  0  0  0
  1  6  1  0  0  0
  1  2  2  0  0  0
  1 22  1  0  0  0
  2  3  1  0  0  0
  2 23  1  0  0  0
  3  4  2  0  0  0
  3 21  1  0  0  0
  4  5  1  0  0  0
  4 24  1  0  0  0
  5  6  2  0  0  0
  5 25  1  0  0  0
  6  7  1  0  0  0
  7 16  1  0  0  0
  7  8  2  0  0  0
  8  9  1  0  0  0
  8 26  1  0  0  0
  9 14  2  0  0  0
  9 10  1  0  0  0
 10 11  2  0  0  0
 10 27  1  0  0  0
 11 12  1  0  0  0
 11 28  1  0  0  0
 12 13  2  0  0  0
 12 20  1  0  0  0
 13 14  1  0  0  0
 13 19  1  0  0  0
 14 15  1  0  0  0
 15 16  2  0  0  0
 15 17  1  0  0  0
 16 29  1  0  0  0
 17 18  3  0  0  0
 20 30  1  0  0  0
 21 31  1  0  0  0
M  END
> <s_m_entry_id>
17321

> <s_m_entry_name>
ligand_docking-pose.248

> <s_m_Source_Path>
/home/csk/Desktop/cluster/DUD-E-result/esr1

> <s_m_Source_File>
ligand_docking-pose.sdf

> <i_m_Source_File_Index>
248

> <i_lp_mmshare_version>
53161

> <i_f3d_flags>
0

> <r_lp_tautomer_probability>
0.999999999997365

> <s_lp_Force_Field>
OPLS_2005

> <r_lp_Energy>
24.815991

> <b_lp_Chiralities_Consistent>
1

> <s_lp_Variant>
323214-1

> <s_i_glide_gridfile>
glide-grid_1sj0

> <i_i_glide_lignum>
232

> <i_i_glide_rotatable_bonds>
3

> <r_i_docking_score>
-8.81461536635247

> <r_i_glide_ligand_efficiency>
-0.419743588873927

> <r_i_glide_ligand_efficiency_sa>
-1.15804073405003

> <r_i_glide_ligand_efficiency_ln>
-2.17939583772319

> <r_i_glide_gscore>
-8.81461536635247

> <r_i_glide_lipo>
-4.02244595135275

> <r_i_glide_hbond>
-0.16

> <r_i_glide_metal>
0

> <r_i_glide_rewards>
-2.74282159090909

> <r_i_glide_evdw>
-32.7105102539062

> <r_i_glide_ecoul>
-3.08789801597595

> <r_i_glide_erotb>
0.209362391001078

> <r_i_glide_esite>
0

> <r_i_glide_emodel>
-53.3766852945421

> <r_i_glide_energy>
-35.7984082698822

> <r_i_glide_einternal>
3.21573996543884

> <i_i_glide_confnum>
4

> <i_i_glide_posenum>
325

> <r_i_glide_eff_state_penalty>
0

> <s_user_duplicate_titles>
323214

> <s_m_subgroup_title>
dock_pv

> <s_m_subgroupid>
dock_pv1

> <b_m_subgroup_collapsed>
0

$$$$
224952
                    3D
 Schrodinger Suite 2021-1.
 37 40  0  0  1  0            999 V2000
   32.8597   -0.6648   26.6818 C   0  0  0  0  0  0
   33.0695   -0.1466   28.1453 C   0  0  2  0  0  0
   32.6652   -1.2478   29.1459 C   0  0  0  0  0  0
   31.2199   -1.7419   28.8771 C   0  0  0  0  0  0
   30.2953   -0.6005   28.4630 C   0  0  0  0  0  0
   28.9428   -0.7566   28.0524 C   0  0  0  0  0  0
   28.1875   -1.9293   27.8641 C   0  0  0  0  0  0
   26.8557   -1.8357   27.4628 C   0  0  0  0  0  0
   26.2535   -0.5986   27.2645 C   0  0  0  0  0  0
   26.9650    0.5827   27.4639 C   0  0  0  0  0  0
   28.3164    0.4985   27.8178 C   0  0  0  0  0  0
   29.4409    1.8307   28.0175 S   0  0  0  0  0  0
   30.7356    0.7123   28.3346 C   0  0  0  0  0  0
   32.2073    1.0822   28.5013 C   0  0  2  0  0  0
   32.8652    2.2135   27.7180 C   0  0  0  0  0  0
   34.3642    1.8577   27.6610 C   0  0  0  0  0  0
   34.4978    0.4524   28.2881 C   0  0  1  0  0  0
   34.8614    0.6267   29.6381 O   0  0  0  0  0  0
   24.9528   -0.5419   26.8409 O   0  0  0  0  0  0
   32.3125    1.3175   29.5637 H   0  0  0  0  0  0
   35.2741   -0.1422   27.8138 H   0  0  0  0  0  0
   33.3218   -1.6413   26.5377 H   0  0  0  0  0  0
   31.8167   -0.7935   26.4003 H   0  0  0  0  0  0
   33.2597    0.0229   25.9379 H   0  0  0  0  0  0
   33.3465   -2.0960   29.0614 H   0  0  0  0  0  0
   32.7655   -0.9014   30.1763 H   0  0  0  0  0  0
   31.2248   -2.5041   28.0956 H   0  0  0  0  0  0
   30.8406   -2.2122   29.7803 H   0  0  0  0  0  0
   28.6363   -2.9000   28.0148 H   0  0  0  0  0  0
   26.2828   -2.7371   27.2911 H   0  0  0  0  0  0
   26.5010    1.5427   27.3048 H   0  0  0  0  0  0
   32.4590    2.2596   26.7080 H   0  0  0  0  0  0
   32.6891    3.1598   28.2186 H   0  0  0  0  0  0
   34.6806    1.8283   26.6181 H   0  0  0  0  0  0
   34.9962    2.6053   28.1452 H   0  0  0  0  0  0
   35.7721    0.9416   29.6537 H   0  0  0  0  0  0
   24.6602    0.3614   26.6637 H   0  0  0  0  0  0
  1  2  1  0  0  0
  1 22  1  0  0  0
  1 23  1  0  0  0
  1 24  1  0  0  0
  2 14  1  0  0  0
  2 17  1  0  0  0
  2  3  1  0  0  0
  3  4  1  0  0  0
  3 25  1  0  0  0
  3 26  1  0  0  0
  4  5  1  0  0  0
  4 27  1  0  0  0
  4 28  1  0  0  0
  5 13  2  0  0  0
  5  6  1  0  0  0
  6 11  2  0  0  0
  6  7  1  0  0  0
  7  8  2  0  0  0
  7 29  1  0  0  0
  8  9  1  0  0  0
  8 30  1  0  0  0
  9 10  2  0  0  0
  9 19  1  0  0  0
 10 11  1  0  0  0
 10 31  1  0  0  0
 11 12  1  0  0  0
 12 13  1  0  0  0
 13 14  1  0  0  0
 14 20  1  0  0  0
 14 15  1  0  0  0
 15 16  1  0  0  0
 15 32  1  0  0  0
 15 33  1  0  0  0
 16 17  1  0  0  0
 16 34  1  0  0  0
 16 35  1  0  0  0
 17 21  1  0  0  0
 17 18  1  0  0  0
 18 36  1  0  0  0
 19 37  1  0  0  0
M  END
> <s_m_entry_id>
17322

> <s_m_entry_name>
ligand_docking-pose.249

> <s_m_Source_Path>
/home/csk/Desktop/cluster/DUD-E-result/esr1

> <s_m_Source_File>
ligand_docking-pose.sdf

> <i_m_Source_File_Index>
249

> <i_lp_mmshare_version>
53161

> <i_f3d_flags>
0

> <r_lp_tautomer_probability>
1

> <s_lp_Force_Field>
OPLS_2005

> <r_lp_Energy>
38.143222

> <b_lp_Chiralities_Consistent>
1

> <s_lp_Variant>
224952-1

> <s_i_glide_gridfile>
glide-grid_1sj0

> <i_i_glide_lignum>
761

> <i_i_glide_rotatable_bonds>
2

> <r_i_docking_score>
-8.81349746406626

> <r_i_glide_ligand_efficiency>
-0.463868287582435

> <r_i_glide_ligand_efficiency_sa>
-1.23778690215993

> <r_i_glide_ligand_efficiency_ln>
-2.2344109037095

> <r_i_glide_gscore>
-8.81349746406626

> <r_i_glide_lipo>
-3.87769230970381

> <r_i_glide_hbond>
-0.505376480506325

> <r_i_glide_metal>
0

> <r_i_glide_rewards>
-2.26994948589073

> <r_i_glide_evdw>
-28.1908798217773

> <r_i_glide_ecoul>
-5.00623464584351

> <r_i_glide_erotb>
0

> <r_i_glide_esite>
0

> <r_i_glide_emodel>
-43.3668918210528

> <r_i_glide_energy>
-33.1971144676208

> <r_i_glide_einternal>
0.0193218477070332

> <i_i_glide_confnum>
1

> <i_i_glide_posenum>
356

> <r_i_glide_eff_state_penalty>
0

> <s_user_duplicate_titles>
224952

> <s_m_subgroup_title>
dock_pv

> <s_m_subgroupid>
dock_pv1

> <b_m_subgroup_collapsed>
0

$$$$
186939
                    3D
 Schrodinger Suite 2021-1.
 33 35  0  0  1  0            999 V2000
   31.2792   -1.4070   24.5358 C   0  0  0  0  0  0
   31.0545   -0.3896   25.4533 C   0  0  0  0  0  0
   31.8006   -0.2891   26.6332 C   0  0  0  0  0  0
   32.6991   -1.3300   26.9373 C   0  0  0  0  0  0
   32.8878   -2.3802   26.0358 C   0  0  0  0  0  0
   32.2186   -2.3882   24.8163 C   0  0  0  0  0  0
   32.4897   -3.3420   23.8797 O   0  0  0  0  0  0
   33.4070   -1.3425   28.0889 F   0  0  0  0  0  0
   31.5466    0.9474   27.5267 C   0  0  1  0  0  0
   30.1928    1.0196   28.2704 C   0  0  2  0  0  0
   30.6473    1.2598   29.6171 N   0  0  0  0  0  0
   32.0138    1.3880   29.6125 C   0  0  0  0  0  0
   32.5884    1.2190   28.4959 N   0  0  0  0  0  0
   29.2297   -0.1742   28.0680 C   0  0  0  0  0  0
   28.0778   -0.0135   27.2787 C   0  0  0  0  0  0
   27.2737   -1.1105   26.9515 C   0  0  0  0  0  0
   27.6137   -2.3853   27.3991 C   0  0  0  0  0  0
   28.7378   -2.5549   28.1988 C   0  0  0  0  0  0
   29.5315   -1.4632   28.5475 C   0  0  0  0  0  0
   30.8600   -1.7430   29.6105 Cl  0  0  0  0  0  0
   26.8601   -3.4825   27.0728 O   0  0  0  0  0  0
   27.6447    1.5396   26.6637 Cl  0  0  0  0  0  0
   31.5875    1.7895   26.8332 H   0  0  0  0  0  0
   29.7015    1.9469   27.9811 H   0  0  0  0  0  0
   30.7310   -1.4317   23.6064 H   0  0  0  0  0  0
   30.2961    0.3405   25.2238 H   0  0  0  0  0  0
   33.5992   -3.1558   26.2728 H   0  0  0  0  0  0
   33.1744   -3.9560   24.1528 H   0  0  0  0  0  0
   29.9406    1.6013   30.2513 H   0  0  0  0  0  0
   32.5339    1.5989   30.5434 H   0  0  0  0  0  0
   26.3981   -0.9737   26.3330 H   0  0  0  0  0  0
   28.9888   -3.5434   28.5545 H   0  0  0  0  0  0
   26.1133   -3.3419   26.4665 H   0  0  0  0  0  0
  1  6  1  0  0  0
  1  2  2  0  0  0
  1 25  1  0  0  0
  2  3  1  0  0  0
  2 26  1  0  0  0
  3  4  2  0  0  0
  3  9  1  0  0  0
  4  5  1  0  0  0
  4  8  1  0  0  0
  5  6  2  0  0  0
  5 27  1  0  0  0
  6  7  1  0  0  0
  7 28  1  0  0  0
  9 23  1  0  0  0
  9 13  1  0  0  0
  9 10  1  0  0  0
 10 24  1  0  0  0
 10 11  1  0  0  0
 10 14  1  0  0  0
 11 12  1  0  0  0
 11 29  1  0  0  0
 12 13  2  0  0  0
 12 30  1  0  0  0
 14 19  1  0  0  0
 14 15  2  0  0  0
 15 16  1  0  0  0
 15 22  1  0  0  0
 16 17  2  0  0  0
 16 31  1  0  0  0
 17 18  1  0  0  0
 17 21  1  0  0  0
 18 19  2  0  0  0
 18 32  1  0  0  0
 19 20  1  0  0  0
 21 33  1  0  0  0
M  END
> <s_m_entry_id>
17323

> <s_m_entry_name>
ligand_docking-pose.250

> <s_m_Source_Path>
/home/csk/Desktop/cluster/DUD-E-result/esr1

> <s_m_Source_File>
ligand_docking-pose.sdf

> <i_m_Source_File_Index>
250

> <i_lp_mmshare_version>
53161

> <i_f3d_flags>
0

> <r_lp_tautomer_probability>
0.499999999997097

> <s_lp_Force_Field>
OPLS_2005

> <r_lp_Energy>
29.466628

> <b_lp_Chiralities_Consistent>
1

> <s_lp_Variant>
186939-1

> <s_i_glide_gridfile>
glide-grid_1sj0

> <i_i_glide_lignum>
675

> <i_i_glide_rotatable_bonds>
4

> <r_i_docking_score>
-8.80512203357657

> <r_i_glide_ligand_efficiency>
-0.400232819708026

> <r_i_glide_ligand_efficiency_sa>
-1.12146810108549

> <r_i_glide_ligand_efficiency_ln>
-2.15229299963595

> <r_i_glide_gscore>
-8.80512203357657

> <r_i_glide_lipo>
-4.14011254319549

> <r_i_glide_hbond>
-0.16

> <r_i_glide_metal>
0

> <r_i_glide_rewards>
-2.47596665300406

> <r_i_glide_evdw>
-35.9012603759766

> <r_i_glide_ecoul>
-3.73027610778809

> <r_i_glide_erotb>
0.325561597590016

> <r_i_glide_esite>
0

> <r_i_glide_emodel>
-59.5476930913212

> <r_i_glide_energy>
-39.6315364837646

> <r_i_glide_einternal>
4.8332953453064

> <i_i_glide_confnum>
2

> <i_i_glide_posenum>
75

> <r_i_glide_eff_state_penalty>
0

> <s_user_duplicate_titles>
186939

> <s_m_subgroup_title>
dock_pv

> <s_m_subgroupid>
dock_pv1

> <b_m_subgroup_collapsed>
0

$$$$
90566
                    3D
 Schrodinger Suite 2021-1.
 56 59  0  0  1  0            999 V2000
   31.2777   -2.9420   20.7238 C   0  0  0  0  0  0
   32.1597   -2.7313   21.9471 C   0  0  0  0  0  0
   31.6263   -2.1674   23.1116 C   0  0  0  0  0  0
   32.3255   -2.1353   24.3264 C   0  0  0  0  0  0
   33.6599   -2.5441   24.2796 C   0  0  0  0  0  0
   34.2546   -2.9421   23.0850 C   0  0  0  0  0  0
   33.5020   -3.1010   21.9337 C   0  0  0  0  0  0
   34.0978   -3.6208   20.8159 O   0  0  0  0  0  0
   31.6628   -1.7447   25.6214 C   0  0  0  0  0  0
   30.3223   -1.3434   25.6887 C   0  0  0  0  0  0
   29.7158   -1.2252   26.9341 C   0  0  0  0  0  0
   30.4597   -1.3794   28.0857 C   0  0  0  0  0  0
   31.8113   -1.6623   27.9847 C   0  0  0  0  0  0
   32.3950   -1.8845   26.7676 N   0  0  0  0  0  0
   32.5775   -1.7026   29.1691 N   0  0  0  0  0  0
   33.9652   -2.0842   29.0655 C   0  0  0  0  0  0
   32.1857   -0.9418   30.3781 C   0  0  0  0  0  0
   32.0951    0.5965   30.2478 C   0  0  0  0  0  0
   32.8946    1.1676   29.0936 C   0  0  0  0  0  0
   34.2810    1.3229   29.1886 C   0  0  0  0  0  0
   34.9932    1.7913   28.0903 C   0  0  0  0  0  0
   34.3242    2.0509   26.9018 C   0  0  0  0  0  0
   32.9581    1.8586   26.7981 C   0  0  0  0  0  0
   32.2300    1.4576   27.9037 C   0  0  0  0  0  0
   28.2937   -0.9855   27.0883 C   0  0  0  0  0  0
   27.8422    0.3178   27.2541 C   0  0  0  0  0  0
   26.4951    0.5334   27.4626 C   0  0  0  0  0  0
   25.6141   -0.5419   27.4644 C   0  0  0  0  0  0
   26.0763   -1.8448   27.4007 C   0  0  0  0  0  0
   27.4247   -2.0722   27.1819 C   0  0  0  0  0  0
   31.4831   -3.9121   20.2808 H   0  0  0  0  0  0
   30.2164   -2.9413   20.9774 H   0  0  0  0  0  0
   31.4746   -2.1900   19.9596 H   0  0  0  0  0  0
   30.6157   -1.8014   23.0649 H   0  0  0  0  0  0
   34.2536   -2.5421   25.1797 H   0  0  0  0  0  0
   35.2974   -3.1841   23.0562 H   0  0  0  0  0  0
   33.4558   -3.9075   20.1617 H   0  0  0  0  0  0
   29.7073   -1.2353   24.8107 H   0  0  0  0  0  0
   29.9744   -1.2675   29.0416 H   0  0  0  0  0  0
   34.0594   -3.0062   28.4956 H   0  0  0  0  0  0
   34.4602   -1.2748   28.5403 H   0  0  0  0  0  0
   34.4435   -2.2370   30.0263 H   0  0  0  0  0  0
   32.8871   -1.1728   31.1791 H   0  0  0  0  0  0
   31.2349   -1.3201   30.7552 H   0  0  0  0  0  0
   32.4557    1.0593   31.1679 H   0  0  0  0  0  0
   31.0516    0.9082   30.1781 H   0  0  0  0  0  0
   34.8019    1.0855   30.1034 H   0  0  0  0  0  0
   36.0600    1.9363   28.1469 H   0  0  0  0  0  0
   34.8593    2.4002   26.0372 H   0  0  0  0  0  0
   32.4676    2.0382   25.8640 H   0  0  0  0  0  0
   31.1622    1.3235   27.8170 H   0  0  0  0  0  0
   28.5275    1.1529   27.2222 H   0  0  0  0  0  0
   26.1298    1.5410   27.5667 H   0  0  0  0  0  0
   24.5571   -0.3473   27.5517 H   0  0  0  0  0  0
   25.3896   -2.6754   27.4640 H   0  0  0  0  0  0
   27.7913   -3.0854   27.0908 H   0  0  0  0  0  0
  1  2  1  0  0  0
  1 31  1  0  0  0
  1 32  1  0  0  0
  1 33  1  0  0  0
  2  7  1  0  0  0
  2  3  2  0  0  0
  3  4  1  0  0  0
  3 34  1  0  0  0
  4  5  2  0  0  0
  4  9  1  0  0  0
  5  6  1  0  0  0
  5 35  1  0  0  0
  6  7  2  0  0  0
  6 36  1  0  0  0
  7  8  1  0  0  0
  8 37  1  0  0  0
  9 14  1  0  0  0
  9 10  2  0  0  0
 10 11  1  0  0  0
 10 38  1  0  0  0
 11 12  2  0  0  0
 11 25  1  0  0  0
 12 13  1  0  0  0
 12 39  1  0  0  0
 13 14  2  0  0  0
 13 15  1  0  0  0
 15 16  1  0  0  0
 15 17  1  0  0  0
 16 40  1  0  0  0
 16 41  1  0  0  0
 16 42  1  0  0  0
 17 18  1  0  0  0
 17 43  1  0  0  0
 17 44  1  0  0  0
 18 19  1  0  0  0
 18 45  1  0  0  0
 18 46  1  0  0  0
 19 24  1  0  0  0
 19 20  2  0  0  0
 20 21  1  0  0  0
 20 47  1  0  0  0
 21 22  2  0  0  0
 21 48  1  0  0  0
 22 23  1  0  0  0
 22 49  1  0  0  0
 23 24  2  0  0  0
 23 50  1  0  0  0
 24 51  1  0  0  0
 25 30  1  0  0  0
 25 26  2  0  0  0
 26 27  1  0  0  0
 26 52  1  0  0  0
 27 28  2  0  0  0
 27 53  1  0  0  0
 28 29  1  0  0  0
 28 54  1  0  0  0
 29 30  2  0  0  0
 29 55  1  0  0  0
 30 56  1  0  0  0
M  END
> <s_m_entry_id>
17325

> <s_m_entry_name>
ligand_docking-pose.252

> <s_m_Source_Path>
/home/csk/Desktop/cluster/DUD-E-result/esr1

> <s_m_Source_File>
ligand_docking-pose.sdf

> <i_m_Source_File_Index>
252

> <i_lp_mmshare_version>
53161

> <i_f3d_flags>
0

> <r_lp_tautomer_probability>
0.999999999997365

> <s_lp_Force_Field>
OPLS_2005

> <r_lp_Energy>
22.778472

> <b_lp_Chiralities_Consistent>
1

> <s_lp_Variant>
90566-1

> <s_i_glide_gridfile>
glide-grid_1sj0

> <i_i_glide_lignum>
1016

> <i_i_glide_rotatable_bonds>
7

> <r_i_docking_score>
-8.77931203063269

> <r_i_glide_ligand_efficiency>
-0.292643734354423

> <r_i_glide_ligand_efficiency_sa>
-0.909312123018873

> <r_i_glide_ligand_efficiency_ln>
-1.99475535162595

> <r_i_glide_gscore>
-8.77931203063269

> <r_i_glide_lipo>
-5.63906303890787

> <r_i_glide_hbond>
0

> <r_i_glide_metal>
0

> <r_i_glide_rewards>
-1.91892503066161

> <r_i_glide_evdw>
-29.8977336883545

> <r_i_glide_ecoul>
-2.36240458488464

> <r_i_glide_erotb>
0.627923411087214

> <r_i_glide_esite>
0

> <r_i_glide_emodel>
-45.6018311642003

> <r_i_glide_energy>
-32.2601382732391

> <r_i_glide_einternal>
10.4635534286499

> <i_i_glide_confnum>
72

> <i_i_glide_posenum>
335

> <r_i_glide_eff_state_penalty>
0

> <s_user_duplicate_titles>
90566

> <s_m_subgroup_title>
dock_pv

> <s_m_subgroupid>
dock_pv1

> <b_m_subgroup_collapsed>
0

$$$$
301082
                    3D
 Schrodinger Suite 2021-1.
 45 47  0  0  1  0            999 V2000
   27.7748   -4.3561   28.4050 C   0  0  0  0  0  0
   28.0079   -2.9666   27.8640 C   0  0  0  0  0  0
   29.2974   -2.4702   27.6689 C   0  0  0  0  0  0
   29.5094   -1.1470   27.2618 C   0  0  0  0  0  0
   28.3857   -0.3693   26.9356 C   0  0  0  0  0  0
   27.0903   -0.8587   27.1562 C   0  0  0  0  0  0
   26.9113   -2.1587   27.6167 C   0  0  0  0  0  0
   25.6600   -2.6492   27.8640 O   0  0  0  0  0  0
   25.8826    0.0435   27.0363 C   0  0  0  0  0  0
   30.9462   -0.5813   27.2145 C   0  0  1  0  0  0
   31.1073    0.9159   27.6480 C   0  0  2  0  0  0
   32.5755    1.3485   27.4474 C   0  0  0  0  0  0
   33.4995    0.4759   28.3435 C   0  0  1  0  0  0
   33.1578    0.6956   29.8568 C   0  0  0  0  0  0
   31.6890    1.0218   30.0967 C   0  0  0  0  0  0
   30.7591    1.1507   29.1251 C   0  0  0  0  0  0
   29.3476    1.5647   29.4639 C   0  0  0  0  0  0
   33.2191   -1.0172   27.9864 C   0  0  0  0  0  0
   31.8304   -1.3633   28.0352 O   0  0  0  0  0  0
   34.9857    0.8498   28.0879 C   0  0  0  0  0  0
   35.2600    2.2239   28.2640 O   0  0  0  0  0  0
   31.2541   -0.6900   26.1725 H   0  0  0  0  0  0
   30.4890    1.5612   27.0245 H   0  0  0  0  0  0
   26.9746   -4.8571   27.8640 H   0  0  0  0  0  0
   28.6510   -4.9420   28.2640 H   0  0  0  0  0  0
   27.5215   -4.3264   29.4634 H   0  0  0  0  0  0
   30.1395   -3.1109   27.8640 H   0  0  0  0  0  0
   28.5092    0.6491   26.5995 H   0  0  0  0  0  0
   25.2600   -2.9576   27.0252 H   0  0  0  0  0  0
   25.2110   -0.1420   27.8640 H   0  0  0  0  0  0
   26.1843    1.0835   27.0897 H   0  0  0  0  0  0
   25.2761   -0.1487   26.1504 H   0  0  0  0  0  0
   32.6898    2.4070   27.6891 H   0  0  0  0  0  0
   32.8577    1.2534   26.3970 H   0  0  0  0  0  0
   33.5050   -0.1265   30.4841 H   0  0  0  0  0  0
   33.6700    1.5830   30.2252 H   0  0  0  0  0  0
   31.3856    1.2053   31.1175 H   0  0  0  0  0  0
   28.6280    0.8622   29.0640 H   0  0  0  0  0  0
   29.2203    1.5827   30.5439 H   0  0  0  0  0  0
   29.1300    2.5555   29.0641 H   0  0  0  0  0  0
   33.6226   -1.2883   27.0155 H   0  0  0  0  0  0
   33.7417   -1.6691   28.6877 H   0  0  0  0  0  0
   35.2759    0.6580   27.0641 H   0  0  0  0  0  0
   35.6508    0.2629   28.7236 H   0  0  0  0  0  0
   36.2184    2.3218   28.2916 H   0  0  0  0  0  0
  1  2  1  0  0  0
  1 24  1  0  0  0
  1 25  1  0  0  0
  1 26  1  0  0  0
  2  7  1  0  0  0
  2  3  2  0  0  0
  3  4  1  0  0  0
  3 27  1  0  0  0
  4  5  2  0  0  0
  4 10  1  0  0  0
  5  6  1  0  0  0
  5 28  1  0  0  0
  6  7  2  0  0  0
  6  9  1  0  0  0
  7  8  1  0  0  0
  8 29  1  0  0  0
  9 30  1  0  0  0
  9 31  1  0  0  0
  9 32  1  0  0  0
 10 22  1  0  0  0
 10 19  1  0  0  0
 10 11  1  0  0  0
 11 23  1  0  0  0
 11 16  1  0  0  0
 11 12  1  0  0  0
 12 13  1  0  0  0
 12 33  1  0  0  0
 12 34  1  0  0  0
 13 14  1  0  0  0
 13 18  1  0  0  0
 13 20  1  0  0  0
 14 15  1  0  0  0
 14 35  1  0  0  0
 14 36  1  0  0  0
 15 16  2  0  0  0
 15 37  1  0  0  0
 16 17  1  0  0  0
 17 38  1  0  0  0
 17 39  1  0  0  0
 17 40  1  0  0  0
 18 19  1  0  0  0
 18 41  1  0  0  0
 18 42  1  0  0  0
 20 21  1  0  0  0
 20 43  1  0  0  0
 20 44  1  0  0  0
 21 45  1  0  0  0
M  END
> <s_m_entry_id>
17326

> <s_m_entry_name>
ligand_docking-pose.253

> <s_m_Source_Path>
/home/csk/Desktop/cluster/DUD-E-result/esr1

> <s_m_Source_File>
ligand_docking-pose.sdf

> <i_m_Source_File_Index>
253

> <i_lp_mmshare_version>
53161

> <i_f3d_flags>
0

> <r_lp_tautomer_probability>
0.999999999997365

> <s_lp_Force_Field>
OPLS_2005

> <r_lp_Energy>
26.193332

> <b_lp_Chiralities_Consistent>
1

> <s_lp_Variant>
301082-1

> <s_i_glide_gridfile>
glide-grid_1sj0

> <i_i_glide_lignum>
1020

> <i_i_glide_rotatable_bonds>
4

> <r_i_docking_score>
-8.77790011837875

> <r_i_glide_ligand_efficiency>
-0.417995243732321

> <r_i_glide_ligand_efficiency_sa>
-1.15321718237509

> <r_i_glide_ligand_efficiency_ln>
-2.17031806685183

> <r_i_glide_gscore>
-8.77790011837875

> <r_i_glide_lipo>
-4.03014313993769

> <r_i_glide_hbond>
-0.314356530380968

> <r_i_glide_metal>
0

> <r_i_glide_rewards>
-2.34285436363636

> <r_i_glide_evdw>
-27.2681732177734

> <r_i_glide_ecoul>
-6.88921403884888

> <r_i_glide_erotb>
0.30624468229228

> <r_i_glide_esite>
0

> <r_i_glide_emodel>
-42.265564258073

> <r_i_glide_energy>
-34.1573872566223

> <r_i_glide_einternal>
6.64710903167725

> <i_i_glide_confnum>
4

> <i_i_glide_posenum>
320

> <r_i_glide_eff_state_penalty>
0

> <s_user_duplicate_titles>
301082

> <s_m_subgroup_title>
dock_pv

> <s_m_subgroupid>
dock_pv1

> <b_m_subgroup_collapsed>
0

$$$$
400564
                    3D
 Schrodinger Suite 2021-1.
 43 46  0  0  1  0            999 V2000
   31.3184   -1.6524   23.6004 C   0  0  0  0  0  0
   31.6600   -2.5493   22.5873 C   0  0  0  0  0  0
   32.6355   -3.5091   22.8107 C   0  0  0  0  0  0
   33.3209   -3.5264   24.0179 C   0  0  0  0  0  0
   33.0069   -2.6086   25.0146 C   0  0  0  0  0  0
   31.9786   -1.6768   24.8227 C   0  0  0  0  0  0
   31.6154   -0.6806   25.9296 C   0  0  1  0  0  0
   30.1324   -0.2034   26.0106 C   0  0  1  0  0  0
   29.0655   -1.2654   26.3625 C   0  0  0  0  0  0
   28.0177   -0.5741   27.2524 C   0  0  0  0  0  0
   28.4666    0.8841   27.3893 C   0  0  0  0  0  0
   29.9723    0.8819   27.1001 C   0  0  1  0  0  0
   30.8795    0.6230   28.3144 C   0  0  0  0  0  0
   30.8409    1.4003   29.4776 C   0  0  0  0  0  0
   31.6834    1.1172   30.5592 C   0  0  0  0  0  0
   32.5814    0.0654   30.4944 C   0  0  0  0  0  0
   32.6533   -0.7189   29.3502 C   0  0  0  0  0  0
   31.8151   -0.4246   28.2679 C   0  0  0  0  0  0
   31.9097   -1.2634   27.1827 O   0  0  0  0  0  0
   33.6558   -1.8575   29.3132 C   0  0  0  0  0  0
   33.2600   -2.9420   28.5056 O   0  0  0  0  0  0
   31.6600    1.8580   31.7023 O   0  0  0  0  0  0
   32.9041   -4.4604   21.8634 O   0  0  0  0  0  0
   32.2720    0.1743   25.7477 H   0  0  0  0  0  0
   29.8422    0.2581   25.0687 H   0  0  0  0  0  0
   30.2947    1.8580   26.7428 H   0  0  0  0  0  0
   30.5166   -0.9483   23.4638 H   0  0  0  0  0  0
   31.1228   -2.5422   21.6504 H   0  0  0  0  0  0
   34.0602   -4.2866   24.1990 H   0  0  0  0  0  0
   33.5634   -2.6423   25.9375 H   0  0  0  0  0  0
   28.6066   -1.6761   25.4641 H   0  0  0  0  0  0
   29.5053   -2.1075   26.8999 H   0  0  0  0  0  0
   27.0138   -0.6453   26.8306 H   0  0  0  0  0  0
   27.9890   -1.0512   28.2334 H   0  0  0  0  0  0
   28.2154    1.3374   28.3471 H   0  0  0  0  0  0
   27.9648    1.5171   26.6551 H   0  0  0  0  0  0
   30.1477    2.2253   29.5216 H   0  0  0  0  0  0
   33.2274   -0.1379   31.3368 H   0  0  0  0  0  0
   33.7581   -2.2766   30.3017 H   0  0  0  0  0  0
   34.6430   -1.4747   29.0630 H   0  0  0  0  0  0
   32.7683   -2.5553   27.7674 H   0  0  0  0  0  0
   30.9941    2.5485   31.6834 H   0  0  0  0  0  0
   32.2058   -4.6309   21.2189 H   0  0  0  0  0  0
  1  6  1  0  0  0
  1  2  2  0  0  0
  1 27  1  0  0  0
  2  3  1  0  0  0
  2 28  1  0  0  0
  3  4  2  0  0  0
  3 23  1  0  0  0
  4  5  1  0  0  0
  4 29  1  0  0  0
  5  6  2  0  0  0
  5 30  1  0  0  0
  6  7  1  0  0  0
  7 24  1  0  0  0
  7 19  1  0  0  0
  7  8  1  0  0  0
  8 25  1  0  0  0
  8 12  1  0  0  0
  8  9  1  0  0  0
  9 10  1  0  0  0
  9 31  1  0  0  0
  9 32  1  0  0  0
 10 11  1  0  0  0
 10 33  1  0  0  0
 10 34  1  0  0  0
 11 12  1  0  0  0
 11 35  1  0  0  0
 11 36  1  0  0  0
 12 26  1  0  0  0
 12 13  1  0  0  0
 13 18  2  0  0  0
 13 14  1  0  0  0
 14 15  2  0  0  0
 14 37  1  0  0  0
 15 16  1  0  0  0
 15 22  1  0  0  0
 16 17  2  0  0  0
 16 38  1  0  0  0
 17 18  1  0  0  0
 17 20  1  0  0  0
 18 19  1  0  0  0
 20 21  1  0  0  0
 20 39  1  0  0  0
 20 40  1  0  0  0
 21 41  1  0  0  0
 22 42  1  0  0  0
 23 43  1  0  0  0
M  END
> <s_m_entry_id>
17327

> <s_m_entry_name>
ligand_docking-pose.254

> <s_m_Source_Path>
/home/csk/Desktop/cluster/DUD-E-result/esr1

> <s_m_Source_File>
ligand_docking-pose.sdf

> <i_m_Source_File_Index>
254

> <i_lp_mmshare_version>
53161

> <i_f3d_flags>
0

> <r_lp_tautomer_probability>
0.999999999997365

> <s_lp_Force_Field>
OPLS_2005

> <r_lp_Energy>
33.353796

> <b_lp_Chiralities_Consistent>
1

> <s_lp_Variant>
400564-1

> <s_i_glide_gridfile>
glide-grid_1sj0

> <i_i_glide_lignum>
477

> <i_i_glide_rotatable_bonds>
5

> <r_i_docking_score>
-8.77677303285415

> <r_i_glide_ligand_efficiency>
-0.381598827515398

> <r_i_glide_ligand_efficiency_sa>
-1.08521630398688

> <r_i_glide_ligand_efficiency_ln>
-2.122303302722

> <r_i_glide_gscore>
-8.77677303285415

> <r_i_glide_lipo>
-5.13212639874698

> <r_i_glide_hbond>
-0.0476713305386886

> <r_i_glide_metal>
0

> <r_i_glide_rewards>
-2.05968233123666

> <r_i_glide_evdw>
-32.3359642028809

> <r_i_glide_ecoul>
-2.00610733032227

> <r_i_glide_erotb>
0.380421337360563

> <r_i_glide_esite>
0

> <r_i_glide_emodel>
-43.355137699047

> <r_i_glide_energy>
-34.3420715332031

> <r_i_glide_einternal>
6.43042755126953

> <i_i_glide_confnum>
10

> <i_i_glide_posenum>
231

> <r_i_glide_eff_state_penalty>
0

> <s_user_duplicate_titles>
400564

> <s_m_subgroup_title>
dock_pv

> <s_m_subgroupid>
dock_pv1

> <b_m_subgroup_collapsed>
0

$$$$
398423
                    3D
 Schrodinger Suite 2021-1.
 46 49  0  0  1  0            999 V2000
   35.0807    0.5549   28.2910 C   0  0  0  0  0  0
   35.1320   -0.5420   29.1997 O   0  0  0  0  0  0
   33.9846   -1.4020   29.2431 C   0  0  0  0  0  0
   32.7003   -0.6028   29.3729 C   0  0  0  0  0  0
   32.4316    0.0314   30.5770 C   0  0  0  0  0  0
   31.3397    0.8747   30.6729 C   0  0  0  0  0  0
   30.5258    1.1236   29.5694 C   0  0  0  0  0  0
   30.7589    0.4806   28.3504 C   0  0  0  0  0  0
   31.8405   -0.4177   28.2844 C   0  0  0  0  0  0
   32.0745   -1.2164   27.1882 O   0  0  0  0  0  0
   31.6987   -0.6791   25.9272 C   0  0  2  0  0  0
   30.1946   -0.2606   25.9839 C   0  0  2  0  0  0
   29.9075    0.7521   27.1083 C   0  0  1  0  0  0
   28.3883    0.6522   27.3085 C   0  0  0  0  0  0
   28.0567   -0.8240   27.0893 C   0  0  0  0  0  0
   29.1684   -1.3958   26.1985 C   0  0  0  0  0  0
   26.8471   -0.9518   26.5482 F   0  0  0  0  0  0
   28.0823   -1.4452   28.2640 F   0  0  0  0  0  0
   32.0514   -1.6853   24.8201 C   0  0  0  0  0  0
   31.3776   -1.6524   23.6026 C   0  0  0  0  0  0
   31.6603   -2.5755   22.5973 C   0  0  0  0  0  0
   32.6224   -3.5543   22.8108 C   0  0  0  0  0  0
   33.3296   -3.5769   24.0085 C   0  0  0  0  0  0
   33.0483   -2.6503   25.0105 C   0  0  0  0  0  0
   32.8600   -4.5181   21.8641 O   0  0  0  0  0  0
   31.0870    1.4580   31.8692 O   0  0  0  0  0  0
   32.3164    0.1975   25.7186 H   0  0  0  0  0  0
   29.9314    0.2581   25.0637 H   0  0  0  0  0  0
   30.1861    1.7694   26.8270 H   0  0  0  0  0  0
   36.0600    0.7515   27.8643 H   0  0  0  0  0  0
   34.7483    1.4546   28.8094 H   0  0  0  0  0  0
   34.3998    0.3783   27.4634 H   0  0  0  0  0  0
   33.9594   -2.0483   28.3707 H   0  0  0  0  0  0
   34.0601   -2.0878   30.0846 H   0  0  0  0  0  0
   33.0828   -0.1100   31.4283 H   0  0  0  0  0  0
   29.7015    1.8145   29.6615 H   0  0  0  0  0  0
   28.0427    1.0422   28.2640 H   0  0  0  0  0  0
   27.8867    1.2844   26.5740 H   0  0  0  0  0  0
   28.7737   -1.7298   25.2421 H   0  0  0  0  0  0
   29.6444   -2.2521   26.6795 H   0  0  0  0  0  0
   30.5980   -0.9248   23.4640 H   0  0  0  0  0  0
   31.1089   -2.5537   21.6690 H   0  0  0  0  0  0
   34.0600   -4.3498   24.1794 H   0  0  0  0  0  0
   33.5960   -2.7015   25.9399 H   0  0  0  0  0  0
   32.1566   -4.6750   21.2213 H   0  0  0  0  0  0
   30.3630    2.0861   31.8380 H   0  0  0  0  0  0
  1  2  1  0  0  0
  1 30  1  0  0  0
  1 31  1  0  0  0
  1 32  1  0  0  0
  2  3  1  0  0  0
  3  4  1  0  0  0
  3 33  1  0  0  0
  3 34  1  0  0  0
  4  9  1  0  0  0
  4  5  2  0  0  0
  5  6  1  0  0  0
  5 35  1  0  0  0
  6  7  2  0  0  0
  6 26  1  0  0  0
  7  8  1  0  0  0
  7 36  1  0  0  0
  8 13  1  0  0  0
  8  9  2  0  0  0
  9 10  1  0  0  0
 10 11  1  0  0  0
 11 27  1  0  0  0
 11 12  1  0  0  0
 11 19  1  0  0  0
 12 28  1  0  0  0
 12 16  1  0  0  0
 12 13  1  0  0  0
 13 29  1  0  0  0
 13 14  1  0  0  0
 14 15  1  0  0  0
 14 37  1  0  0  0
 14 38  1  0  0  0
 15 16  1  0  0  0
 15 17  1  0  0  0
 15 18  1  0  0  0
 16 39  1  0  0  0
 16 40  1  0  0  0
 19 24  1  0  0  0
 19 20  2  0  0  0
 20 21  1  0  0  0
 20 41  1  0  0  0
 21 22  2  0  0  0
 21 42  1  0  0  0
 22 23  1  0  0  0
 22 25  1  0  0  0
 23 24  2  0  0  0
 23 43  1  0  0  0
 24 44  1  0  0  0
 25 45  1  0  0  0
 26 46  1  0  0  0
M  END
> <s_m_entry_id>
17328

> <s_m_entry_name>
ligand_docking-pose.255

> <s_m_Source_Path>
/home/csk/Desktop/cluster/DUD-E-result/esr1

> <s_m_Source_File>
ligand_docking-pose.sdf

> <i_m_Source_File_Index>
255

> <i_lp_mmshare_version>
53161

> <i_f3d_flags>
0

> <r_lp_tautomer_probability>
0.999999999997365

> <s_lp_Force_Field>
OPLS_2005

> <r_lp_Energy>
36.331334

> <b_lp_Chiralities_Consistent>
1

> <s_lp_Variant>
398423-1

> <s_i_glide_gridfile>
glide-grid_1sj0

> <i_i_glide_lignum>
1797

> <i_i_glide_rotatable_bonds>
5

> <r_i_docking_score>
-8.76694771038158

> <r_i_glide_ligand_efficiency>
-0.337190296553138

> <r_i_glide_ligand_efficiency_sa>
-0.998924926758921

> <r_i_glide_ligand_efficiency_ln>
-2.05888890308136

> <r_i_glide_gscore>
-8.76694771038158

> <r_i_glide_lipo>
-5.03196483865746

> <r_i_glide_hbond>
-0.0668569122737514

> <r_i_glide_metal>
0

> <r_i_glide_rewards>
-2.00025107584762

> <r_i_glide_evdw>
-34.8544883728027

> <r_i_glide_ecoul>
-1.40476536750793

> <r_i_glide_erotb>
0.29245575305073

> <r_i_glide_esite>
-0.00689141288715535

> <r_i_glide_emodel>
-43.3694359037179

> <r_i_glide_energy>
-36.2592537403107

> <r_i_glide_einternal>
7.35420894622803

> <i_i_glide_confnum>
8

> <i_i_glide_posenum>
290

> <r_i_glide_eff_state_penalty>
0

> <s_user_duplicate_titles>
398423

> <s_m_subgroup_title>
dock_pv

> <s_m_subgroupid>
dock_pv1

> <b_m_subgroup_collapsed>
0

$$$$
108449
                    3D
 Schrodinger Suite 2021-1.
 41 43  0  0  1  0            999 V2000
   33.7784   -2.1210   29.4564 C   0  0  0  0  0  0
   32.8582   -2.2847   28.2309 C   0  0  0  0  0  0
   32.6873   -1.0231   27.3356 C   0  0  2  0  0  0
   31.9289    0.0045   28.1077 C   0  0  0  0  0  0
   32.2993    0.6855   29.2654 C   0  0  0  0  0  0
   31.3305    1.3579   29.9969 C   0  0  0  0  0  0
   30.0298    1.4579   29.4997 C   0  0  0  0  0  0
   29.6868    0.8577   28.2908 C   0  0  0  0  0  0
   30.6349    0.0879   27.6151 C   0  0  0  0  0  0
   30.5280   -0.7167   26.3844 C   0  0  0  0  0  0
   31.7593   -1.2430   26.1299 C   0  0  0  0  0  0
   32.1687   -1.9559   24.8736 C   0  0  0  0  0  0
   31.5534   -1.7150   23.6327 C   0  0  0  0  0  0
   31.7820   -2.5419   22.5284 C   0  0  0  0  0  0
   32.6896   -3.5785   22.6230 C   0  0  0  0  0  0
   33.3980   -3.7424   23.7972 C   0  0  0  0  0  0
   33.1535   -2.9461   24.9063 C   0  0  0  0  0  0
   32.8962   -4.4476   21.5834 O   0  0  0  0  0  0
   29.1869   -0.7960   25.6527 C   0  0  0  0  0  0
   28.0801   -1.5206   26.4412 C   0  0  0  0  0  0
   31.6601    1.8574   31.2261 O   0  0  0  0  0  0
   34.0595   -3.0916   29.8634 H   0  0  0  0  0  0
   34.6966   -1.5888   29.2092 H   0  0  0  0  0  0
   33.2894   -1.5781   30.2638 H   0  0  0  0  0  0
   31.8668   -2.5416   28.5938 H   0  0  0  0  0  0
   33.1950   -3.1579   27.6879 H   0  0  0  0  0  0
   33.6591   -0.6245   27.0640 H   0  0  0  0  0  0
   33.3031    0.6031   29.6540 H   0  0  0  0  0  0
   29.2649    1.9710   30.0583 H   0  0  0  0  0  0
   28.6767    0.9615   27.9243 H   0  0  0  0  0  0
   30.8689   -0.8927   23.5034 H   0  0  0  0  0  0
   31.2604   -2.3890   21.5977 H   0  0  0  0  0  0
   34.0601   -4.5786   23.8730 H   0  0  0  0  0  0
   33.7266   -3.1609   25.7844 H   0  0  0  0  0  0
   32.1340   -4.6486   21.0230 H   0  0  0  0  0  0
   28.8660    0.2138   25.3907 H   0  0  0  0  0  0
   29.2803   -1.3422   24.7224 H   0  0  0  0  0  0
   27.1559   -1.5744   25.8644 H   0  0  0  0  0  0
   28.3758   -2.5434   26.6754 H   0  0  0  0  0  0
   27.8429   -1.0296   27.3825 H   0  0  0  0  0  0
   32.5856    1.7301   31.4435 H   0  0  0  0  0  0
  1  2  1  0  0  0
  1 22  1  0  0  0
  1 23  1  0  0  0
  1 24  1  0  0  0
  2  3  1  0  0  0
  2 25  1  0  0  0
  2 26  1  0  0  0
  3 11  1  0  0  0
  3  4  1  0  0  0
  3 27  1  0  0  0
  4  9  2  0  0  0
  4  5  1  0  0  0
  5  6  2  0  0  0
  5 28  1  0  0  0
  6  7  1  0  0  0
  6 21  1  0  0  0
  7  8  2  0  0  0
  7 29  1  0  0  0
  8  9  1  0  0  0
  8 30  1  0  0  0
  9 10  1  0  0  0
 10 11  2  0  0  0
 10 19  1  0  0  0
 11 12  1  0  0  0
 12 17  1  0  0  0
 12 13  2  0  0  0
 13 14  1  0  0  0
 13 31  1  0  0  0
 14 15  2  0  0  0
 14 32  1  0  0  0
 15 16  1  0  0  0
 15 18  1  0  0  0
 16 17  2  0  0  0
 16 33  1  0  0  0
 17 34  1  0  0  0
 18 35  1  0  0  0
 19 20  1  0  0  0
 19 36  1  0  0  0
 19 37  1  0  0  0
 20 38  1  0  0  0
 20 39  1  0  0  0
 20 40  1  0  0  0
 21 41  1  0  0  0
M  END
> <s_m_entry_id>
17329

> <s_m_entry_name>
ligand_docking-pose.256

> <s_m_Source_Path>
/home/csk/Desktop/cluster/DUD-E-result/esr1

> <s_m_Source_File>
ligand_docking-pose.sdf

> <i_m_Source_File_Index>
256

> <i_lp_mmshare_version>
53161

> <i_f3d_flags>
0

> <r_lp_tautomer_probability>
1

> <s_lp_Force_Field>
OPLS_2005

> <r_lp_Energy>
32.684265

> <b_lp_Chiralities_Consistent>
1

> <s_lp_Variant>
108449-1

> <s_i_glide_gridfile>
glide-grid_1sj0

> <i_i_glide_lignum>
1124

> <i_i_glide_rotatable_bonds>
5

> <r_i_docking_score>
-8.76247145226112

> <r_i_glide_ligand_efficiency>
-0.417260545345768

> <r_i_glide_ligand_efficiency_sa>
-1.15119020523613

> <r_i_glide_ligand_efficiency_ln>
-2.1665033603308

> <r_i_glide_gscore>
-8.76247145226112

> <r_i_glide_lipo>
-4.77474761267223

> <r_i_glide_hbond>
-0.103208905723704

> <r_i_glide_metal>
0

> <r_i_glide_rewards>
-2.30454941340768

> <r_i_glide_evdw>
-29.7953796386719

> <r_i_glide_ecoul>
-2.13296723365784

> <r_i_glide_erotb>
0.229748546524758

> <r_i_glide_esite>
0

> <r_i_glide_emodel>
-41.6218337912776

> <r_i_glide_energy>
-31.9283468723297

> <r_i_glide_einternal>
7.07886409759521

> <i_i_glide_confnum>
4

> <i_i_glide_posenum>
158

> <r_i_glide_eff_state_penalty>
0

> <s_user_duplicate_titles>
108449

> <s_m_subgroup_title>
dock_pv

> <s_m_subgroupid>
dock_pv1

> <b_m_subgroup_collapsed>
0

$$$$
301141
                    3D
 Schrodinger Suite 2021-1.
 39 41  0  0  1  0            999 V2000
   29.4867    1.5937   29.5989 C   0  0  0  0  0  0
   30.9243    1.2562   29.2879 C   0  0  0  0  0  0
   31.8201    1.0569   30.2761 C   0  0  0  0  0  0
   33.2859    0.7107   30.0510 C   0  0  0  0  0  0
   33.6480    0.5056   28.5397 C   0  0  2  0  0  0
   32.8104    1.4831   27.6703 C   0  0  0  0  0  0
   31.3258    1.1279   27.8105 C   0  0  1  0  0  0
   31.1089   -0.3180   27.2690 C   0  0  1  0  0  0
   31.8792   -1.2035   28.0914 O   0  0  0  0  0  0
   33.2830   -0.9476   28.0954 C   0  0  0  0  0  0
   29.6404   -0.7456   27.2276 C   0  0  0  0  0  0
   28.6434    0.1693   26.8614 C   0  0  0  0  0  0
   27.3033   -0.1633   27.0107 C   0  0  0  0  0  0
   26.9432   -1.4481   27.3875 C   0  0  0  0  0  0
   27.9231   -2.3953   27.6853 C   0  0  0  0  0  0
   29.2680   -2.0405   27.6102 C   0  0  0  0  0  0
   27.4521   -4.1444   28.2623 Br  0  0  0  0  0  0
   25.6182   -1.7435   27.4640 O   0  0  0  0  0  0
   35.1613    0.7643   28.3568 C   0  0  0  0  0  0
   35.4714    2.1434   28.2640 O   0  0  0  0  0  0
   30.7760    1.8578   27.2211 H   0  0  0  0  0  0
   31.4555   -0.3909   26.2354 H   0  0  0  0  0  0
   28.8601    0.7562   29.3252 H   0  0  0  0  0  0
   29.3305    1.7352   30.6637 H   0  0  0  0  0  0
   29.1612    2.4873   29.0654 H   0  0  0  0  0  0
   31.4814    1.1544   31.2974 H   0  0  0  0  0  0
   33.6024   -0.1362   30.6628 H   0  0  0  0  0  0
   33.8134    1.5834   30.4359 H   0  0  0  0  0  0
   32.9652    2.5219   27.9696 H   0  0  0  0  0  0
   33.1165    1.4278   26.6236 H   0  0  0  0  0  0
   33.6600   -1.1699   27.0986 H   0  0  0  0  0  0
   33.7574   -1.6745   28.7566 H   0  0  0  0  0  0
   28.8847    1.1679   26.5323 H   0  0  0  0  0  0
   26.5361    0.5645   26.7942 H   0  0  0  0  0  0
   30.0162   -2.7728   27.8764 H   0  0  0  0  0  0
   25.3824   -2.5065   26.9110 H   0  0  0  0  0  0
   35.5463    0.2898   27.4640 H   0  0  0  0  0  0
   35.7054    0.3157   29.1875 H   0  0  0  0  0  0
   36.4301    2.2167   28.3429 H   0  0  0  0  0  0
  1  2  1  0  0  0
  1 23  1  0  0  0
  1 24  1  0  0  0
  1 25  1  0  0  0
  2  7  1  0  0  0
  2  3  2  0  0  0
  3  4  1  0  0  0
  3 26  1  0  0  0
  4  5  1  0  0  0
  4 27  1  0  0  0
  4 28  1  0  0  0
  5 10  1  0  0  0
  5  6  1  0  0  0
  5 19  1  0  0  0
  6  7  1  0  0  0
  6 29  1  0  0  0
  6 30  1  0  0  0
  7 21  1  0  0  0
  7  8  1  0  0  0
  8 22  1  0  0  0
  8  9  1  0  0  0
  8 11  1  0  0  0
  9 10  1  0  0  0
 10 31  1  0  0  0
 10 32  1  0  0  0
 11 16  1  0  0  0
 11 12  2  0  0  0
 12 13  1  0  0  0
 12 33  1  0  0  0
 13 14  2  0  0  0
 13 34  1  0  0  0
 14 15  1  0  0  0
 14 18  1  0  0  0
 15 16  2  0  0  0
 15 17  1  0  0  0
 16 35  1  0  0  0
 18 36  1  0  0  0
 19 20  1  0  0  0
 19 37  1  0  0  0
 19 38  1  0  0  0
 20 39  1  0  0  0
M  END
> <s_m_entry_id>
17330

> <s_m_entry_name>
ligand_docking-pose.257

> <s_m_Source_Path>
/home/csk/Desktop/cluster/DUD-E-result/esr1

> <s_m_Source_File>
ligand_docking-pose.sdf

> <i_m_Source_File_Index>
257

> <i_lp_mmshare_version>
53161

> <i_f3d_flags>
0

> <r_lp_tautomer_probability>
0.999999999997365

> <s_lp_Force_Field>
OPLS_2005

> <r_lp_Energy>
26.749685

> <b_lp_Chiralities_Consistent>
1

> <s_lp_Variant>
301141-1

> <s_i_glide_gridfile>
glide-grid_1sj0

> <i_i_glide_lignum>
926

> <i_i_glide_rotatable_bonds>
4

> <r_i_docking_score>
-8.76091095896505

> <r_i_glide_ligand_efficiency>
-0.438045547948252

> <r_i_glide_ligand_efficiency_sa>
-1.18903855103436

> <r_i_glide_ligand_efficiency_ln>
-2.19256705884668

> <r_i_glide_gscore>
-8.76091095896505

> <r_i_glide_lipo>
-4.09936407797603

> <r_i_glide_hbond>
-0.411505301592099

> <r_i_glide_metal>
0

> <r_i_glide_rewards>
-1.99619822727273

> <r_i_glide_evdw>
-31.5301475524902

> <r_i_glide_ecoul>
-6.05029487609863

> <r_i_glide_erotb>
0.230208256915119

> <r_i_glide_esite>
0

> <r_i_glide_emodel>
-56.6677373098225

> <r_i_glide_energy>
-37.5804424285889

> <r_i_glide_einternal>
6.53706073760986

> <i_i_glide_confnum>
4

> <i_i_glide_posenum>
395

> <r_i_glide_eff_state_penalty>
0

> <s_user_duplicate_titles>
301141

> <s_m_subgroup_title>
dock_pv

> <s_m_subgroupid>
dock_pv1

> <b_m_subgroup_collapsed>
0

$$$$
125527
                    3D
 Schrodinger Suite 2021-1.
 38 41  0  0  1  0            999 V2000
   28.6605    0.9065   26.8697 C   0  0  0  0  0  0
   29.4504   -0.4097   27.0080 C   0  0  0  0  0  0
   28.6726   -1.4627   27.8156 C   0  0  0  0  0  0
   30.8417   -0.1780   27.5920 C   0  0  0  0  0  0
   31.1288    0.4538   28.8468 C   0  0  0  0  0  0
   30.4879    1.0580   29.9516 C   0  0  0  0  0  0
   31.2595    1.4574   31.0648 C   0  0  0  0  0  0
   32.6564    1.3795   31.0644 C   0  0  0  0  0  0
   33.2808    0.8598   29.9412 C   0  0  0  0  0  0
   32.4974    0.4192   28.9437 N   0  0  0  0  0  0
   33.1402   -0.1432   27.9191 C   0  0  0  0  0  0
   32.1081   -0.6024   27.0739 C   0  0  0  0  0  0
   32.3496   -1.4414   25.8611 C   0  0  0  0  0  0
   31.7769   -1.1575   24.6164 C   0  0  0  0  0  0
   32.0670   -1.9655   23.5164 C   0  0  0  0  0  0
   32.9267   -3.0493   23.6580 C   0  0  0  0  0  0
   33.4960   -3.3359   24.8917 C   0  0  0  0  0  0
   33.1994   -2.5422   25.9920 C   0  0  0  0  0  0
   33.2279   -3.8368   22.5820 O   0  0  0  0  0  0
   34.5522    0.0099   28.2643 C   0  0  0  0  0  0
   34.6314    0.6223   29.4635 C   0  0  0  0  0  0
   29.2038    1.6303   26.2610 H   0  0  0  0  0  0
   27.6913    0.7411   26.3968 H   0  0  0  0  0  0
   28.4643    1.3706   27.8363 H   0  0  0  0  0  0
   29.5313   -0.8200   26.0030 H   0  0  0  0  0  0
   29.2255   -2.4003   27.8802 H   0  0  0  0  0  0
   28.4724   -1.1206   28.8289 H   0  0  0  0  0  0
   27.7104   -1.6820   27.3520 H   0  0  0  0  0  0
   29.4145    1.1577   29.9707 H   0  0  0  0  0  0
   30.7681    1.8564   31.9404 H   0  0  0  0  0  0
   33.2261    1.7304   31.9105 H   0  0  0  0  0  0
   31.1308   -0.3012   24.4929 H   0  0  0  0  0  0
   31.6579   -1.7419   22.5470 H   0  0  0  0  0  0
   34.1955   -4.1421   24.9925 H   0  0  0  0  0  0
   33.6575   -2.7701   26.9429 H   0  0  0  0  0  0
   32.6935   -3.6592   21.8040 H   0  0  0  0  0  0
   35.4058   -0.2975   27.6877 H   0  0  0  0  0  0
   35.5366    0.8874   29.9871 H   0  0  0  0  0  0
  1  2  1  0  0  0
  1 22  1  0  0  0
  1 23  1  0  0  0
  1 24  1  0  0  0
  2  3  1  0  0  0
  2  4  1  0  0  0
  2 25  1  0  0  0
  3 26  1  0  0  0
  3 27  1  0  0  0
  3 28  1  0  0  0
  4 12  1  0  0  0
  4  5  2  0  0  0
  5 10  1  0  0  0
  5  6  1  0  0  0
  6  7  2  0  0  0
  6 29  1  0  0  0
  7  8  1  0  0  0
  7 30  1  0  0  0
  8  9  2  0  0  0
  8 31  1  0  0  0
  9 21  1  0  0  0
  9 10  1  0  0  0
 10 11  1  0  0  0
 11 12  2  0  0  0
 11 20  1  0  0  0
 12 13  1  0  0  0
 13 18  1  0  0  0
 13 14  2  0  0  0
 14 15  1  0  0  0
 14 32  1  0  0  0
 15 16  2  0  0  0
 15 33  1  0  0  0
 16 17  1  0  0  0
 16 19  1  0  0  0
 17 18  2  0  0  0
 17 34  1  0  0  0
 18 35  1  0  0  0
 19 36  1  0  0  0
 20 21  2  0  0  0
 20 37  1  0  0  0
 21 38  1  0  0  0
M  END
> <s_m_entry_id>
17331

> <s_m_entry_name>
ligand_docking-pose.258

> <s_m_Source_Path>
/home/csk/Desktop/cluster/DUD-E-result/esr1

> <s_m_Source_File>
ligand_docking-pose.sdf

> <i_m_Source_File_Index>
258

> <i_lp_mmshare_version>
53161

> <i_f3d_flags>
0

> <r_lp_tautomer_probability>
0.999999999997365

> <s_lp_Force_Field>
OPLS_2005

> <r_lp_Energy>
62.714037

> <b_lp_Chiralities_Consistent>
1

> <s_lp_Variant>
125527-1

> <s_i_glide_gridfile>
glide-grid_1sj0

> <i_i_glide_lignum>
1242

> <i_i_glide_rotatable_bonds>
3

> <r_i_docking_score>
-8.75089986188507

> <r_i_glide_ligand_efficiency>
-0.416709517232623

> <r_i_glide_ligand_efficiency_sa>
-1.14966996045446

> <r_i_glide_ligand_efficiency_ln>
-2.16364230799292

> <r_i_glide_gscore>
-8.75089986188507

> <r_i_glide_lipo>
-4.99601960484576

> <r_i_glide_hbond>
0

> <r_i_glide_metal>
0

> <r_i_glide_rewards>
-2.47332604801436

> <r_i_glide_evdw>
-31.4055461883545

> <r_i_glide_ecoul>
0.344414591789246

> <r_i_glide_erotb>
0.237060911624379

> <r_i_glide_esite>
0

> <r_i_glide_emodel>
-42.0952713502573

> <r_i_glide_energy>
-31.0611315965652

> <r_i_glide_einternal>
1.26913702487946

> <i_i_glide_confnum>
1

> <i_i_glide_posenum>
329

> <r_i_glide_eff_state_penalty>
0

> <s_user_duplicate_titles>
125527

> <s_m_subgroup_title>
dock_pv

> <s_m_subgroupid>
dock_pv1

> <b_m_subgroup_collapsed>
0

$$$$
215738
                    3D
 Schrodinger Suite 2021-1.
 36 38  0  0  1  0            999 V2000
   32.7498    0.2662   30.8182 C   0  0  0  0  0  0
   33.7169    0.3654   29.8243 C   0  0  0  0  0  0
   33.5476   -0.3307   28.6337 C   0  0  0  0  0  0
   32.4003   -1.1026   28.4166 C   0  0  0  0  0  0
   31.4381   -1.2007   29.4232 C   0  0  0  0  0  0
   31.6235   -0.5283   30.6281 C   0  0  0  0  0  0
   32.2146   -1.7498   27.0923 C   0  0  0  0  0  0
   33.0326   -2.8272   26.7686 C   0  0  0  0  0  0
   33.0882   -3.3326   25.4758 C   0  0  0  0  0  0
   32.3065   -2.7739   24.4664 C   0  0  0  0  0  0
   31.3885   -1.7668   24.8190 C   0  0  0  0  0  0
   31.2974   -1.2801   26.1326 C   0  0  0  0  0  0
   30.2022   -0.3447   26.5102 C   0  0  0  0  0  0
   28.8742   -0.7726   26.4066 C   0  0  0  0  0  0
   27.8372    0.0174   26.8919 C   0  0  0  0  0  0
   28.1216    1.2540   27.4618 C   0  0  0  0  0  0
   29.4360    1.7028   27.5512 C   0  0  0  0  0  0
   30.4716    0.9108   27.0665 C   0  0  0  0  0  0
   32.4576   -3.2822   23.0966 C   0  0  0  0  0  0
   32.0596   -2.6342   22.0836 N   0  0  0  0  0  0
   32.2163   -3.3417   20.8771 O   0  0  0  0  0  0
   32.8793    0.8025   31.7466 H   0  0  0  0  0  0
   34.5956    0.9762   29.9727 H   0  0  0  0  0  0
   34.2998   -0.2413   27.8642 H   0  0  0  0  0  0
   30.5451   -1.7889   29.2675 H   0  0  0  0  0  0
   30.8711   -0.6011   31.4006 H   0  0  0  0  0  0
   33.6601   -3.2523   27.5351 H   0  0  0  0  0  0
   33.7728   -4.1412   25.2616 H   0  0  0  0  0  0
   30.7160   -1.3700   24.0705 H   0  0  0  0  0  0
   28.6446   -1.7420   25.9885 H   0  0  0  0  0  0
   26.8162   -0.3302   26.8274 H   0  0  0  0  0  0
   27.3146    1.8627   27.8414 H   0  0  0  0  0  0
   29.6592    2.6577   28.0034 H   0  0  0  0  0  0
   31.4907    1.2573   27.1589 H   0  0  0  0  0  0
   32.9313   -4.2594   23.0151 H   0  0  0  0  0  0
   32.4305   -4.2398   21.1495 H   0  0  0  0  0  0
  1  6  1  0  0  0
  1  2  2  0  0  0
  1 22  1  0  0  0
  2  3  1  0  0  0
  2 23  1  0  0  0
  3  4  2  0  0  0
  3 24  1  0  0  0
  4  5  1  0  0  0
  4  7  1  0  0  0
  5  6  2  0  0  0
  5 25  1  0  0  0
  6 26  1  0  0  0
  7 12  1  0  0  0
  7  8  2  0  0  0
  8  9  1  0  0  0
  8 27  1  0  0  0
  9 10  2  0  0  0
  9 28  1  0  0  0
 10 11  1  0  0  0
 10 19  1  0  0  0
 11 12  2  0  0  0
 11 29  1  0  0  0
 12 13  1  0  0  0
 13 18  1  0  0  0
 13 14  2  0  0  0
 14 15  1  0  0  0
 14 30  1  0  0  0
 15 16  2  0  0  0
 15 31  1  0  0  0
 16 17  1  0  0  0
 16 32  1  0  0  0
 17 18  2  0  0  0
 17 33  1  0  0  0
 18 34  1  0  0  0
 19 20  2  0  0  0
 19 35  1  0  0  0
 20 21  1  0  0  0
 21 36  1  0  0  0
M  END
> <s_m_entry_id>
17332

> <s_m_entry_name>
ligand_docking-pose.259

> <s_m_Source_Path>
/home/csk/Desktop/cluster/DUD-E-result/esr1

> <s_m_Source_File>
ligand_docking-pose.sdf

> <i_m_Source_File_Index>
259

> <i_lp_mmshare_version>
53161

> <i_f3d_flags>
0

> <r_lp_tautomer_probability>
1

> <s_lp_Force_Field>
OPLS_2005

> <r_lp_Energy>
24.743568

> <b_lp_Chiralities_Consistent>
1

> <s_lp_Variant>
215738-1

> <s_i_glide_gridfile>
glide-grid_1sj0

> <i_i_glide_lignum>
335

> <i_i_glide_rotatable_bonds>
4

> <r_i_docking_score>
-8.74768352471383

> <r_i_glide_ligand_efficiency>
-0.416556358319706

> <r_i_glide_ligand_efficiency_sa>
-1.14924740662721

> <r_i_glide_ligand_efficiency_ln>
-2.16284707512655

> <r_i_glide_gscore>
-8.74768352471383

> <r_i_glide_lipo>
-4.92632267983926

> <r_i_glide_hbond>
0

> <r_i_glide_metal>
0

> <r_i_glide_rewards>
-2.74701196577691

> <r_i_glide_evdw>
-36.7194023132324

> <r_i_glide_ecoul>
-0.840293705463409

> <r_i_glide_erotb>
0.960395269726714

> <r_i_glide_esite>
-0.0727299773432404

> <r_i_glide_emodel>
-49.9029773238253

> <r_i_glide_energy>
-37.5596960186958

> <r_i_glide_einternal>
4.15170526504517

> <i_i_glide_confnum>
12

> <i_i_glide_posenum>
117

> <r_i_glide_eff_state_penalty>
0

> <s_user_duplicate_titles>
215738

> <s_m_subgroup_title>
dock_pv

> <s_m_subgroupid>
dock_pv1

> <b_m_subgroup_collapsed>
0

$$$$
394990
                    3D
 Schrodinger Suite 2021-1.
 30 32  0  0  1  0            999 V2000
   32.5602    0.7217   26.6640 C   0  0  0  0  0  0
   33.7143    1.4919   26.7076 C   0  0  0  0  0  0
   34.5065    1.4725   27.8510 C   0  0  0  0  0  0
   34.1458    0.7068   28.9578 C   0  0  0  0  0  0
   32.9593   -0.0228   28.9273 C   0  0  0  0  0  0
   32.1551    0.0006   27.7833 C   0  0  0  0  0  0
   30.8660   -0.7187   27.7344 C   0  0  0  0  0  0
   30.8412   -2.1030   27.7852 C   0  0  0  0  0  0
   29.6464   -2.8037   27.7402 C   0  0  0  0  0  0
   28.4184   -2.1813   27.5835 C   0  0  0  0  0  0
   28.4209   -0.7727   27.5549 C   0  0  0  0  0  0
   29.6430   -0.0275   27.6237 C   0  0  0  0  0  0
   29.4104    1.3723   27.5703 C   0  0  0  0  0  0
   28.0817    1.6759   27.4640 C   0  0  0  0  0  0
   27.0307    0.3016   27.4640 S   0  0  0  0  0  0
   27.2159   -3.0101   27.5325 C   0  0  0  0  0  0
   26.2207   -2.7424   28.2640 N   0  0  0  0  0  0
   25.2600   -3.7420   28.2640 O   0  0  0  0  0  0
   35.6600    2.2009   27.8640 O   0  0  0  0  0  0
   31.9734    0.6580   25.7607 H   0  0  0  0  0  0
   34.0222    2.0640   25.8447 H   0  0  0  0  0  0
   34.7683    0.6895   29.8403 H   0  0  0  0  0  0
   32.6603   -0.5955   29.7933 H   0  0  0  0  0  0
   31.7795   -2.6313   27.8640 H   0  0  0  0  0  0
   29.6602   -3.8712   27.8640 H   0  0  0  0  0  0
   30.1985    2.1086   27.6077 H   0  0  0  0  0  0
   27.6600    2.6580   27.3961 H   0  0  0  0  0  0
   27.2710   -3.8839   26.8853 H   0  0  0  0  0  0
   25.2549   -4.0313   27.3372 H   0  0  0  0  0  0
   36.3291    1.8580   28.4718 H   0  0  0  0  0  0
  1  6  1  0  0  0
  1  2  2  0  0  0
  1 20  1  0  0  0
  2  3  1  0  0  0
  2 21  1  0  0  0
  3  4  2  0  0  0
  3 19  1  0  0  0
  4  5  1  0  0  0
  4 22  1  0  0  0
  5  6  2  0  0  0
  5 23  1  0  0  0
  6  7  1  0  0  0
  7 12  1  0  0  0
  7  8  2  0  0  0
  8  9  1  0  0  0
  8 24  1  0  0  0
  9 10  2  0  0  0
  9 25  1  0  0  0
 10 11  1  0  0  0
 10 16  1  0  0  0
 11 15  1  0  0  0
 11 12  2  0  0  0
 12 13  1  0  0  0
 13 14  2  0  0  0
 13 26  1  0  0  0
 14 15  1  0  0  0
 14 27  1  0  0  0
 16 17  2  0  0  0
 16 28  1  0  0  0
 17 18  1  0  0  0
 18 29  1  0  0  0
 19 30  1  0  0  0
M  END
> <s_m_entry_id>
17333

> <s_m_entry_name>
ligand_docking-pose.260

> <s_m_Source_Path>
/home/csk/Desktop/cluster/DUD-E-result/esr1

> <s_m_Source_File>
ligand_docking-pose.sdf

> <i_m_Source_File_Index>
260

> <i_lp_mmshare_version>
53161

> <i_f3d_flags>
0

> <r_lp_tautomer_probability>
0.999999999997365

> <s_lp_Force_Field>
OPLS_2005

> <r_lp_Energy>
19.50921

> <b_lp_Chiralities_Consistent>
1

> <s_lp_Variant>
394990-1

> <s_i_glide_gridfile>
glide-grid_1sj0

> <i_i_glide_lignum>
332

> <i_i_glide_rotatable_bonds>
4

> <r_i_docking_score>
-8.74640622025357

> <r_i_glide_ligand_efficiency>
-0.46033716948703

> <r_i_glide_ligand_efficiency_sa>
-1.22836446082157

> <r_i_glide_ligand_efficiency_ln>
-2.21740183241519

> <r_i_glide_gscore>
-8.74640622025357

> <r_i_glide_lipo>
-3.89236816795374

> <r_i_glide_hbond>
-0.440958991687708

> <r_i_glide_metal>
0

> <r_i_glide_rewards>
-2.54638254087983

> <r_i_glide_evdw>
-28.9775390625

> <r_i_glide_ecoul>
-6.85223817825317

> <r_i_glide_erotb>
0.738954582708748

> <r_i_glide_esite>
-0.128938422578068

> <r_i_glide_emodel>
-48.074542013671

> <r_i_glide_energy>
-35.8297772407532

> <r_i_glide_einternal>
6.02503299713135

> <i_i_glide_confnum>
14

> <i_i_glide_posenum>
247

> <r_i_glide_eff_state_penalty>
0

> <s_user_duplicate_titles>
394990

> <s_m_subgroup_title>
dock_pv

> <s_m_subgroupid>
dock_pv1

> <b_m_subgroup_collapsed>
0

$$$$
159702
                    3D
 Schrodinger Suite 2021-1.
 54 59  0  0  1  0            999 V2000
   33.9926   -4.0686   17.4156 C   0  0  0  0  0  0
   34.3581   -4.9975   18.3852 C   0  0  0  0  0  0
   34.0670   -4.7480   19.7244 C   0  0  0  0  0  0
   33.4013   -3.5774   20.1123 C   0  0  0  0  0  0
   33.0402   -2.6616   19.1160 C   0  0  0  0  0  0
   33.3379   -2.8975   17.7813 C   0  0  0  0  0  0
   33.1046   -3.2831   21.5484 C   0  0  0  0  0  0
   33.9721   -3.6772   22.5633 C   0  0  0  0  0  0
   33.7181   -3.3404   23.8977 C   0  0  0  0  0  0
   32.6119   -2.5481   24.2491 C   0  0  0  0  0  0
   31.7520   -2.1473   23.2205 C   0  0  0  0  0  0
   31.9717   -2.5590   21.9102 C   0  0  0  0  0  0
   32.4060   -2.1393   25.6941 C   0  0  0  0  0  0
   33.2597   -2.4058   26.5417 O   0  0  0  0  0  0
   31.1633   -1.4793   26.1518 C   0  0  0  0  0  0
   30.8386   -0.7499   27.2990 C   0  0  0  0  0  0
   29.4193   -0.5748   27.2938 C   0  0  0  0  0  0
   28.4723    0.0590   28.1084 C   0  0  0  0  0  0
   27.1187   -0.1896   27.8637 C   0  0  0  0  0  0
   26.6993   -1.0658   26.8743 C   0  0  0  0  0  0
   27.6158   -1.6531   26.0125 C   0  0  0  0  0  0
   28.9694   -1.3411   26.2182 C   0  0  0  0  0  0
   30.0299   -1.7420   25.4631 O   0  0  0  0  0  0
   25.3673   -1.3415   26.7691 O   0  0  0  0  0  0
   31.7008   -0.3474   28.4144 C   0  0  0  0  0  0
   31.3156   -0.8396   29.6569 C   0  0  0  0  0  0
   32.0092   -0.4991   30.7974 C   0  0  0  0  0  0
   33.1452    0.2884   30.7101 C   0  0  0  0  0  0
   33.6204    0.7385   29.4574 C   0  0  0  0  0  0
   32.8451    0.4792   28.2891 C   0  0  0  0  0  0
   33.2365    1.0714   27.0608 C   0  0  0  0  0  0
   34.3771    1.8577   26.9963 C   0  0  0  0  0  0
   35.1769    2.0288   28.1140 C   0  0  0  0  0  0
   34.8283    1.4580   29.3334 C   0  0  0  0  0  0
   34.2201   -4.2572   16.3768 H   0  0  0  0  0  0
   34.8666   -5.9080   18.1051 H   0  0  0  0  0  0
   34.3717   -5.4805   20.4565 H   0  0  0  0  0  0
   32.5391   -1.7419   19.3666 H   0  0  0  0  0  0
   33.0584   -2.1607   17.0482 H   0  0  0  0  0  0
   34.8578   -4.2276   22.2794 H   0  0  0  0  0  0
   34.4150   -3.6731   24.6545 H   0  0  0  0  0  0
   30.8955   -1.5188   23.3953 H   0  0  0  0  0  0
   31.2599   -2.2830   21.1493 H   0  0  0  0  0  0
   28.7892    0.6848   28.9305 H   0  0  0  0  0  0
   26.3606    0.2575   28.4766 H   0  0  0  0  0  0
   27.2900   -2.3154   25.2257 H   0  0  0  0  0  0
   25.1613   -2.0981   26.1931 H   0  0  0  0  0  0
   30.4603   -1.4922   29.7481 H   0  0  0  0  0  0
   31.6608   -0.8739   31.7464 H   0  0  0  0  0  0
   33.6600    0.5506   31.6163 H   0  0  0  0  0  0
   32.6435    0.9190   26.1718 H   0  0  0  0  0  0
   34.6562    2.3182   26.0616 H   0  0  0  0  0  0
   36.0601    2.6382   28.0404 H   0  0  0  0  0  0
   35.4444    1.6224   30.2044 H   0  0  0  0  0  0
  1  6  1  0  0  0
  1  2  2  0  0  0
  1 35  1  0  0  0
  2  3  1  0  0  0
  2 36  1  0  0  0
  3  4  2  0  0  0
  3 37  1  0  0  0
  4  5  1  0  0  0
  4  7  1  0  0  0
  5  6  2  0  0  0
  5 38  1  0  0  0
  6 39  1  0  0  0
  7 12  1  0  0  0
  7  8  2  0  0  0
  8  9  1  0  0  0
  8 40  1  0  0  0
  9 10  2  0  0  0
  9 41  1  0  0  0
 10 11  1  0  0  0
 10 13  1  0  0  0
 11 12  2  0  0  0
 11 42  1  0  0  0
 12 43  1  0  0  0
 13 14  2  0  0  0
 13 15  1  0  0  0
 15 23  1  0  0  0
 15 16  2  0  0  0
 16 17  1  0  0  0
 16 25  1  0  0  0
 17 22  2  0  0  0
 17 18  1  0  0  0
 18 19  2  0  0  0
 18 44  1  0  0  0
 19 20  1  0  0  0
 19 45  1  0  0  0
 20 21  2  0  0  0
 20 24  1  0  0  0
 21 22  1  0  0  0
 21 46  1  0  0  0
 22 23  1  0  0  0
 24 47  1  0  0  0
 25 30  1  0  0  0
 25 26  2  0  0  0
 26 27  1  0  0  0
 26 48  1  0  0  0
 27 28  2  0  0  0
 27 49  1  0  0  0
 28 29  1  0  0  0
 28 50  1  0  0  0
 29 34  2  0  0  0
 29 30  1  0  0  0
 30 31  2  0  0  0
 31 32  1  0  0  0
 31 51  1  0  0  0
 32 33  2  0  0  0
 32 52  1  0  0  0
 33 34  1  0  0  0
 33 53  1  0  0  0
 34 54  1  0  0  0
M  END
> <s_m_entry_id>
17334

> <s_m_entry_name>
ligand_docking-pose.261

> <s_m_Source_Path>
/home/csk/Desktop/cluster/DUD-E-result/esr1

> <s_m_Source_File>
ligand_docking-pose.sdf

> <i_m_Source_File_Index>
261

> <i_lp_mmshare_version>
53161

> <i_f3d_flags>
0

> <r_lp_tautomer_probability>
1

> <s_lp_Force_Field>
OPLS_2005

> <r_lp_Energy>
34.221508

> <b_lp_Chiralities_Consistent>
1

> <s_lp_Variant>
159702-1

> <s_i_glide_gridfile>
glide-grid_1sj0

> <i_i_glide_lignum>
343

> <i_i_glide_rotatable_bonds>
5

> <r_i_docking_score>
-8.74624432135436

> <r_i_glide_ligand_efficiency>
-0.257242480039834

> <r_i_glide_ligand_efficiency_sa>
-0.833365773147351

> <r_i_glide_ligand_efficiency_ln>
-1.93229069443072

> <r_i_glide_gscore>
-8.74624432135436

> <r_i_glide_lipo>
-4.62968671176263

> <r_i_glide_hbond>
-0.182243041126607

> <r_i_glide_metal>
0

> <r_i_glide_rewards>
-1.75505284937302

> <r_i_glide_evdw>
-35.158863067627

> <r_i_glide_ecoul>
-4.72972011566162

> <r_i_glide_erotb>
0.288139451638489

> <r_i_glide_esite>
0

> <r_i_glide_emodel>
-43.9364557055942

> <r_i_glide_energy>
-39.8885831832886

> <r_i_glide_einternal>
3.76785087585449

> <i_i_glide_confnum>
6

> <i_i_glide_posenum>
41

> <r_i_glide_eff_state_penalty>
0

> <s_user_duplicate_titles>
159702

> <s_m_subgroup_title>
dock_pv

> <s_m_subgroupid>
dock_pv1

> <b_m_subgroup_collapsed>
0

$$$$
357574
                    3D
 Schrodinger Suite 2021-1.
 40 43  0  0  1  0            999 V2000
   34.0401   -0.1566   29.1033 C   0  0  0  0  0  0
   32.7092   -0.6500   29.6940 C   0  0  0  0  0  0
   31.4661   -0.0951   28.9762 C   0  0  0  0  0  0
   30.9897   -0.5749   27.7890 C   0  0  0  0  0  0
   31.5625   -1.5787   26.8648 C   0  0  0  0  0  0
   32.5063   -2.5864   27.0637 C   0  0  0  0  0  0
   33.0112   -3.3428   26.0137 C   0  0  0  0  0  0
   32.6735   -2.9531   24.7275 C   0  0  0  0  0  0
   31.7414   -1.9257   24.4931 C   0  0  0  0  0  0
   31.1001   -1.2996   25.5780 C   0  0  0  0  0  0
   29.9863   -0.2901   25.5981 C   0  0  0  0  0  0
   29.7229   -0.0340   27.0945 C   0  0  2  0  0  0
   29.6395    1.4777   27.4001 C   0  0  0  0  0  0
   29.7081    1.7958   28.9039 C   0  0  0  0  0  0
   30.8592    1.0846   29.6368 C   0  0  0  0  0  0
   31.1762    1.4536   30.7684 O   0  0  0  0  0  0
   28.4272   -0.7529   27.6013 C   0  0  0  0  0  0
   28.2808   -2.2606   27.3192 C   0  0  0  0  0  0
   31.6582   -1.7419   23.1491 N   0  0  0  0  0  0
   32.4593   -2.6720   22.5296 N   0  0  0  0  0  0
   33.0582   -3.4001   23.4790 N   0  0  0  0  0  0
   33.6835   -4.1544   23.2350 H   0  0  0  0  0  0
   34.8882   -0.6113   29.6149 H   0  0  0  0  0  0
   34.1266   -0.4009   28.0439 H   0  0  0  0  0  0
   34.1373    0.9254   29.2036 H   0  0  0  0  0  0
   32.7047   -0.4206   30.7614 H   0  0  0  0  0  0
   32.6723   -1.7329   29.7010 H   0  0  0  0  0  0
   32.8606   -2.8508   28.0414 H   0  0  0  0  0  0
   33.6600   -4.1707   26.1942 H   0  0  0  0  0  0
   29.0982   -0.6567   25.0847 H   0  0  0  0  0  0
   30.2543    0.6243   25.0832 H   0  0  0  0  0  0
   28.7277    1.8970   26.9730 H   0  0  0  0  0  0
   30.4632    1.9890   26.9070 H   0  0  0  0  0  0
   29.7615    2.8696   29.0640 H   0  0  0  0  0  0
   28.8023    1.4375   29.3790 H   0  0  0  0  0  0
   28.3409   -0.6195   28.6773 H   0  0  0  0  0  0
   27.5533   -0.2521   27.1816 H   0  0  0  0  0  0
   27.4279   -2.6698   27.8609 H   0  0  0  0  0  0
   28.0931   -2.4496   26.2644 H   0  0  0  0  0  0
   29.1609   -2.8279   27.6238 H   0  0  0  0  0  0
  1  2  1  0  0  0
  1 23  1  0  0  0
  1 24  1  0  0  0
  1 25  1  0  0  0
  2  3  1  0  0  0
  2 26  1  0  0  0
  2 27  1  0  0  0
  3 15  1  0  0  0
  3  4  2  0  0  0
  4 12  1  0  0  0
  4  5  1  0  0  0
  5 10  2  0  0  0
  5  6  1  0  0  0
  6  7  2  0  0  0
  6 28  1  0  0  0
  7  8  1  0  0  0
  7 29  1  0  0  0
  8 21  1  0  0  0
  8  9  2  0  0  0
  9 10  1  0  0  0
  9 19  1  0  0  0
 10 11  1  0  0  0
 11 12  1  0  0  0
 11 30  1  0  0  0
 11 31  1  0  0  0
 12 13  1  0  0  0
 12 17  1  0  0  0
 13 14  1  0  0  0
 13 32  1  0  0  0
 13 33  1  0  0  0
 14 15  1  0  0  0
 14 34  1  0  0  0
 14 35  1  0  0  0
 15 16  2  0  0  0
 17 18  1  0  0  0
 17 36  1  0  0  0
 17 37  1  0  0  0
 18 38  1  0  0  0
 18 39  1  0  0  0
 18 40  1  0  0  0
 19 20  2  0  0  0
 20 21  1  0  0  0
 21 22  1  0  0  0
M  END
> <s_m_entry_id>
17335

> <s_m_entry_name>
ligand_docking-pose.262

> <s_m_Source_Path>
/home/csk/Desktop/cluster/DUD-E-result/esr1

> <s_m_Source_File>
ligand_docking-pose.sdf

> <i_m_Source_File_Index>
262

> <i_lp_mmshare_version>
53161

> <i_f3d_flags>
0

> <r_lp_tautomer_probability>
0.25

> <s_lp_Force_Field>
OPLS_2005

> <r_lp_Energy>
45.447062

> <b_lp_Chiralities_Consistent>
1

> <s_lp_Variant>
357574-2

> <s_i_glide_gridfile>
glide-grid_1sj0

> <i_i_glide_lignum>
1104

> <i_i_glide_rotatable_bonds>
2

> <r_i_docking_score>
-8.74556667199481

> <r_i_glide_ligand_efficiency>
-0.416455555809277

> <r_i_glide_ligand_efficiency_sa>
-1.14896930014443

> <r_i_glide_ligand_efficiency_ln>
-2.16232368756928

> <r_i_glide_gscore>
-8.74556667199481

> <r_i_glide_lipo>
-4.35698781189614

> <r_i_glide_hbond>
0

> <r_i_glide_metal>
0

> <r_i_glide_rewards>
-2.77619324141199

> <r_i_glide_evdw>
-31.3077640533447

> <r_i_glide_ecoul>
-0.313316106796265

> <r_i_glide_erotb>
0

> <r_i_glide_esite>
0

> <r_i_glide_emodel>
-46.2925250189413

> <r_i_glide_energy>
-31.621080160141

> <r_i_glide_einternal>
0.60345733165741

> <i_i_glide_confnum>
1

> <i_i_glide_posenum>
68

> <r_i_glide_eff_state_penalty>
0

> <s_user_duplicate_titles>
357574,357536

> <s_m_subgroup_title>
dock_pv

> <s_m_subgroupid>
dock_pv1

> <b_m_subgroup_collapsed>
0

$$$$
286674
                    3D
 Schrodinger Suite 2021-1.
 40 42  0  0  1  0            999 V2000
   30.9415    1.0592   31.0143 C   0  0  0  0  0  0
   31.7555    0.8415   29.8259 N   0  0  0  0  0  0
   33.0796    0.7494   29.8430 C   0  0  0  0  0  0
   33.5583    0.6086   28.6130 N   0  3  0  0  0  0
   32.4797    0.4859   27.6272 C   0  0  2  0  0  0
   31.2163    0.7786   28.4613 C   0  0  1  0  0  0
   30.0227   -0.1560   28.2045 C   0  0  0  0  0  0
   30.0546   -1.4823   28.6641 C   0  0  0  0  0  0
   29.1225   -2.4159   28.2228 C   0  0  0  0  0  0
   28.1250   -2.0273   27.3415 C   0  0  0  0  0  0
   28.0233   -0.6994   26.9407 C   0  0  0  0  0  0
   28.9693    0.2371   27.3594 C   0  0  0  0  0  0
   28.8331    1.8535   26.7608 Cl  0  0  0  0  0  0
   27.2603   -2.9586   26.8468 O   0  0  0  0  0  0
   32.4675   -0.7585   26.6974 C   0  0  0  0  0  0
   32.0600   -0.5324   25.3829 C   0  0  0  0  0  0
   32.0632   -1.5299   24.4187 C   0  0  0  0  0  0
   32.5184   -2.7954   24.7520 C   0  0  0  0  0  0
   32.8609   -3.0815   26.0723 C   0  0  0  0  0  0
   32.8286   -2.0806   27.0541 C   0  0  0  0  0  0
   33.2603   -2.5420   28.6677 Cl  0  0  0  0  0  0
   32.6586   -3.7413   23.7714 O   0  0  0  0  0  0
   34.9717    0.5100   28.2646 C   0  0  0  0  0  0
   32.6510    1.3470   26.9759 H   0  0  0  0  0  0
   30.9082    1.8099   28.2793 H   0  0  0  0  0  0
   31.4700    1.7475   31.6737 H   0  0  0  0  0  0
   29.9625    1.4552   30.7451 H   0  0  0  0  0  0
   30.8564    0.0751   31.4646 H   0  0  0  0  0  0
   33.6723    0.8081   30.7423 H   0  0  0  0  0  0
   30.8367   -1.8142   29.3294 H   0  0  0  0  0  0
   29.1958   -3.4429   28.5431 H   0  0  0  0  0  0
   27.2326   -0.4108   26.2616 H   0  0  0  0  0  0
   27.4842   -3.8664   27.0578 H   0  0  0  0  0  0
   31.7703    0.4540   25.0713 H   0  0  0  0  0  0
   31.7917   -1.2883   23.4010 H   0  0  0  0  0  0
   33.1748   -4.0821   26.3210 H   0  0  0  0  0  0
   32.3924   -3.4426   22.8996 H   0  0  0  0  0  0
   35.1547    1.0337   27.3249 H   0  0  0  0  0  0
   35.5612    0.9768   29.0525 H   0  0  0  0  0  0
   35.2488   -0.5412   28.1909 H   0  0  0  0  0  0
  1  2  1  0  0  0
  1 26  1  0  0  0
  1 27  1  0  0  0
  1 28  1  0  0  0
  2  6  1  0  0  0
  2  3  1  0  0  0
  3  4  2  0  0  0
  3 29  1  0  0  0
  4  5  1  0  0  0
  4 23  1  0  0  0
  5 24  1  0  0  0
  5  6  1  0  0  0
  5 15  1  0  0  0
  6 25  1  0  0  0
  6  7  1  0  0  0
  7 12  1  0  0  0
  7  8  2  0  0  0
  8  9  1  0  0  0
  8 30  1  0  0  0
  9 10  2  0  0  0
  9 31  1  0  0  0
 10 11  1  0  0  0
 10 14  1  0  0  0
 11 12  2  0  0  0
 11 32  1  0  0  0
 12 13  1  0  0  0
 14 33  1  0  0  0
 15 20  1  0  0  0
 15 16  2  0  0  0
 16 17  1  0  0  0
 16 34  1  0  0  0
 17 18  2  0  0  0
 17 35  1  0  0  0
 18 19  1  0  0  0
 18 22  1  0  0  0
 19 20  2  0  0  0
 19 36  1  0  0  0
 20 21  1  0  0  0
 22 37  1  0  0  0
 23 38  1  0  0  0
 23 39  1  0  0  0
 23 40  1  0  0  0
M  CHG  1   4   1
M  END
> <s_m_entry_id>
17337

> <s_m_entry_name>
ligand_docking-pose.264

> <s_m_Source_Path>
/home/csk/Desktop/cluster/DUD-E-result/esr1

> <s_m_Source_File>
ligand_docking-pose.sdf

> <i_m_Source_File_Index>
264

> <i_lp_mmshare_version>
53161

> <i_f3d_flags>
0

> <r_lp_tautomer_probability>
0.99999999999473

> <s_lp_Force_Field>
OPLS_2005

> <r_lp_Energy>
28.838581

> <b_lp_Chiralities_Consistent>
1

> <s_lp_Variant>
286674-1

> <s_i_glide_gridfile>
glide-grid_1sj0

> <i_i_glide_lignum>
1694

> <i_i_glide_rotatable_bonds>
4

> <r_i_docking_score>
-8.74106908923762

> <r_i_glide_ligand_efficiency>
-0.380046482140766

> <r_i_glide_ligand_efficiency_sa>
-1.08080164023926

> <r_i_glide_ligand_efficiency_ln>
-2.11366976541006

> <r_i_glide_gscore>
-8.74106908923762

> <r_i_glide_lipo>
-4.35252529541648

> <r_i_glide_hbond>
0

> <r_i_glide_metal>
0

> <r_i_glide_rewards>
-2.59953051600308

> <r_i_glide_evdw>
-38.778491973877

> <r_i_glide_ecoul>
-1.05132496356964

> <r_i_glide_erotb>
0.307610065411229

> <r_i_glide_esite>
0

> <r_i_glide_emodel>
-56.439731551642

> <r_i_glide_energy>
-39.8298169374466

> <r_i_glide_einternal>
9.03729915618896

> <i_i_glide_confnum>
2

> <i_i_glide_posenum>
97

> <r_i_glide_eff_state_penalty>
0

> <s_user_duplicate_titles>
286674

> <s_m_subgroup_title>
dock_pv

> <s_m_subgroupid>
dock_pv1

> <b_m_subgroup_collapsed>
0

$$$$
568792
                    3D
 Schrodinger Suite 2021-1.
 39 40  0  0  1  0            999 V2000
   31.7778    1.1878   31.1417 C   0  0  0  0  0  0
   31.2178    0.7642   29.7768 C   0  0  0  0  0  0
   31.4142   -0.7432   29.5081 C   0  0  0  0  0  0
   31.0778   -1.2649   28.0852 C   0  0  2  0  0  0
   31.9398   -0.6066   26.9766 C   0  0  0  0  0  0
   32.1827   -1.5146   25.7765 C   0  0  0  0  0  0
   31.5050   -1.3196   24.5705 C   0  0  0  0  0  0
   31.7858   -2.1420   23.4791 C   0  0  0  0  0  0
   32.7385   -3.1495   23.5934 C   0  0  0  0  0  0
   33.4119   -3.3421   24.7920 C   0  0  0  0  0  0
   33.1209   -2.5420   25.8887 C   0  0  0  0  0  0
   33.0088   -3.9764   22.5370 O   0  0  0  0  0  0
   29.5796   -1.2782   27.7464 C   0  0  0  0  0  0
   28.9119   -2.4990   27.5899 C   0  0  0  0  0  0
   27.5660   -2.5257   27.2292 C   0  0  0  0  0  0
   26.8796   -1.3292   27.0412 C   0  0  0  0  0  0
   27.5263   -0.1090   27.2151 C   0  0  0  0  0  0
   28.8770   -0.0830   27.5512 C   0  0  0  0  0  0
   25.5647   -1.3420   26.6637 O   0  0  0  0  0  0
   31.6598    2.2577   31.3027 H   0  0  0  0  0  0
   31.2601    0.6733   31.9499 H   0  0  0  0  0  0
   32.8416    0.9609   31.2264 H   0  0  0  0  0  0
   31.7065    1.3507   28.9986 H   0  0  0  0  0  0
   30.1597    1.0230   29.7417 H   0  0  0  0  0  0
   30.8600   -1.3236   30.2462 H   0  0  0  0  0  0
   32.4611   -0.9851   29.7045 H   0  0  0  0  0  0
   31.3975   -2.3067   28.1217 H   0  0  0  0  0  0
   31.5214    0.3502   26.6598 H   0  0  0  0  0  0
   32.9233   -0.3504   27.3766 H   0  0  0  0  0  0
   30.7659   -0.5372   24.4760 H   0  0  0  0  0  0
   31.2602   -2.0144   22.5494 H   0  0  0  0  0  0
   34.1348   -4.1400   24.8770 H   0  0  0  0  0  0
   33.6416   -2.7079   26.8199 H   0  0  0  0  0  0
   32.3989   -3.9006   21.7994 H   0  0  0  0  0  0
   29.4374   -3.4328   27.7227 H   0  0  0  0  0  0
   27.0634   -3.4718   27.0882 H   0  0  0  0  0  0
   26.9863    0.8143   27.0640 H   0  0  0  0  0  0
   29.3745    0.8703   27.6439 H   0  0  0  0  0  0
   25.2669   -2.2036   26.3056 H   0  0  0  0  0  0
  1  2  1  0  0  0
  1 20  1  0  0  0
  1 21  1  0  0  0
  1 22  1  0  0  0
  2  3  1  0  0  0
  2 23  1  0  0  0
  2 24  1  0  0  0
  3  4  1  0  0  0
  3 25  1  0  0  0
  3 26  1  0  0  0
  4  5  1  0  0  0
  4 13  1  0  0  0
  4 27  1  0  0  0
  5  6  1  0  0  0
  5 28  1  0  0  0
  5 29  1  0  0  0
  6 11  1  0  0  0
  6  7  2  0  0  0
  7  8  1  0  0  0
  7 30  1  0  0  0
  8  9  2  0  0  0
  8 31  1  0  0  0
  9 10  1  0  0  0
  9 12  1  0  0  0
 10 11  2  0  0  0
 10 32  1  0  0  0
 11 33  1  0  0  0
 12 34  1  0  0  0
 13 18  1  0  0  0
 13 14  2  0  0  0
 14 15  1  0  0  0
 14 35  1  0  0  0
 15 16  2  0  0  0
 15 36  1  0  0  0
 16 17  1  0  0  0
 16 19  1  0  0  0
 17 18  2  0  0  0
 17 37  1  0  0  0
 18 38  1  0  0  0
 19 39  1  0  0  0
M  END
> <s_m_entry_id>
17338

> <s_m_entry_name>
ligand_docking-pose.265

> <s_m_Source_Path>
/home/csk/Desktop/cluster/DUD-E-result/esr1

> <s_m_Source_File>
ligand_docking-pose.sdf

> <i_m_Source_File_Index>
265

> <i_lp_mmshare_version>
53161

> <i_f3d_flags>
0

> <r_lp_tautomer_probability>
0.99999999999473

> <s_lp_Force_Field>
OPLS_2005

> <r_lp_Energy>
9.862979

> <b_lp_Chiralities_Consistent>
1

> <s_lp_Variant>
568792-1

> <s_i_glide_gridfile>
glide-grid_1sj0

> <i_i_glide_lignum>
1429

> <i_i_glide_rotatable_bonds>
7

> <r_i_docking_score>
-8.74006704761683

> <r_i_glide_ligand_efficiency>
-0.460003528821938

> <r_i_glide_ligand_efficiency_sa>
-1.22747417352163

> <r_i_glide_ligand_efficiency_ln>
-2.21579471599883

> <r_i_glide_gscore>
-8.74006704761683

> <r_i_glide_lipo>
-4.34278186754161

> <r_i_glide_hbond>
-0.16

> <r_i_glide_metal>
0

> <r_i_glide_rewards>
-2.51154707067826

> <r_i_glide_evdw>
-33.6806640625

> <r_i_glide_ecoul>
-5.28475332260132

> <r_i_glide_erotb>
0.751008092118239

> <r_i_glide_esite>
0

> <r_i_glide_emodel>
-59.5512756923873

> <r_i_glide_energy>
-38.9654173851013

> <r_i_glide_einternal>
3.41811275482178

> <i_i_glide_confnum>
26

> <i_i_glide_posenum>
228

> <r_i_glide_eff_state_penalty>
0

> <s_user_duplicate_titles>
568792

> <s_m_subgroup_title>
dock_pv

> <s_m_subgroupid>
dock_pv1

> <b_m_subgroup_collapsed>
0

$$$$
14691
                    3D
 Schrodinger Suite 2021-1.
 44 47  0  0  1  0            999 V2000
   26.8749    0.3853   27.4640 C   0  0  0  0  0  0
   28.1346    0.9114   27.6610 C   0  0  0  0  0  0
   29.2665    0.2501   27.1952 C   0  0  0  0  0  0
   29.0923   -0.9063   26.3920 C   0  0  0  0  0  0
   27.8063   -1.4552   26.2640 C   0  0  0  0  0  0
   26.6984   -0.8268   26.8185 C   0  0  0  0  0  0
   25.4352   -1.3420   26.7063 O   0  0  0  0  0  0
   30.2843   -1.5703   25.6975 C   0  0  0  0  0  0
   31.5621   -0.7250   25.7803 C   0  0  0  0  0  0
   31.7373   -0.2643   27.2281 C   0  0  2  0  0  0
   30.6535    0.7797   27.5750 C   0  0  2  0  0  0
   30.7686    1.1892   29.0711 C   0  0  0  0  0  0
   32.1961    1.6181   29.4514 C   0  0  0  0  0  0
   33.2918    0.5831   29.0531 C   0  0  1  0  0  0
   33.1537    0.2361   27.5557 C   0  0  2  0  0  0
   33.7073    1.4629   26.8141 C   0  0  0  0  0  0
   34.8350    1.9845   27.7192 C   0  0  0  0  0  0
   34.6909    1.2368   29.0587 C   0  0  0  0  0  0
   33.2045   -0.6607   29.9808 C   0  0  0  0  0  0
   33.8996   -1.7801   29.4640 O   0  0  0  0  0  0
   26.0600    0.9407   27.8640 H   0  0  0  0  0  0
   28.2202    1.8340   28.2141 H   0  0  0  0  0  0
   27.6598   -2.3694   25.7098 H   0  0  0  0  0  0
   25.3382   -2.2077   26.2640 H   0  0  0  0  0  0
   30.4603   -2.5421   26.1617 H   0  0  0  0  0  0
   30.0567   -1.7420   24.6475 H   0  0  0  0  0  0
   32.3991   -1.3650   25.4963 H   0  0  0  0  0  0
   31.6022    0.1095   25.0796 H   0  0  0  0  0  0
   31.5772   -1.1455   27.8544 H   0  0  0  0  0  0
   30.8020    1.6701   26.9651 H   0  0  0  0  0  0
   30.1208    2.0383   29.2863 H   0  0  0  0  0  0
   30.4590    0.3665   29.7137 H   0  0  0  0  0  0
   32.3634    2.5541   28.9203 H   0  0  0  0  0  0
   32.2656    1.8583   30.5131 H   0  0  0  0  0  0
   33.8113   -0.6050   27.3587 H   0  0  0  0  0  0
   34.0600    1.2001   25.8239 H   0  0  0  0  0  0
   32.9486    2.2314   26.6702 H   0  0  0  0  0  0
   35.8182    1.8100   27.2779 H   0  0  0  0  0  0
   34.7327    3.0580   27.8641 H   0  0  0  0  0  0
   34.8600    1.8580   29.9374 H   0  0  0  0  0  0
   35.4607    0.4650   29.1174 H   0  0  0  0  0  0
   33.5467   -0.4060   30.9825 H   0  0  0  0  0  0
   32.1715   -0.9773   30.1135 H   0  0  0  0  0  0
   34.8256   -1.7115   29.7134 H   0  0  0  0  0  0
  1  6  1  0  0  0
  1  2  2  0  0  0
  1 21  1  0  0  0
  2  3  1  0  0  0
  2 22  1  0  0  0
  3 11  1  0  0  0
  3  4  2  0  0  0
  4  5  1  0  0  0
  4  8  1  0  0  0
  5  6  2  0  0  0
  5 23  1  0  0  0
  6  7  1  0  0  0
  7 24  1  0  0  0
  8  9  1  0  0  0
  8 25  1  0  0  0
  8 26  1  0  0  0
  9 10  1  0  0  0
  9 27  1  0  0  0
  9 28  1  0  0  0
 10 15  1  0  0  0
 10 11  1  0  0  0
 10 29  1  0  0  0
 11 12  1  0  0  0
 11 30  1  0  0  0
 12 13  1  0  0  0
 12 31  1  0  0  0
 12 32  1  0  0  0
 13 14  1  0  0  0
 13 33  1  0  0  0
 13 34  1  0  0  0
 14 18  1  0  0  0
 14 15  1  0  0  0
 14 19  1  0  0  0
 15 16  1  0  0  0
 15 35  1  0  0  0
 16 17  1  0  0  0
 16 36  1  0  0  0
 16 37  1  0  0  0
 17 18  1  0  0  0
 17 38  1  0  0  0
 17 39  1  0  0  0
 18 40  1  0  0  0
 18 41  1  0  0  0
 19 20  1  0  0  0
 19 42  1  0  0  0
 19 43  1  0  0  0
 20 44  1  0  0  0
M  END
> <s_m_entry_id>
17339

> <s_m_entry_name>
ligand_docking-pose.266

> <s_m_Source_Path>
/home/csk/Desktop/cluster/DUD-E-result/esr1

> <s_m_Source_File>
ligand_docking-pose.sdf

> <i_m_Source_File_Index>
266

> <i_lp_mmshare_version>
53161

> <i_f3d_flags>
0

> <r_lp_tautomer_probability>
0.999999999997365

> <s_lp_Force_Field>
OPLS_2005

> <r_lp_Energy>
42.840788

> <b_lp_Chiralities_Consistent>
1

> <s_lp_Variant>
14691-2

> <s_i_glide_gridfile>
glide-grid_1sj0

> <i_i_glide_lignum>
20

> <i_i_glide_rotatable_bonds>
3

> <r_i_docking_score>
-8.73371576548851

> <r_i_glide_ligand_efficiency>
-0.436685788274426

> <r_i_glide_ligand_efficiency_sa>
-1.18534759542507

> <r_i_glide_ligand_efficiency_ln>
-2.18576099887702

> <r_i_glide_gscore>
-8.73371576548851

> <r_i_glide_lipo>
-4.32417304259083

> <r_i_glide_hbond>
-0.16

> <r_i_glide_metal>
0

> <r_i_glide_rewards>
-2.42781130806986

> <r_i_glide_evdw>
-24.6551952362061

> <r_i_glide_ecoul>
-5.0536904335022

> <r_i_glide_erotb>
0.169081912007815

> <r_i_glide_esite>
0

> <r_i_glide_emodel>
-38.398185951793

> <r_i_glide_energy>
-29.7088856697083

> <r_i_glide_einternal>
1.64243447780609

> <i_i_glide_confnum>
3

> <i_i_glide_posenum>
6

> <r_i_glide_eff_state_penalty>
0

> <s_user_duplicate_titles>
14691

> <s_m_subgroup_title>
dock_pv

> <s_m_subgroupid>
dock_pv1

> <b_m_subgroup_collapsed>
0

$$$$
400563
                    3D
 Schrodinger Suite 2021-1.
 49 52  0  0  1  0            999 V2000
   34.8600    1.4580   28.9703 C   0  0  0  0  0  0
   35.0254    0.0810   28.3428 C   0  0  0  0  0  0
   34.8565   -0.9349   29.3296 O   0  0  0  0  0  0
   33.6600   -1.7103   29.2591 C   0  0  0  0  0  0
   32.4489   -0.8094   29.3980 C   0  0  0  0  0  0
   32.2486   -0.1420   30.5975 C   0  0  0  0  0  0
   31.2600    0.8200   30.6828 C   0  0  0  0  0  0
   30.4600    1.1287   29.5828 C   0  0  0  0  0  0
   30.6162    0.4498   28.3723 C   0  0  0  0  0  0
   31.6130   -0.5415   28.3142 C   0  0  0  0  0  0
   31.7938   -1.3396   27.2143 O   0  0  0  0  0  0
   31.5025   -0.7249   25.9714 C   0  0  2  0  0  0
   30.0118   -0.2608   26.0045 C   0  0  2  0  0  0
   29.7861    0.7757   27.1227 C   0  0  1  0  0  0
   28.2649    0.7734   27.3152 C   0  0  0  0  0  0
   27.8332   -0.6817   27.1172 C   0  0  0  0  0  0
   28.9430   -1.3420   26.2808 C   0  0  0  0  0  0
   31.9176   -1.6776   24.8488 C   0  0  0  0  0  0
   33.0017   -2.5420   25.0425 C   0  0  0  0  0  0
   33.4073   -3.3997   24.0284 C   0  0  0  0  0  0
   32.7313   -3.4084   22.8141 C   0  0  0  0  0  0
   31.6629   -2.5456   22.6052 C   0  0  0  0  0  0
   31.2600   -1.6829   23.6224 C   0  0  0  0  0  0
   33.1114   -4.2823   21.8331 O   0  0  0  0  0  0
   31.0963    1.4580   31.8656 O   0  0  0  0  0  0
   32.1507    0.1441   25.8320 H   0  0  0  0  0  0
   29.7637    0.2468   25.0719 H   0  0  0  0  0  0
   30.1301    1.7712   26.8367 H   0  0  0  0  0  0
   35.1632    2.2413   28.2753 H   0  0  0  0  0  0
   35.4758    1.5462   29.8641 H   0  0  0  0  0  0
   33.8258    1.6456   29.2489 H   0  0  0  0  0  0
   34.3467   -0.0292   27.4959 H   0  0  0  0  0  0
   36.0376   -0.0098   27.9491 H   0  0  0  0  0  0
   33.6571   -2.3165   28.3536 H   0  0  0  0  0  0
   33.6605   -2.4220   30.0804 H   0  0  0  0  0  0
   32.8902   -0.3358   31.4452 H   0  0  0  0  0  0
   29.7007    1.8896   29.6691 H   0  0  0  0  0  0
   27.9486    1.2013   28.2640 H   0  0  0  0  0  0
   27.8102    1.4263   26.5679 H   0  0  0  0  0  0
   26.8587   -0.7480   26.6309 H   0  0  0  0  0  0
   27.7454   -1.1826   28.0827 H   0  0  0  0  0  0
   28.5406   -1.7420   25.3544 H   0  0  0  0  0  0
   29.3671   -2.1837   26.8311 H   0  0  0  0  0  0
   33.5386   -2.5537   25.9792 H   0  0  0  0  0  0
   34.2219   -4.0820   24.2026 H   0  0  0  0  0  0
   31.1360   -2.5546   21.6625 H   0  0  0  0  0  0
   30.4182   -1.0301   23.4640 H   0  0  0  0  0  0
   32.4409   -4.4514   21.1616 H   0  0  0  0  0  0
   30.4487    2.1648   31.8263 H   0  0  0  0  0  0
  1  2  1  0  0  0
  1 29  1  0  0  0
  1 30  1  0  0  0
  1 31  1  0  0  0
  2  3  1  0  0  0
  2 32  1  0  0  0
  2 33  1  0  0  0
  3  4  1  0  0  0
  4  5  1  0  0  0
  4 34  1  0  0  0
  4 35  1  0  0  0
  5 10  1  0  0  0
  5  6  2  0  0  0
  6  7  1  0  0  0
  6 36  1  0  0  0
  7  8  2  0  0  0
  7 25  1  0  0  0
  8  9  1  0  0  0
  8 37  1  0  0  0
  9 14  1  0  0  0
  9 10  2  0  0  0
 10 11  1  0  0  0
 11 12  1  0  0  0
 12 26  1  0  0  0
 12 13  1  0  0  0
 12 18  1  0  0  0
 13 27  1  0  0  0
 13 17  1  0  0  0
 13 14  1  0  0  0
 14 28  1  0  0  0
 14 15  1  0  0  0
 15 16  1  0  0  0
 15 38  1  0  0  0
 15 39  1  0  0  0
 16 17  1  0  0  0
 16 40  1  0  0  0
 16 41  1  0  0  0
 17 42  1  0  0  0
 17 43  1  0  0  0
 18 23  1  0  0  0
 18 19  2  0  0  0
 19 20  1  0  0  0
 19 44  1  0  0  0
 20 21  2  0  0  0
 20 45  1  0  0  0
 21 22  1  0  0  0
 21 24  1  0  0  0
 22 23  2  0  0  0
 22 46  1  0  0  0
 23 47  1  0  0  0
 24 48  1  0  0  0
 25 49  1  0  0  0
M  END
> <s_m_entry_id>
17340

> <s_m_entry_name>
ligand_docking-pose.267

> <s_m_Source_Path>
/home/csk/Desktop/cluster/DUD-E-result/esr1

> <s_m_Source_File>
ligand_docking-pose.sdf

> <i_m_Source_File_Index>
267

> <i_lp_mmshare_version>
53161

> <i_f3d_flags>
0

> <r_lp_tautomer_probability>
0.999999999997365

> <s_lp_Force_Field>
OPLS_2005

> <r_lp_Energy>
36.562929

> <b_lp_Chiralities_Consistent>
1

> <s_lp_Variant>
400563-1

> <s_i_glide_gridfile>
glide-grid_1sj0

> <i_i_glide_lignum>
1646

> <i_i_glide_rotatable_bonds>
6

> <r_i_docking_score>
-8.73254436831769

> <r_i_glide_ligand_efficiency>
-0.349301774732707

> <r_i_glide_ligand_efficiency_sa>
-1.02136458421179

> <r_i_glide_ligand_efficiency_ln>
-2.06987470852866

> <r_i_glide_gscore>
-8.73254436831769

> <r_i_glide_lipo>
-5.28727741987579

> <r_i_glide_hbond>
0

> <r_i_glide_metal>
0

> <r_i_glide_rewards>
-1.98809413636364

> <r_i_glide_evdw>
-37.5014190673828

> <r_i_glide_ecoul>
-0.482374221086502

> <r_i_glide_erotb>
0.490254274453852

> <r_i_glide_esite>
0

> <r_i_glide_emodel>
-46.5001036306846

> <r_i_glide_energy>
-37.9837932884693

> <r_i_glide_einternal>
7.70584630966187

> <i_i_glide_confnum>
26

> <i_i_glide_posenum>
254

> <r_i_glide_eff_state_penalty>
0

> <s_user_duplicate_titles>
400563

> <s_m_subgroup_title>
dock_pv

> <s_m_subgroupid>
dock_pv1

> <b_m_subgroup_collapsed>
0

$$$$
568771
                    3D
 Schrodinger Suite 2021-1.
 39 40  0  0  1  0            999 V2000
   33.4223    0.3979   29.7833 C   0  0  0  0  0  0
   33.3173   -0.4834   28.5219 C   0  0  0  0  0  0
   31.9772   -0.4528   27.6929 C   0  0  2  0  0  0
   31.7028    1.0419   27.3400 C   0  0  0  0  0  0
   30.8258   -1.0125   28.5869 C   0  0  0  0  0  0
   29.4285   -1.0851   27.9690 C   0  0  0  0  0  0
   28.9271   -2.3082   27.5140 C   0  0  0  0  0  0
   27.6115   -2.3979   27.0644 C   0  0  0  0  0  0
   26.8073   -1.2611   27.0567 C   0  0  0  0  0  0
   27.3110   -0.0317   27.4645 C   0  0  0  0  0  0
   28.6196    0.0545   27.9308 C   0  0  0  0  0  0
   25.5013   -1.3420   26.6636 O   0  0  0  0  0  0
   32.1235   -1.3315   26.4137 C   0  0  0  0  0  0
   31.5514   -0.9569   25.1842 C   0  0  0  0  0  0
   31.7326   -1.7310   24.0395 C   0  0  0  0  0  0
   32.5011   -2.8879   24.1044 C   0  0  0  0  0  0
   33.0574   -3.2867   25.3114 C   0  0  0  0  0  0
   32.8449   -2.5362   26.4607 C   0  0  0  0  0  0
   32.7083   -3.6534   22.9884 O   0  0  0  0  0  0
   34.3926    0.2533   30.2613 H   0  0  0  0  0  0
   33.3458    1.4591   29.5529 H   0  0  0  0  0  0
   32.6631    0.1502   30.5284 H   0  0  0  0  0  0
   33.5222   -1.4950   28.8747 H   0  0  0  0  0  0
   34.1534   -0.2313   27.8642 H   0  0  0  0  0  0
   31.5700    1.6568   28.2290 H   0  0  0  0  0  0
   32.5248    1.4713   26.7638 H   0  0  0  0  0  0
   30.7938    1.1837   26.7609 H   0  0  0  0  0  0
   31.0920   -2.0077   28.9500 H   0  0  0  0  0  0
   30.7336   -0.4120   29.4910 H   0  0  0  0  0  0
   29.5438   -3.1954   27.5326 H   0  0  0  0  0  0
   27.2175   -3.3482   26.7336 H   0  0  0  0  0  0
   26.6762    0.8437   27.4555 H   0  0  0  0  0  0
   28.9907    1.0028   28.2927 H   0  0  0  0  0  0
   25.2605   -2.2083   26.2771 H   0  0  0  0  0  0
   30.9518   -0.0681   25.0851 H   0  0  0  0  0  0
   31.2866   -1.4257   23.1074 H   0  0  0  0  0  0
   33.6599   -4.1769   25.3568 H   0  0  0  0  0  0
   33.2706   -2.9075   27.3777 H   0  0  0  0  0  0
   32.2261   -3.3614   22.2114 H   0  0  0  0  0  0
  1  2  1  0  0  0
  1 20  1  0  0  0
  1 21  1  0  0  0
  1 22  1  0  0  0
  2  3  1  0  0  0
  2 23  1  0  0  0
  2 24  1  0  0  0
  3  4  1  0  0  0
  3  5  1  0  0  0
  3 13  1  0  0  0
  4 25  1  0  0  0
  4 26  1  0  0  0
  4 27  1  0  0  0
  5  6  1  0  0  0
  5 28  1  0  0  0
  5 29  1  0  0  0
  6 11  1  0  0  0
  6  7  2  0  0  0
  7  8  1  0  0  0
  7 30  1  0  0  0
  8  9  2  0  0  0
  8 31  1  0  0  0
  9 10  1  0  0  0
  9 12  1  0  0  0
 10 11  2  0  0  0
 10 32  1  0  0  0
 11 33  1  0  0  0
 12 34  1  0  0  0
 13 18  1  0  0  0
 13 14  2  0  0  0
 14 15  1  0  0  0
 14 35  1  0  0  0
 15 16  2  0  0  0
 15 36  1  0  0  0
 16 17  1  0  0  0
 16 19  1  0  0  0
 17 18  2  0  0  0
 17 37  1  0  0  0
 18 38  1  0  0  0
 19 39  1  0  0  0
M  END
> <s_m_entry_id>
17341

> <s_m_entry_name>
ligand_docking-pose.268

> <s_m_Source_Path>
/home/csk/Desktop/cluster/DUD-E-result/esr1

> <s_m_Source_File>
ligand_docking-pose.sdf

> <i_m_Source_File_Index>
268

> <i_lp_mmshare_version>
53161

> <i_f3d_flags>
0

> <r_lp_tautomer_probability>
0.99999999999473

> <s_lp_Force_Field>
OPLS_2005

> <r_lp_Energy>
16.225676

> <b_lp_Chiralities_Consistent>
1

> <s_lp_Variant>
568771-2

> <s_i_glide_gridfile>
glide-grid_1sj0

> <i_i_glide_lignum>
1428

> <i_i_glide_rotatable_bonds>
6

> <r_i_docking_score>
-8.7291394518828

> <r_i_glide_ligand_efficiency>
-0.459428392204358

> <r_i_glide_ligand_efficiency_sa>
-1.22593947802455

> <r_i_glide_ligand_efficiency_ln>
-2.21302433577702

> <r_i_glide_gscore>
-8.7291394518828

> <r_i_glide_lipo>
-4.28982286582502

> <r_i_glide_hbond>
-0.16

> <r_i_glide_metal>
0

> <r_i_glide_rewards>
-2.37321559376036

> <r_i_glide_evdw>
-34.0916404724121

> <r_i_glide_ecoul>
-5.09850025177002

> <r_i_glide_erotb>
0.563256069088679

> <r_i_glide_esite>
0

> <r_i_glide_emodel>
-60.4849129362557

> <r_i_glide_energy>
-39.1901407241821

> <r_i_glide_einternal>
2.09375309944153

> <i_i_glide_confnum>
20

> <i_i_glide_posenum>
73

> <r_i_glide_eff_state_penalty>
0

> <s_user_duplicate_titles>
568771

> <s_m_subgroup_title>
dock_pv

> <s_m_subgroupid>
dock_pv1

> <b_m_subgroup_collapsed>
0

$$$$
357386
                    3D
 Schrodinger Suite 2021-1.
 43 46  0  0  1  0            999 V2000
   28.8676   -3.0704   28.1225 C   0  0  0  0  0  0
   28.0610   -2.1534   27.2024 C   0  0  0  0  0  0
   28.4742   -0.6683   27.2650 C   0  0  0  0  0  0
   29.8932   -0.1899   26.7747 C   0  0  1  0  0  0
   30.0056    1.3361   27.0362 C   0  0  0  0  0  0
   29.9250    1.6790   28.5429 C   0  0  0  0  0  0
   30.8600    0.8134   29.4070 C   0  0  0  0  0  0
   30.9637    1.0580   30.6096 O   0  0  0  0  0  0
   31.4745   -0.3799   28.7664 C   0  0  0  0  0  0
   31.0866   -0.8174   27.5301 C   0  0  0  0  0  0
   31.7238   -1.8048   26.6076 C   0  0  0  0  0  0
   32.7346   -2.7539   26.8019 C   0  0  0  0  0  0
   33.2600   -3.4820   25.7386 C   0  0  0  0  0  0
   32.8484   -3.2011   24.4482 C   0  0  0  0  0  0
   31.8501   -2.2402   24.2267 C   0  0  0  0  0  0
   31.2445   -1.5809   25.3154 C   0  0  0  0  0  0
   30.1413   -0.5742   25.2999 C   0  0  0  0  0  0
   31.6596   -2.1420   22.8862 N   0  0  0  0  0  0
   32.5081   -3.0682   22.4069 N   0  0  3  0  0  0
   33.2742   -3.7413   23.2759 N   0  0  0  0  0  0
   32.6065   -1.0105   29.5855 C   0  0  0  0  0  0
   33.9980   -0.4585   29.2346 C   0  0  0  0  0  0
   32.5646   -3.2567   21.4153 H   0  0  0  0  0  0
   28.3331   -3.9978   28.3316 H   0  0  0  0  0  0
   29.0713   -2.5623   29.0639 H   0  0  0  0  0  0
   29.8199   -3.3418   27.6735 H   0  0  0  0  0  0
   28.0599   -2.5292   26.1862 H   0  0  0  0  0  0
   27.0161   -2.2154   27.5120 H   0  0  0  0  0  0
   27.7250   -0.1070   26.7037 H   0  0  0  0  0  0
   28.3151   -0.3753   28.3009 H   0  0  0  0  0  0
   30.9602    1.7077   26.6640 H   0  0  0  0  0  0
   29.2303    1.8722   26.4874 H   0  0  0  0  0  0
   28.9115    1.5146   28.9048 H   0  0  0  0  0  0
   30.1593    2.7228   28.7222 H   0  0  0  0  0  0
   33.1611   -2.9666   27.7643 H   0  0  0  0  0  0
   34.0450   -4.2047   25.8642 H   0  0  0  0  0  0
   29.2601   -0.9898   24.8205 H   0  0  0  0  0  0
   30.4420    0.2579   24.6825 H   0  0  0  0  0  0
   32.4440   -0.8945   30.6586 H   0  0  0  0  0  0
   32.5750   -2.0871   29.4640 H   0  0  0  0  0  0
   34.7807   -0.9966   29.7683 H   0  0  0  0  0  0
   34.2079   -0.5437   28.1680 H   0  0  0  0  0  0
   34.0820    0.5951   29.5034 H   0  0  0  0  0  0
  1  2  1  0  0  0
  1 24  1  0  0  0
  1 25  1  0  0  0
  1 26  1  0  0  0
  2  3  1  0  0  0
  2 27  1  0  0  0
  2 28  1  0  0  0
  3  4  1  0  0  0
  3 29  1  0  0  0
  3 30  1  0  0  0
  4 10  1  0  0  0
  4 17  1  0  0  0
  4  5  1  0  0  0
  5  6  1  0  0  0
  5 31  1  0  0  0
  5 32  1  0  0  0
  6  7  1  0  0  0
  6 33  1  0  0  0
  6 34  1  0  0  0
  7  8  2  0  0  0
  7  9  1  0  0  0
  9 10  2  0  0  0
  9 21  1  0  0  0
 10 11  1  0  0  0
 11 16  2  0  0  0
 11 12  1  0  0  0
 12 13  2  0  0  0
 12 35  1  0  0  0
 13 14  1  0  0  0
 13 36  1  0  0  0
 14 15  1  0  0  0
 14 20  2  0  0  0
 15 16  1  0  0  0
 15 18  2  0  0  0
 16 17  1  0  0  0
 17 37  1  0  0  0
 17 38  1  0  0  0
 18 19  1  0  0  0
 19 23  1  0  0  0
 19 20  1  0  0  0
 21 22  1  0  0  0
 21 39  1  0  0  0
 21 40  1  0  0  0
 22 41  1  0  0  0
 22 42  1  0  0  0
 22 43  1  0  0  0
M  END
> <s_m_entry_id>
17342

> <s_m_entry_name>
ligand_docking-pose.269

> <s_m_Source_Path>
/home/csk/Desktop/cluster/DUD-E-result/esr1

> <s_m_Source_File>
ligand_docking-pose.sdf

> <i_m_Source_File_Index>
269

> <i_lp_mmshare_version>
53161

> <i_f3d_flags>
0

> <r_lp_tautomer_probability>
0.5

> <s_lp_Force_Field>
OPLS_2005

> <r_lp_Energy>
29.774819

> <b_lp_Chiralities_Consistent>
1

> <s_lp_Variant>
357386-2

> <s_i_glide_gridfile>
glide-grid_1sj0

> <i_i_glide_lignum>
1220

> <i_i_glide_rotatable_bonds>
3

> <r_i_docking_score>
-8.72835842746058

> <r_i_glide_ligand_efficiency>
-0.396743564884572

> <r_i_glide_ligand_efficiency_sa>
-1.11169107184557

> <r_i_glide_ligand_efficiency_ln>
-2.13352917428063

> <r_i_glide_gscore>
-8.72835842746058

> <r_i_glide_lipo>
-4.53357843292257

> <r_i_glide_hbond>
0

> <r_i_glide_metal>
0

> <r_i_glide_rewards>
-2.60339615458892

> <r_i_glide_evdw>
-33.5678482055664

> <r_i_glide_ecoul>
-0.818505823612213

> <r_i_glide_erotb>
0.209784443871065

> <r_i_glide_esite>
0

> <r_i_glide_emodel>
-51.7148973045426

> <r_i_glide_energy>
-34.3863540291786

> <r_i_glide_einternal>
1.10016083717346

> <i_i_glide_confnum>
1

> <i_i_glide_posenum>
122

> <r_i_glide_eff_state_penalty>
0

> <s_user_duplicate_titles>
357386

> <s_m_subgroup_title>
dock_pv

> <s_m_subgroupid>
dock_pv1

> <b_m_subgroup_collapsed>
0

$$$$
373308
                    3D
 Schrodinger Suite 2021-1.
 38 40  0  0  1  0            999 V2000
   34.8610    1.6111   27.7904 C   0  0  0  0  0  0
   34.7593    0.3957   28.7322 C   0  0  0  0  0  0
   33.3161    0.0252   29.1609 C   0  0  0  0  0  0
   32.4232   -0.2538   28.0271 N   0  0  0  0  0  0
   31.1165    0.1458   27.7812 C   0  0  0  0  0  0
   30.1949    0.9046   28.5218 C   0  0  0  0  0  0
   28.9619    1.1455   27.9093 C   0  0  0  0  0  0
   28.6360    0.6364   26.6622 C   0  0  0  0  0  0
   29.5347   -0.1449   25.9455 C   0  0  0  0  0  0
   30.7994   -0.3975   26.5004 C   0  0  0  0  0  0
   31.9657   -1.1338   26.1101 C   0  0  0  0  0  0
   32.8600   -1.0755   27.0638 N   0  0  0  0  0  0
   32.2349   -1.9214   24.8624 C   0  0  0  0  0  0
   31.5350   -1.7107   23.6689 C   0  0  0  0  0  0
   31.7430   -2.5421   22.5639 C   0  0  0  0  0  0
   32.6720   -3.5668   22.6360 C   0  0  0  0  0  0
   33.4015   -3.7421   23.7976 C   0  0  0  0  0  0
   33.1805   -2.9473   24.9102 C   0  0  0  0  0  0
   32.8675   -4.4313   21.5902 O   0  0  0  0  0  0
   30.4114    1.4581   29.9089 C   0  0  0  0  0  0
   35.9009    1.8165   27.5319 H   0  0  0  0  0  0
   34.3228    1.4490   26.8562 H   0  0  0  0  0  0
   34.4556    2.5092   28.2542 H   0  0  0  0  0  0
   35.3493    0.5977   29.6272 H   0  0  0  0  0  0
   35.2387   -0.4640   28.2642 H   0  0  0  0  0  0
   32.9134    0.8568   29.7306 H   0  0  0  0  0  0
   33.3143   -0.8469   29.8163 H   0  0  0  0  0  0
   28.2148    1.7360   28.4197 H   0  0  0  0  0  0
   27.6587    0.8470   26.2640 H   0  0  0  0  0  0
   29.2501   -0.5537   24.9895 H   0  0  0  0  0  0
   30.8168   -0.9122   23.5870 H   0  0  0  0  0  0
   31.1875   -2.4156   21.6498 H   0  0  0  0  0  0
   34.0600   -4.5840   23.8632 H   0  0  0  0  0  0
   33.7193   -3.1631   25.8196 H   0  0  0  0  0  0
   32.1016   -4.6297   21.0355 H   0  0  0  0  0  0
   30.7506    0.6787   30.5917 H   0  0  0  0  0  0
   31.1530    2.2574   29.8820 H   0  0  0  0  0  0
   29.4790    1.8580   30.2971 H   0  0  0  0  0  0
  1  2  1  0  0  0
  1 21  1  0  0  0
  1 22  1  0  0  0
  1 23  1  0  0  0
  2  3  1  0  0  0
  2 24  1  0  0  0
  2 25  1  0  0  0
  3  4  1  0  0  0
  3 26  1  0  0  0
  3 27  1  0  0  0
  4 12  1  0  0  0
  4  5  1  0  0  0
  5 10  2  0  0  0
  5  6  1  0  0  0
  6  7  2  0  0  0
  6 20  1  0  0  0
  7  8  1  0  0  0
  7 28  1  0  0  0
  8  9  2  0  0  0
  8 29  1  0  0  0
  9 10  1  0  0  0
  9 30  1  0  0  0
 10 11  1  0  0  0
 11 12  2  0  0  0
 11 13  1  0  0  0
 13 18  1  0  0  0
 13 14  2  0  0  0
 14 15  1  0  0  0
 14 31  1  0  0  0
 15 16  2  0  0  0
 15 32  1  0  0  0
 16 17  1  0  0  0
 16 19  1  0  0  0
 17 18  2  0  0  0
 17 33  1  0  0  0
 18 34  1  0  0  0
 19 35  1  0  0  0
 20 36  1  0  0  0
 20 37  1  0  0  0
 20 38  1  0  0  0
M  END
> <s_m_entry_id>
17343

> <s_m_entry_name>
ligand_docking-pose.270

> <s_m_Source_Path>
/home/csk/Desktop/cluster/DUD-E-result/esr1

> <s_m_Source_File>
ligand_docking-pose.sdf

> <i_m_Source_File_Index>
270

> <i_lp_mmshare_version>
53161

> <i_f3d_flags>
0

> <r_lp_tautomer_probability>
0.999999999997365

> <s_lp_Force_Field>
OPLS_2005

> <r_lp_Energy>
16.550441

> <b_lp_Chiralities_Consistent>
1

> <s_lp_Variant>
373308-1

> <s_i_glide_gridfile>
glide-grid_1sj0

> <i_i_glide_lignum>
1514

> <i_i_glide_rotatable_bonds>
4

> <r_i_docking_score>
-8.71246375527277

> <r_i_glide_ligand_efficiency>
-0.435623187763639

> <r_i_glide_ligand_efficiency_sa>
-1.18246325388207

> <r_i_glide_ligand_efficiency_ln>
-2.18044232165823

> <r_i_glide_gscore>
-8.71246375527277

> <r_i_glide_lipo>
-4.56831969440708

> <r_i_glide_hbond>
-0.0996189418960772

> <r_i_glide_metal>
0

> <r_i_glide_rewards>
-2.57456639195984

> <r_i_glide_evdw>
-33.8626899719238

> <r_i_glide_ecoul>
-1.86020267009735

> <r_i_glide_erotb>
0.502206172101021

> <r_i_glide_esite>
0

> <r_i_glide_emodel>
-51.8960517753259

> <r_i_glide_energy>
-35.7228926420212

> <r_i_glide_einternal>
2.52276277542114

> <i_i_glide_confnum>
11

> <i_i_glide_posenum>
235

> <r_i_glide_eff_state_penalty>
0

> <s_user_duplicate_titles>
373308

> <s_m_subgroup_title>
dock_pv

> <s_m_subgroupid>
dock_pv1

> <b_m_subgroup_collapsed>
0

$$$$
353966
                    3D
 Schrodinger Suite 2021-1.
 41 44  0  0  1  0            999 V2000
   33.9690   -0.0521   29.1846 C   0  0  0  0  0  0
   32.6214   -0.5170   29.7607 C   0  0  0  0  0  0
   31.4006   -0.0465   28.9480 C   0  0  0  0  0  0
   30.9911   -0.6110   27.7754 C   0  0  0  0  0  0
   31.6101   -1.6716   26.9575 C   0  0  0  0  0  0
   32.5686   -2.6274   27.2755 C   0  0  0  0  0  0
   33.0738   -3.4987   26.3235 C   0  0  0  0  0  0
   32.7738   -3.2332   24.9967 C   0  0  0  0  0  0
   31.7686   -2.3200   24.6388 C   0  0  0  0  0  0
   31.1389   -1.5699   25.6495 C   0  0  0  0  0  0
   30.0388   -0.5599   25.5443 C   0  0  0  0  0  0
   29.7433   -0.1438   27.0012 C   0  0  2  0  0  0
   29.6634    1.3935   27.1754 C   0  0  0  0  0  0
   29.6147    1.8047   28.6639 C   0  0  0  0  0  0
   30.7014    1.1220   29.5208 C   0  0  0  0  0  0
   30.8596    1.4580   30.6934 O   0  0  0  0  0  0
   28.4410   -0.8200   27.5564 C   0  0  0  0  0  0
   28.2631   -2.3317   27.3193 C   0  0  0  0  0  0
   31.6602   -2.5095   23.2306 C   0  0  0  0  0  0
   32.5706   -3.3134   22.7573 N   0  0  0  0  0  0
   33.2648   -3.7420   23.8156 N   0  0  0  0  0  0
   33.9970   -4.4275   23.6984 H   0  0  0  0  0  0
   34.8009   -0.4413   29.7725 H   0  0  0  0  0  0
   34.1080   -0.3874   28.1569 H   0  0  0  0  0  0
   34.0437    1.0359   29.1900 H   0  0  0  0  0  0
   32.5803   -0.1976   30.8032 H   0  0  0  0  0  0
   32.5951   -1.5946   29.8640 H   0  0  0  0  0  0
   32.9121   -2.7815   28.2803 H   0  0  0  0  0  0
   33.6600   -4.3448   26.6138 H   0  0  0  0  0  0
   29.1542   -0.9587   25.0551 H   0  0  0  0  0  0
   30.3828    0.2580   24.9259 H   0  0  0  0  0  0
   28.7928    1.7907   26.6511 H   0  0  0  0  0  0
   30.5314    1.8580   26.7079 H   0  0  0  0  0  0
   29.6692    2.8840   28.7909 H   0  0  0  0  0  0
   28.6569    1.4821   29.0640 H   0  0  0  0  0  0
   28.3712   -0.6552   28.6318 H   0  0  0  0  0  0
   27.5704   -0.3169   27.1322 H   0  0  0  0  0  0
   27.4104   -2.7127   27.8819 H   0  0  0  0  0  0
   28.0600   -2.5420   26.2700 H   0  0  0  0  0  0
   29.1386   -2.9044   27.6263 H   0  0  0  0  0  0
   30.9067   -2.1420   22.5757 H   0  0  0  0  0  0
  1  2  1  0  0  0
  1 23  1  0  0  0
  1 24  1  0  0  0
  1 25  1  0  0  0
  2  3  1  0  0  0
  2 26  1  0  0  0
  2 27  1  0  0  0
  3 15  1  0  0  0
  3  4  2  0  0  0
  4 12  1  0  0  0
  4  5  1  0  0  0
  5 10  2  0  0  0
  5  6  1  0  0  0
  6  7  2  0  0  0
  6 28  1  0  0  0
  7  8  1  0  0  0
  7 29  1  0  0  0
  8 21  1  0  0  0
  8  9  2  0  0  0
  9 10  1  0  0  0
  9 19  1  0  0  0
 10 11  1  0  0  0
 11 12  1  0  0  0
 11 30  1  0  0  0
 11 31  1  0  0  0
 12 13  1  0  0  0
 12 17  1  0  0  0
 13 14  1  0  0  0
 13 32  1  0  0  0
 13 33  1  0  0  0
 14 15  1  0  0  0
 14 34  1  0  0  0
 14 35  1  0  0  0
 15 16  2  0  0  0
 17 18  1  0  0  0
 17 36  1  0  0  0
 17 37  1  0  0  0
 18 38  1  0  0  0
 18 39  1  0  0  0
 18 40  1  0  0  0
 19 20  2  0  0  0
 19 41  1  0  0  0
 20 21  1  0  0  0
 21 22  1  0  0  0
M  END
> <s_m_entry_id>
17344

> <s_m_entry_name>
ligand_docking-pose.271

> <s_m_Source_Path>
/home/csk/Desktop/cluster/DUD-E-result/esr1

> <s_m_Source_File>
ligand_docking-pose.sdf

> <i_m_Source_File_Index>
271

> <i_lp_mmshare_version>
53161

> <i_f3d_flags>
0

> <r_lp_tautomer_probability>
1

> <s_lp_Force_Field>
OPLS_2005

> <r_lp_Energy>
37.51031

> <b_lp_Chiralities_Consistent>
1

> <s_lp_Variant>
353966-2

> <s_i_glide_gridfile>
glide-grid_1sj0

> <i_i_glide_lignum>
1102

> <i_i_glide_rotatable_bonds>
2

> <r_i_docking_score>
-8.70972905818672

> <r_i_glide_ligand_efficiency>
-0.414749002770796

> <r_i_glide_ligand_efficiency_sa>
-1.14426104971307

> <r_i_glide_ligand_efficiency_ln>
-2.15346290997195

> <r_i_glide_gscore>
-8.70972905818672

> <r_i_glide_lipo>
-4.64999008472389

> <r_i_glide_hbond>
0

> <r_i_glide_metal>
0

> <r_i_glide_rewards>
-2.776166630471

> <r_i_glide_evdw>
-26.9995574951172

> <r_i_glide_ecoul>
0.442703545093536

> <r_i_glide_erotb>
0

> <r_i_glide_esite>
0

> <r_i_glide_emodel>
-38.4751661780983

> <r_i_glide_energy>
-26.5568539500237

> <r_i_glide_einternal>
0.604994237422943

> <i_i_glide_confnum>
1

> <i_i_glide_posenum>
194

> <r_i_glide_eff_state_penalty>
0

> <s_user_duplicate_titles>
353966

> <s_m_subgroup_title>
dock_pv

> <s_m_subgroupid>
dock_pv1

> <b_m_subgroup_collapsed>
0

$$$$
330386
                    3D
 Schrodinger Suite 2021-1.
 30 32  0  0  1  0            999 V2000
   31.4666   -1.7420   23.5967 C   0  0  0  0  0  0
   31.7638   -2.5758   22.5166 C   0  0  0  0  0  0
   32.6980   -3.5892   22.6640 C   0  0  0  0  0  0
   33.3560   -3.7420   23.8737 C   0  0  0  0  0  0
   33.0405   -2.9344   24.9596 C   0  0  0  0  0  0
   32.0681   -1.9292   24.8483 C   0  0  0  0  0  0
   31.6607   -1.1030   26.0332 C   0  0  0  0  0  0
   30.4277   -0.4438   26.1051 C   0  0  0  0  0  0
   30.0777    0.2738   27.2513 C   0  0  0  0  0  0
   30.9916    0.3088   28.3513 C   0  0  0  0  0  0
   30.7416    0.9746   29.5866 C   0  0  0  0  0  0
   31.6593    0.8944   30.6284 C   0  0  0  0  0  0
   32.8601    0.2217   30.4647 C   0  0  0  0  0  0
   33.1589   -0.4171   29.2664 C   0  0  0  0  0  0
   32.2263   -0.3964   28.2028 C   0  0  0  0  0  0
   32.5389   -1.0746   27.0692 N   0  0  0  0  0  0
   31.3697    1.4580   31.8365 O   0  0  0  0  0  0
   28.7765    0.9351   27.2950 C   0  0  0  0  0  0
   27.7457    1.4580   27.3343 N   0  0  0  0  0  0
   32.9644   -4.4588   21.6393 O   0  0  0  0  0  0
   30.7292   -0.9672   23.4640 H   0  0  0  0  0  0
   31.2600   -2.4617   21.5695 H   0  0  0  0  0  0
   34.0600   -4.5420   23.9933 H   0  0  0  0  0  0
   33.5383   -3.1239   25.8988 H   0  0  0  0  0  0
   29.7263   -0.5036   25.2854 H   0  0  0  0  0  0
   29.8117    1.5043   29.7319 H   0  0  0  0  0  0
   33.5644    0.1840   31.2816 H   0  0  0  0  0  0
   34.0936   -0.9492   29.1521 H   0  0  0  0  0  0
   30.5278    1.9177   31.8424 H   0  0  0  0  0  0
   32.2311   -4.6513   21.0402 H   0  0  0  0  0  0
  1  6  1  0  0  0
  1  2  2  0  0  0
  1 21  1  0  0  0
  2  3  1  0  0  0
  2 22  1  0  0  0
  3  4  2  0  0  0
  3 20  1  0  0  0
  4  5  1  0  0  0
  4 23  1  0  0  0
  5  6  2  0  0  0
  5 24  1  0  0  0
  6  7  1  0  0  0
  7 16  1  0  0  0
  7  8  2  0  0  0
  8  9  1  0  0  0
  8 25  1  0  0  0
  9 10  2  0  0  0
  9 18  1  0  0  0
 10 15  1  0  0  0
 10 11  1  0  0  0
 11 12  2  0  0  0
 11 26  1  0  0  0
 12 13  1  0  0  0
 12 17  1  0  0  0
 13 14  2  0  0  0
 13 27  1  0  0  0
 14 15  1  0  0  0
 14 28  1  0  0  0
 15 16  2  0  0  0
 17 29  1  0  0  0
 18 19  3  0  0  0
 20 30  1  0  0  0
M  END
> <s_m_entry_id>
17345

> <s_m_entry_name>
ligand_docking-pose.272

> <s_m_Source_Path>
/home/csk/Desktop/cluster/DUD-E-result/esr1

> <s_m_Source_File>
ligand_docking-pose.sdf

> <i_m_Source_File_Index>
272

> <i_lp_mmshare_version>
53161

> <i_f3d_flags>
0

> <r_lp_tautomer_probability>
0.999999999997365

> <s_lp_Force_Field>
OPLS_2005

> <r_lp_Energy>
13.150667

> <b_lp_Chiralities_Consistent>
1

> <s_lp_Variant>
330386-1

> <s_i_glide_gridfile>
glide-grid_1sj0

> <i_i_glide_lignum>
324

> <i_i_glide_rotatable_bonds>
3

> <r_i_docking_score>
-8.70793166810406

> <r_i_glide_ligand_efficiency>
-0.435396583405203

> <r_i_glide_ligand_efficiency_sa>
-1.18184815502015

> <r_i_glide_ligand_efficiency_ln>
-2.17930808971814

> <r_i_glide_gscore>
-8.70793166810406

> <r_i_glide_lipo>
-3.94675735029967

> <r_i_glide_hbond>
-0.0847200202367228

> <r_i_glide_metal>
0

> <r_i_glide_rewards>
-2.84374131440503

> <r_i_glide_evdw>
-35.3364295959473

> <r_i_glide_ecoul>
-2.15842914581299

> <r_i_glide_erotb>
0.257872868506675

> <r_i_glide_esite>
0

> <r_i_glide_emodel>
-55.7494338623281

> <r_i_glide_energy>
-37.4948587417603

> <r_i_glide_einternal>
1.26312839984894

> <i_i_glide_confnum>
2

> <i_i_glide_posenum>
206

> <r_i_glide_eff_state_penalty>
0

> <s_user_duplicate_titles>
330386

> <s_m_subgroup_title>
dock_pv

> <s_m_subgroupid>
dock_pv1

> <b_m_subgroup_collapsed>
0

$$$$
356907
                    3D
 Schrodinger Suite 2021-1.
 34 37  0  0  1  0            999 V2000
   32.7150   -2.2219   27.5016 C   0  0  0  0  0  0
   32.3580   -0.9247   28.2230 C   0  0  0  0  0  0
   31.0947   -0.4152   28.3381 C   0  0  0  0  0  0
   29.7478   -0.9000   27.9316 C   0  0  0  0  0  0
   29.2921   -2.1381   27.4581 C   0  0  0  0  0  0
   27.9585   -2.2990   27.0651 C   0  0  0  0  0  0
   27.0785   -1.2188   27.1118 C   0  0  0  0  0  0
   27.5225    0.0071   27.5990 C   0  0  0  0  0  0
   28.8387    0.1543   28.0435 C   0  0  0  0  0  0
   29.4964    1.3852   28.5965 C   0  0  0  0  0  0
   30.8933    0.9350   29.0444 C   0  0  1  0  0  0
   31.1321    0.7688   30.5764 C   0  0  0  0  0  0
   32.6431    0.9832   30.8063 C   0  0  0  0  0  0
   33.2194    1.2156   29.3967 C   0  0  2  0  0  0
   32.0432    1.8873   28.6789 C   0  0  0  0  0  0
   33.5341   -0.1533   28.7373 C   0  0  0  0  0  0
   34.6962   -0.5418   28.6644 O   0  0  0  0  0  0
   25.7815   -1.3420   26.6842 O   0  0  0  0  0  0
   34.1220    1.8306   29.4018 H   0  0  0  0  0  0
   33.5876   -2.0964   26.8589 H   0  0  0  0  0  0
   32.9451   -2.9984   28.2287 H   0  0  0  0  0  0
   31.9224   -2.5729   26.8475 H   0  0  0  0  0  0
   29.9396   -2.9973   27.3915 H   0  0  0  0  0  0
   27.6193   -3.2569   26.6974 H   0  0  0  0  0  0
   26.8308    0.8359   27.6391 H   0  0  0  0  0  0
   29.5791    2.1420   27.8149 H   0  0  0  0  0  0
   28.9385    1.8276   29.4223 H   0  0  0  0  0  0
   30.5496    1.4789   31.1617 H   0  0  0  0  0  0
   30.8602   -0.2268   30.9278 H   0  0  0  0  0  0
   32.8084    1.8611   31.4313 H   0  0  0  0  0  0
   33.1053    0.1432   31.3306 H   0  0  0  0  0  0
   32.1957    1.9780   27.6013 H   0  0  0  0  0  0
   31.8673    2.8885   29.0657 H   0  0  0  0  0  0
   25.5471   -2.2061   26.3001 H   0  0  0  0  0  0
  1  2  1  0  0  0
  1 20  1  0  0  0
  1 21  1  0  0  0
  1 22  1  0  0  0
  2 16  1  0  0  0
  2  3  2  0  0  0
  3 11  1  0  0  0
  3  4  1  0  0  0
  4  9  2  0  0  0
  4  5  1  0  0  0
  5  6  2  0  0  0
  5 23  1  0  0  0
  6  7  1  0  0  0
  6 24  1  0  0  0
  7  8  2  0  0  0
  7 18  1  0  0  0
  8  9  1  0  0  0
  8 25  1  0  0  0
  9 10  1  0  0  0
 10 11  1  0  0  0
 10 26  1  0  0  0
 10 27  1  0  0  0
 11 15  1  0  0  0
 11 12  1  0  0  0
 12 13  1  0  0  0
 12 28  1  0  0  0
 12 29  1  0  0  0
 13 14  1  0  0  0
 13 30  1  0  0  0
 13 31  1  0  0  0
 14 19  1  0  0  0
 14 15  1  0  0  0
 14 16  1  0  0  0
 15 32  1  0  0  0
 15 33  1  0  0  0
 16 17  2  0  0  0
 18 34  1  0  0  0
M  END
> <s_m_entry_id>
17346

> <s_m_entry_name>
ligand_docking-pose.273

> <s_m_Source_Path>
/home/csk/Desktop/cluster/DUD-E-result/esr1

> <s_m_Source_File>
ligand_docking-pose.sdf

> <i_m_Source_File_Index>
273

> <i_lp_mmshare_version>
53161

> <i_f3d_flags>
0

> <r_lp_tautomer_probability>
1

> <s_lp_Force_Field>
OPLS_2005

> <r_lp_Energy>
37.78211

> <b_lp_Chiralities_Consistent>
1

> <s_lp_Variant>
356907-1

> <s_i_glide_gridfile>
glide-grid_1sj0

> <i_i_glide_lignum>
861

> <i_i_glide_rotatable_bonds>
1

> <r_i_docking_score>
-8.70016045705449

> <r_i_glide_ligand_efficiency>
-0.483342247614138

> <r_i_glide_ligand_efficiency_sa>
-1.26671503467191

> <r_i_glide_ligand_efficiency_ln>
-2.23633138385709

> <r_i_glide_gscore>
-8.70016045705449

> <r_i_glide_lipo>
-3.60902101656205

> <r_i_glide_hbond>
-0.16

> <r_i_glide_metal>
0

> <r_i_glide_rewards>
-3.00320040698414

> <r_i_glide_evdw>
-30.2331409454346

> <r_i_glide_ecoul>
-2.77521324157715

> <r_i_glide_erotb>
0

> <r_i_glide_esite>
0

> <r_i_glide_emodel>
-49.111439363757

> <r_i_glide_energy>
-33.0083541870117

> <r_i_glide_einternal>
0.000454036402516067

> <i_i_glide_confnum>
1

> <i_i_glide_posenum>
209

> <r_i_glide_eff_state_penalty>
0

> <s_user_duplicate_titles>
356907

> <s_m_subgroup_title>
dock_pv

> <s_m_subgroupid>
dock_pv1

> <b_m_subgroup_collapsed>
0

$$$$
351068
                    3D
 Schrodinger Suite 2021-1.
 46 49  0  0  1  0            999 V2000
   26.5573   -3.5876   28.1111 C   0  0  0  0  0  0
   26.1452   -2.1160   27.9393 C   0  0  0  0  0  0
   27.0959   -1.2734   27.0737 C   0  0  0  0  0  0
   28.5792   -1.2853   27.5279 C   0  0  0  0  0  0
   29.5287   -0.2783   26.7899 C   0  0  1  0  0  0
   29.1411    1.2072   27.0427 C   0  0  0  0  0  0
   29.2650    1.5865   28.5349 C   0  0  0  0  0  0
   30.5859    1.1148   29.1738 C   0  0  0  0  0  0
   30.8905    1.4579   30.3149 O   0  0  0  0  0  0
   31.4294    0.1995   28.3910 C   0  0  0  0  0  0
   30.9670   -0.4537   27.2953 C   0  0  0  0  0  0
   31.6515   -1.3662   26.3492 C   0  0  0  0  0  0
   32.8278   -2.1149   26.4515 C   0  0  0  0  0  0
   33.2798   -2.8521   25.3573 C   0  0  0  0  0  0
   32.6268   -2.7723   24.1334 C   0  0  0  0  0  0
   31.4767   -1.9969   24.0184 C   0  0  0  0  0  0
   30.9525   -1.3606   25.1479 C   0  0  0  0  0  0
   29.6586   -0.6229   25.2983 C   0  0  0  0  0  0
   33.1080   -3.4768   23.0630 O   0  0  0  0  0  0
   32.8342    0.1811   28.7259 C   0  0  0  0  0  0
   33.6378   -0.6682   29.4635 C   0  0  0  0  0  0
   34.9261   -0.1432   29.3997 C   0  0  0  0  0  0
   34.8545    1.0055   28.6353 C   0  0  0  0  0  0
   33.5792    1.2048   28.2279 O   0  0  0  0  0  0
   25.7928   -4.1397   28.6583 H   0  0  0  0  0  0
   26.6845   -4.0758   27.1434 H   0  0  0  0  0  0
   27.4928   -3.6896   28.6611 H   0  0  0  0  0  0
   26.0140   -1.6400   28.9104 H   0  0  0  0  0  0
   25.1656   -2.0945   27.4642 H   0  0  0  0  0  0
   26.7139   -0.2530   27.0663 H   0  0  0  0  0  0
   27.0048   -1.6272   26.0469 H   0  0  0  0  0  0
   28.9704   -2.2959   27.3938 H   0  0  0  0  0  0
   28.6167   -1.1150   28.6049 H   0  0  0  0  0  0
   29.7877    1.8659   26.4619 H   0  0  0  0  0  0
   28.1330    1.4168   26.6859 H   0  0  0  0  0  0
   28.4646    1.0791   29.0638 H   0  0  0  0  0  0
   29.1531    2.6577   28.6955 H   0  0  0  0  0  0
   33.3867   -2.1665   27.3701 H   0  0  0  0  0  0
   34.1631   -3.4622   25.4439 H   0  0  0  0  0  0
   30.9574   -1.9619   23.0715 H   0  0  0  0  0  0
   29.6091    0.2581   24.6624 H   0  0  0  0  0  0
   28.8595   -1.3019   25.0479 H   0  0  0  0  0  0
   32.5336   -3.4576   22.2935 H   0  0  0  0  0  0
   33.3284   -1.5636   29.9812 H   0  0  0  0  0  0
   35.8100   -0.5572   29.8605 H   0  0  0  0  0  0
   35.5877    1.7328   28.3158 H   0  0  0  0  0  0
  1  2  1  0  0  0
  1 25  1  0  0  0
  1 26  1  0  0  0
  1 27  1  0  0  0
  2  3  1  0  0  0
  2 28  1  0  0  0
  2 29  1  0  0  0
  3  4  1  0  0  0
  3 30  1  0  0  0
  3 31  1  0  0  0
  4  5  1  0  0  0
  4 32  1  0  0  0
  4 33  1  0  0  0
  5 11  1  0  0  0
  5 18  1  0  0  0
  5  6  1  0  0  0
  6  7  1  0  0  0
  6 34  1  0  0  0
  6 35  1  0  0  0
  7  8  1  0  0  0
  7 36  1  0  0  0
  7 37  1  0  0  0
  8  9  2  0  0  0
  8 10  1  0  0  0
 10 11  2  0  0  0
 10 20  1  0  0  0
 11 12  1  0  0  0
 12 17  1  0  0  0
 12 13  2  0  0  0
 13 14  1  0  0  0
 13 38  1  0  0  0
 14 15  2  0  0  0
 14 39  1  0  0  0
 15 16  1  0  0  0
 15 19  1  0  0  0
 16 17  2  0  0  0
 16 40  1  0  0  0
 17 18  1  0  0  0
 18 41  1  0  0  0
 18 42  1  0  0  0
 19 43  1  0  0  0
 20 24  1  0  0  0
 20 21  2  0  0  0
 21 22  1  0  0  0
 21 44  1  0  0  0
 22 23  2  0  0  0
 22 45  1  0  0  0
 23 24  1  0  0  0
 23 46  1  0  0  0
M  END
> <s_m_entry_id>
17347

> <s_m_entry_name>
ligand_docking-pose.274

> <s_m_Source_Path>
/home/csk/Desktop/cluster/DUD-E-result/esr1

> <s_m_Source_File>
ligand_docking-pose.sdf

> <i_m_Source_File_Index>
274

> <i_lp_mmshare_version>
53161

> <i_f3d_flags>
0

> <r_lp_tautomer_probability>
1

> <s_lp_Force_Field>
OPLS_2005

> <r_lp_Energy>
25.994928

> <b_lp_Chiralities_Consistent>
1

> <s_lp_Variant>
351068-2

> <s_i_glide_gridfile>
glide-grid_1sj0

> <i_i_glide_lignum>
1345

> <i_i_glide_rotatable_bonds>
5

> <r_i_docking_score>
-8.69886461071071

> <r_i_glide_ligand_efficiency>
-0.362452692112946

> <r_i_glide_ligand_efficiency_sa>
-1.04549447780577

> <r_i_glide_ligand_efficiency_ln>
-2.08203746623013

> <r_i_glide_gscore>
-8.69886461071071

> <r_i_glide_lipo>
-4.59843923709666

> <r_i_glide_hbond>
0

> <r_i_glide_metal>
0

> <r_i_glide_rewards>
-2.51391623012537

> <r_i_glide_evdw>
-39.9086380004883

> <r_i_glide_ecoul>
-0.872028291225433

> <r_i_glide_erotb>
0.539727000219559

> <r_i_glide_esite>
0

> <r_i_glide_emodel>
-53.8838140276107

> <r_i_glide_energy>
-40.7806662917137

> <r_i_glide_einternal>
1.68341779708862

> <i_i_glide_confnum>
33

> <i_i_glide_posenum>
291

> <r_i_glide_eff_state_penalty>
0

> <s_user_duplicate_titles>
351068

> <s_m_subgroup_title>
dock_pv

> <s_m_subgroupid>
dock_pv1

> <b_m_subgroup_collapsed>
0

$$$$
579905
                    3D
 Schrodinger Suite 2021-1.
 44 48  0  0  1  0            999 V2000
   32.7491   -3.6795   22.7075 C   0  0  0  0  0  0
   33.1234   -3.2273   24.1205 C   0  0  0  0  0  0
   34.0915   -3.7385   24.6629 O   0  0  0  0  0  0
   32.3287   -2.1734   24.7952 C   0  0  0  0  0  0
   31.2390   -1.5782   24.1601 C   0  0  0  0  0  0
   30.5302   -0.5757   24.7972 C   0  0  0  0  0  0
   30.9495   -0.1259   26.0443 C   0  0  0  0  0  0
   32.0381   -0.6957   26.7259 C   0  0  0  0  0  0
   32.7012   -1.7446   26.0830 C   0  0  0  0  0  0
   32.5371   -0.0715   28.0410 C   0  0  2  0  0  0
   32.8992   -0.9869   29.1959 C   0  0  0  0  0  0
   32.4106   -0.5265   30.3644 C   0  0  0  0  0  0
   31.5727    0.7222   30.1944 C   0  0  0  0  0  0
   31.5260    0.9092   28.6769 C   0  0  2  0  0  0
   30.1023    0.9482   28.0373 C   0  0  1  0  0  0
   30.2510    0.9724   26.6008 N   0  0  0  0  0  0
   29.0774   -0.1551   28.2619 C   0  0  0  0  0  0
   29.4827   -1.4634   28.5497 C   0  0  0  0  0  0
   28.5789   -2.4584   28.2591 C   0  0  0  0  0  0
   27.3006   -2.2113   27.8583 C   0  0  0  0  0  0
   26.8235   -0.9328   27.6812 C   0  0  0  0  0  0
   27.7442    0.0968   27.8647 C   0  0  0  0  0  0
   27.1921    1.8548   27.4600 Br  0  0  0  0  0  0
   26.6697   -3.3731   27.6019 O   0  0  0  0  0  0
   27.6181   -4.3624   27.8420 C   0  0  0  0  0  0
   28.8038   -3.7786   28.2706 O   0  0  0  0  0  0
   33.4406    0.4752   27.7589 H   0  0  0  0  0  0
   31.9365    1.9037   28.4822 H   0  0  0  0  0  0
   29.6468    1.8829   28.3639 H   0  0  0  0  0  0
   31.7511   -4.1207   22.6924 H   0  0  0  0  0  0
   33.4655   -4.4136   22.3342 H   0  0  0  0  0  0
   32.7506   -2.8270   22.0245 H   0  0  0  0  0  0
   30.9250   -1.8772   23.1709 H   0  0  0  0  0  0
   29.6885   -0.1115   24.2997 H   0  0  0  0  0  0
   33.5610   -2.1843   26.5722 H   0  0  0  0  0  0
   33.5465   -1.8450   29.0722 H   0  0  0  0  0  0
   32.5838   -0.9513   31.3422 H   0  0  0  0  0  0
   32.0550    1.5668   30.6902 H   0  0  0  0  0  0
   30.5759    0.6161   30.6261 H   0  0  0  0  0  0
   29.4256    1.3030   26.1264 H   0  0  0  0  0  0
   30.4936   -1.7190   28.8051 H   0  0  0  0  0  0
   25.8174   -0.7386   27.3372 H   0  0  0  0  0  0
   27.2556   -4.9479   28.6674 H   0  0  0  0  0  0
   27.7905   -4.9313   26.9342 H   0  0  0  0  0  0
  1  2  1  0  0  0
  1 30  1  0  0  0
  1 31  1  0  0  0
  1 32  1  0  0  0
  2  3  2  0  0  0
  2  4  1  0  0  0
  4  9  1  0  0  0
  4  5  2  0  0  0
  5  6  1  0  0  0
  5 33  1  0  0  0
  6  7  2  0  0  0
  6 34  1  0  0  0
  7 16  1  0  0  0
  7  8  1  0  0  0
  8  9  2  0  0  0
  8 10  1  0  0  0
  9 35  1  0  0  0
 10 27  1  0  0  0
 10 14  1  0  0  0
 10 11  1  0  0  0
 11 12  2  0  0  0
 11 36  1  0  0  0
 12 13  1  0  0  0
 12 37  1  0  0  0
 13 14  1  0  0  0
 13 38  1  0  0  0
 13 39  1  0  0  0
 14 28  1  0  0  0
 14 15  1  0  0  0
 15 29  1  0  0  0
 15 16  1  0  0  0
 15 17  1  0  0  0
 16 40  1  0  0  0
 17 22  1  0  0  0
 17 18  2  0  0  0
 18 19  1  0  0  0
 18 41  1  0  0  0
 19 26  1  0  0  0
 19 20  2  0  0  0
 20 21  1  0  0  0
 20 24  1  0  0  0
 21 22  2  0  0  0
 21 42  1  0  0  0
 22 23  1  0  0  0
 24 25  1  0  0  0
 25 26  1  0  0  0
 25 43  1  0  0  0
 25 44  1  0  0  0
M  END
> <s_m_entry_id>
17348

> <s_m_entry_name>
ligand_docking-pose.275

> <s_m_Source_Path>
/home/csk/Desktop/cluster/DUD-E-result/esr1

> <s_m_Source_File>
ligand_docking-pose.sdf

> <i_m_Source_File_Index>
275

> <i_lp_mmshare_version>
53161

> <i_f3d_flags>
0

> <r_lp_tautomer_probability>
0.99995

> <s_lp_Force_Field>
OPLS_2005

> <r_lp_Energy>
52.158974

> <b_lp_Chiralities_Consistent>
1

> <s_lp_Variant>
579905-1

> <s_i_glide_gridfile>
glide-grid_1sj0

> <i_i_glide_lignum>
1638

> <i_i_glide_rotatable_bonds>
2

> <r_i_docking_score>
-8.68394435431171

> <r_i_glide_ligand_efficiency>
-0.33399785978122

> <r_i_glide_ligand_efficiency_sa>
-0.989467345383747

> <r_i_glide_ligand_efficiency_ln>
-2.03939583726458

> <r_i_glide_gscore>
-8.68394435431171

> <r_i_glide_lipo>
-4.83234946637956

> <r_i_glide_hbond>
0

> <r_i_glide_metal>
0

> <r_i_glide_rewards>
-2.39811463636364

> <r_i_glide_evdw>
-34.8265800476074

> <r_i_glide_ecoul>
1.14563155174255

> <r_i_glide_erotb>
0.116004018050472

> <r_i_glide_esite>
0

> <r_i_glide_emodel>
-46.3637074200964

> <r_i_glide_energy>
-33.6809484958649

> <r_i_glide_einternal>
2.05079865455627

> <i_i_glide_confnum>
1

> <i_i_glide_posenum>
107

> <r_i_glide_eff_state_penalty>
0

> <s_user_duplicate_titles>
579905

> <s_m_subgroup_title>
dock_pv

> <s_m_subgroupid>
dock_pv1

> <b_m_subgroup_collapsed>
0

$$$$
357575
                    3D
 Schrodinger Suite 2021-1.
 43 46  0  0  1  0            999 V2000
   34.4719    1.1848   29.2096 C   0  0  0  0  0  0
   34.2646   -0.3231   29.0014 C   0  0  0  0  0  0
   32.9347   -0.8624   29.5704 C   0  0  0  0  0  0
   31.6689   -0.3128   28.8958 C   0  0  0  0  0  0
   31.1798   -0.7778   27.7087 C   0  0  0  0  0  0
   31.7541   -1.7377   26.7236 C   0  0  0  0  0  0
   32.7940   -2.6765   26.7984 C   0  0  0  0  0  0
   33.2600   -3.3621   25.6701 C   0  0  0  0  0  0
   32.6875   -3.0601   24.4543 C   0  0  0  0  0  0
   31.6397   -2.1423   24.3583 C   0  0  0  0  0  0
   31.1380   -1.5033   25.4973 C   0  0  0  0  0  0
   30.0217   -0.5126   25.5965 C   0  0  0  0  0  0
   29.8638   -0.2477   27.0987 C   0  0  2  0  0  0
   29.8014    1.2701   27.4049 C   0  0  0  0  0  0
   29.8847    1.5720   28.9124 C   0  0  0  0  0  0
   31.0179    0.8083   29.6282 C   0  0  0  0  0  0
   31.2594    1.0579   30.8100 O   0  0  0  0  0  0
   28.6080   -0.9709   27.6921 C   0  0  0  0  0  0
   28.3956   -2.4516   27.3270 C   0  0  0  0  0  0
   31.2650   -2.0746   23.0640 N   0  0  0  0  0  0
   32.0610   -2.9233   22.3271 N   0  0  0  0  0  0
   32.9113   -3.5171   23.1697 N   0  0  0  0  0  0
   33.5738   -4.2023   22.8363 H   0  0  0  0  0  0
   35.4536    1.4954   28.8521 H   0  0  0  0  0  0
   34.4039    1.4548   30.2635 H   0  0  0  0  0  0
   33.7288    1.7667   28.6635 H   0  0  0  0  0  0
   34.3291   -0.5415   27.9353 H   0  0  0  0  0  0
   35.0930   -0.8620   29.4641 H   0  0  0  0  0  0
   32.9110   -1.9422   29.4699 H   0  0  0  0  0  0
   32.9284   -0.7340   30.6543 H   0  0  0  0  0  0
   33.2604   -2.9170   27.7340 H   0  0  0  0  0  0
   34.0354   -4.0997   25.6726 H   0  0  0  0  0  0
   29.1033   -0.8631   25.1279 H   0  0  0  0  0  0
   30.2988    0.3827   25.0637 H   0  0  0  0  0  0
   28.8874    1.7025   26.9947 H   0  0  0  0  0  0
   30.6225    1.7888   26.9068 H   0  0  0  0  0  0
   28.9525    1.2643   29.3834 H   0  0  0  0  0  0
   30.0099    2.6427   29.0643 H   0  0  0  0  0  0
   28.6304   -0.9034   28.7765 H   0  0  0  0  0  0
   27.7092   -0.4298   27.3924 H   0  0  0  0  0  0
   27.6178   -2.8939   27.9494 H   0  0  0  0  0  0
   28.0601   -2.5507   26.2945 H   0  0  0  0  0  0
   29.2989   -3.0471   27.4629 H   0  0  0  0  0  0
  1  2  1  0  0  0
  1 24  1  0  0  0
  1 25  1  0  0  0
  1 26  1  0  0  0
  2  3  1  0  0  0
  2 27  1  0  0  0
  2 28  1  0  0  0
  3  4  1  0  0  0
  3 29  1  0  0  0
  3 30  1  0  0  0
  4 16  1  0  0  0
  4  5  2  0  0  0
  5 13  1  0  0  0
  5  6  1  0  0  0
  6 11  2  0  0  0
  6  7  1  0  0  0
  7  8  2  0  0  0
  7 31  1  0  0  0
  8  9  1  0  0  0
  8 32  1  0  0  0
  9 22  1  0  0  0
  9 10  2  0  0  0
 10 11  1  0  0  0
 10 20  1  0  0  0
 11 12  1  0  0  0
 12 13  1  0  0  0
 12 33  1  0  0  0
 12 34  1  0  0  0
 13 14  1  0  0  0
 13 18  1  0  0  0
 14 15  1  0  0  0
 14 35  1  0  0  0
 14 36  1  0  0  0
 15 16  1  0  0  0
 15 37  1  0  0  0
 15 38  1  0  0  0
 16 17  2  0  0  0
 18 19  1  0  0  0
 18 39  1  0  0  0
 18 40  1  0  0  0
 19 41  1  0  0  0
 19 42  1  0  0  0
 19 43  1  0  0  0
 20 21  2  0  0  0
 21 22  1  0  0  0
 22 23  1  0  0  0
M  END
> <s_m_entry_id>
17349

> <s_m_entry_name>
ligand_docking-pose.276

> <s_m_Source_Path>
/home/csk/Desktop/cluster/DUD-E-result/esr1

> <s_m_Source_File>
ligand_docking-pose.sdf

> <i_m_Source_File_Index>
276

> <i_lp_mmshare_version>
53161

> <i_f3d_flags>
0

> <r_lp_tautomer_probability>
0.25

> <s_lp_Force_Field>
OPLS_2005

> <r_lp_Energy>
45.147156

> <b_lp_Chiralities_Consistent>
1

> <s_lp_Variant>
357575-3

> <s_i_glide_gridfile>
glide-grid_1sj0

> <i_i_glide_lignum>
1238

> <i_i_glide_rotatable_bonds>
3

> <r_i_docking_score>
-8.67727089217596

> <r_i_glide_ligand_efficiency>
-0.394421404189817

> <r_i_glide_ligand_efficiency_sa>
-1.10518428625347

> <r_i_glide_ligand_efficiency_ln>
-2.12104151719395

> <r_i_glide_gscore>
-8.67727089217596

> <r_i_glide_lipo>
-4.69106234776091

> <r_i_glide_hbond>
0

> <r_i_glide_metal>
0

> <r_i_glide_rewards>
-2.64406664663324

> <r_i_glide_evdw>
-28.9043712615967

> <r_i_glide_ecoul>
-0.711385190486908

> <r_i_glide_erotb>
0.209784443871065

> <r_i_glide_esite>
0

> <r_i_glide_emodel>
-44.8130257166469

> <r_i_glide_energy>
-29.6157564520836

> <r_i_glide_einternal>
0.46730825304985

> <i_i_glide_confnum>
2

> <i_i_glide_posenum>
320

> <r_i_glide_eff_state_penalty>
0

> <s_user_duplicate_titles>
357575

> <s_m_subgroup_title>
dock_pv

> <s_m_subgroupid>
dock_pv1

> <b_m_subgroup_collapsed>
0

$$$$
223288
                    3D
 Schrodinger Suite 2021-1.
 35 36  0  0  1  0            999 V2000
   32.5520   -0.0622   30.2506 C   0  0  0  0  0  0
   31.2600    0.1853   29.4783 C   0  0  0  0  0  0
   30.4870    1.0590   29.8645 O   0  0  0  0  0  0
   31.0099   -0.6920   28.2239 C   0  0  2  0  0  0
   31.8582   -0.1865   27.0286 C   0  0  0  0  0  0
   32.1094   -1.2312   25.9495 C   0  0  0  0  0  0
   31.6560   -1.0184   24.6458 C   0  0  0  0  0  0
   31.9850   -1.9230   23.6400 C   0  0  0  0  0  0
   32.7544   -3.0420   23.9410 C   0  0  0  0  0  0
   33.1876   -3.2717   25.2430 C   0  0  0  0  0  0
   32.8600   -2.3708   26.2510 C   0  0  0  0  0  0
   33.0879   -3.9316   22.9555 O   0  0  0  0  0  0
   29.5206   -0.8479   27.8461 C   0  0  0  0  0  0
   28.6696    0.2589   27.7073 C   0  0  0  0  0  0
   27.3392    0.0816   27.3405 C   0  0  0  0  0  0
   26.8608   -1.1949   27.0632 C   0  0  0  0  0  0
   27.6981   -2.3032   27.1715 C   0  0  0  0  0  0
   29.0254   -2.1267   27.5639 C   0  0  0  0  0  0
   25.5598   -1.3420   26.6643 O   0  0  0  0  0  0
   33.3950   -0.2134   29.5775 H   0  0  0  0  0  0
   32.7739    0.7853   30.9002 H   0  0  0  0  0  0
   32.4436   -0.9418   30.8826 H   0  0  0  0  0  0
   31.3729   -1.6811   28.5063 H   0  0  0  0  0  0
   31.3939    0.6994   26.5913 H   0  0  0  0  0  0
   32.8460    0.1487   27.3542 H   0  0  0  0  0  0
   31.0721   -0.1424   24.4065 H   0  0  0  0  0  0
   31.6600   -1.7454   22.6275 H   0  0  0  0  0  0
   33.7843   -4.1419   25.4639 H   0  0  0  0  0  0
   33.2209   -2.5428   27.2556 H   0  0  0  0  0  0
   32.6539   -3.7697   22.1133 H   0  0  0  0  0  0
   29.0288    1.2621   27.8786 H   0  0  0  0  0  0
   26.6836    0.9354   27.2405 H   0  0  0  0  0  0
   27.3303   -3.2934   26.9431 H   0  0  0  0  0  0
   29.6731   -2.9902   27.6328 H   0  0  0  0  0  0
   25.3285   -2.2234   26.3090 H   0  0  0  0  0  0
  1  2  1  0  0  0
  1 20  1  0  0  0
  1 21  1  0  0  0
  1 22  1  0  0  0
  2  3  2  0  0  0
  2  4  1  0  0  0
  4  5  1  0  0  0
  4 13  1  0  0  0
  4 23  1  0  0  0
  5  6  1  0  0  0
  5 24  1  0  0  0
  5 25  1  0  0  0
  6 11  1  0  0  0
  6  7  2  0  0  0
  7  8  1  0  0  0
  7 26  1  0  0  0
  8  9  2  0  0  0
  8 27  1  0  0  0
  9 10  1  0  0  0
  9 12  1  0  0  0
 10 11  2  0  0  0
 10 28  1  0  0  0
 11 29  1  0  0  0
 12 30  1  0  0  0
 13 18  1  0  0  0
 13 14  2  0  0  0
 14 15  1  0  0  0
 14 31  1  0  0  0
 15 16  2  0  0  0
 15 32  1  0  0  0
 16 17  1  0  0  0
 16 19  1  0  0  0
 17 18  2  0  0  0
 17 33  1  0  0  0
 18 34  1  0  0  0
 19 35  1  0  0  0
M  END
> <s_m_entry_id>
17350

> <s_m_entry_name>
ligand_docking-pose.277

> <s_m_Source_Path>
/home/csk/Desktop/cluster/DUD-E-result/esr1

> <s_m_Source_File>
ligand_docking-pose.sdf

> <i_m_Source_File_Index>
277

> <i_lp_mmshare_version>
53161

> <i_f3d_flags>
0

> <r_lp_tautomer_probability>
0.99999996999473

> <s_lp_Force_Field>
OPLS_2005

> <r_lp_Energy>
11.024483

> <b_lp_Chiralities_Consistent>
1

> <s_lp_Variant>
223288-1

> <s_i_glide_gridfile>
glide-grid_1sj0

> <i_i_glide_lignum>
1647

> <i_i_glide_rotatable_bonds>
6

> <r_i_docking_score>
-8.67636215371591

> <r_i_glide_ligand_efficiency>
-0.456650639669258

> <r_i_glide_ligand_efficiency_sa>
-1.21852731858742

> <r_i_glide_ligand_efficiency_ln>
-2.19964415713929

> <r_i_glide_gscore>
-8.67636215371591

> <r_i_glide_lipo>
-3.93811465733651

> <r_i_glide_hbond>
-0.16

> <r_i_glide_metal>
0

> <r_i_glide_rewards>
-2.56081148337791

> <r_i_glide_evdw>
-34.4885063171387

> <r_i_glide_ecoul>
-5.70952987670898

> <r_i_glide_erotb>
0.563418784361793

> <r_i_glide_esite>
0

> <r_i_glide_emodel>
-62.4969402424835

> <r_i_glide_energy>
-40.1980361938477

> <r_i_glide_einternal>
1.32133948802948

> <i_i_glide_confnum>
5

> <i_i_glide_posenum>
61

> <r_i_glide_eff_state_penalty>
0

> <s_user_duplicate_titles>
223288

> <s_m_subgroup_title>
dock_pv

> <s_m_subgroupid>
dock_pv1

> <b_m_subgroup_collapsed>
0

$$$$
398418
                    3D
 Schrodinger Suite 2021-1.
 46 49  0  0  1  0            999 V2000
   35.0804    0.5535   28.2911 C   0  0  0  0  0  0
   35.1294   -0.5420   29.2015 O   0  0  0  0  0  0
   33.9755   -1.3914   29.2560 C   0  0  0  0  0  0
   32.6956   -0.5812   29.3845 C   0  0  0  0  0  0
   32.4212    0.0458   30.5917 C   0  0  0  0  0  0
   31.3272    0.8892   30.6853 C   0  0  0  0  0  0
   30.5260    1.1521   29.5778 C   0  0  0  0  0  0
   30.7640    0.5178   28.3558 C   0  0  0  0  0  0
   31.8416   -0.3860   28.2923 C   0  0  0  0  0  0
   32.0743   -1.1871   27.1977 O   0  0  0  0  0  0
   31.6803   -0.6652   25.9355 C   0  0  2  0  0  0
   30.1781   -0.2375   26.0028 C   0  0  2  0  0  0
   29.9189    0.7978   27.1104 C   0  0  1  0  0  0
   28.3977    0.7417   27.3130 C   0  0  0  0  0  0
   28.0182   -0.7281   27.1211 C   0  0  0  0  0  0
   29.1435   -1.3481   26.2759 C   0  0  0  0  0  0
   32.0329   -1.6799   24.8349 C   0  0  0  0  0  0
   31.3653   -1.6572   23.6136 C   0  0  0  0  0  0
   31.6600   -2.5854   22.6148 C   0  0  0  0  0  0
   32.6218   -3.5623   22.8395 C   0  0  0  0  0  0
   33.3255   -3.5702   24.0395 C   0  0  0  0  0  0
   33.0351   -2.6382   25.0335 C   0  0  0  0  0  0
   32.8601   -4.5394   21.9048 O   0  0  0  0  0  0
   31.0458    1.4580   31.8813 O   0  0  0  0  0  0
   32.2961    0.2088   25.7114 H   0  0  0  0  0  0
   29.9019    0.2580   25.0726 H   0  0  0  0  0  0
   30.2230    1.8036   26.8161 H   0  0  0  0  0  0
   36.0600    0.7475   27.8640 H   0  0  0  0  0  0
   34.7487    1.4548   28.8076 H   0  0  0  0  0  0
   34.3995    0.3757   27.4640 H   0  0  0  0  0  0
   33.9421   -2.0454   28.3892 H   0  0  0  0  0  0
   34.0600   -2.0708   30.1019 H   0  0  0  0  0  0
   33.0704   -0.1116   31.4412 H   0  0  0  0  0  0
   29.7084    1.8508   29.6794 H   0  0  0  0  0  0
   28.0664    1.1580   28.2637 H   0  0  0  0  0  0
   27.9163    1.3748   26.5655 H   0  0  0  0  0  0
   27.0430   -0.8307   26.6424 H   0  0  0  0  0  0
   27.9574   -1.2302   28.0879 H   0  0  0  0  0  0
   28.7488   -1.7410   25.3425 H   0  0  0  0  0  0
   29.5960   -2.1837   26.8133 H   0  0  0  0  0  0
   30.5842   -0.9327   23.4640 H   0  0  0  0  0  0
   31.1116   -2.5733   21.6845 H   0  0  0  0  0  0
   34.0600   -4.3371   24.2195 H   0  0  0  0  0  0
   33.5815   -2.6800   25.9640 H   0  0  0  0  0  0
   32.1660   -4.6883   21.2502 H   0  0  0  0  0  0
   31.6597    1.1981   32.5705 H   0  0  0  0  0  0
  1  2  1  0  0  0
  1 28  1  0  0  0
  1 29  1  0  0  0
  1 30  1  0  0  0
  2  3  1  0  0  0
  3  4  1  0  0  0
  3 31  1  0  0  0
  3 32  1  0  0  0
  4  9  1  0  0  0
  4  5  2  0  0  0
  5  6  1  0  0  0
  5 33  1  0  0  0
  6  7  2  0  0  0
  6 24  1  0  0  0
  7  8  1  0  0  0
  7 34  1  0  0  0
  8 13  1  0  0  0
  8  9  2  0  0  0
  9 10  1  0  0  0
 10 11  1  0  0  0
 11 25  1  0  0  0
 11 12  1  0  0  0
 11 17  1  0  0  0
 12 26  1  0  0  0
 12 16  1  0  0  0
 12 13  1  0  0  0
 13 27  1  0  0  0
 13 14  1  0  0  0
 14 15  1  0  0  0
 14 35  1  0  0  0
 14 36  1  0  0  0
 15 16  1  0  0  0
 15 37  1  0  0  0
 15 38  1  0  0  0
 16 39  1  0  0  0
 16 40  1  0  0  0
 17 22  1  0  0  0
 17 18  2  0  0  0
 18 19  1  0  0  0
 18 41  1  0  0  0
 19 20  2  0  0  0
 19 42  1  0  0  0
 20 21  1  0  0  0
 20 23  1  0  0  0
 21 22  2  0  0  0
 21 43  1  0  0  0
 22 44  1  0  0  0
 23 45  1  0  0  0
 24 46  1  0  0  0
M  END
> <s_m_entry_id>
17351

> <s_m_entry_name>
ligand_docking-pose.278

> <s_m_Source_Path>
/home/csk/Desktop/cluster/DUD-E-result/esr1

> <s_m_Source_File>
ligand_docking-pose.sdf

> <i_m_Source_File_Index>
278

> <i_lp_mmshare_version>
53161

> <i_f3d_flags>
0

> <r_lp_tautomer_probability>
0.999999999997365

> <s_lp_Force_Field>
OPLS_2005

> <r_lp_Energy>
35.807143

> <b_lp_Chiralities_Consistent>
1

> <s_lp_Variant>
398418-1

> <s_i_glide_gridfile>
glide-grid_1sj0

> <i_i_glide_lignum>
1795

> <i_i_glide_rotatable_bonds>
5

> <r_i_docking_score>
-8.67122641287253

> <r_i_glide_ligand_efficiency>
-0.361301100536356

> <r_i_glide_ligand_efficiency_sa>
-1.04217271289628

> <r_i_glide_ligand_efficiency_ln>
-2.07542237725319

> <r_i_glide_gscore>
-8.67122641287253

> <r_i_glide_lipo>
-5.06063638219836

> <r_i_glide_hbond>
-0.0624190224819128

> <r_i_glide_metal>
0

> <r_i_glide_rewards>
-2.08372990909091

> <r_i_glide_evdw>
-33.8598823547363

> <r_i_glide_ecoul>
-0.823619186878204

> <r_i_glide_erotb>
0.352095896667197

> <r_i_glide_esite>
0

> <r_i_glide_emodel>
-42.1842776314154

> <r_i_glide_energy>
-34.6835015416145

> <r_i_glide_einternal>
6.9974422454834

> <i_i_glide_confnum>
7

> <i_i_glide_posenum>
293

> <r_i_glide_eff_state_penalty>
0

> <s_user_duplicate_titles>
398418

> <s_m_subgroup_title>
dock_pv

> <s_m_subgroupid>
dock_pv1

> <b_m_subgroup_collapsed>
0

$$$$
357384
                    3D
 Schrodinger Suite 2021-1.
 37 40  0  0  1  0            999 V2000
   27.4800   -1.8896   26.5876 C   0  0  0  0  0  0
   28.9474   -1.8598   27.0606 C   0  0  0  0  0  0
   29.8436   -0.7076   26.4882 C   0  0  1  0  0  0
   29.3013    0.7028   26.8438 C   0  0  0  0  0  0
   29.3181    0.9526   28.3615 C   0  0  0  0  0  0
   30.6857    0.6579   29.0026 C   0  0  0  0  0  0
   30.8603    0.9868   30.1753 O   0  0  0  0  0  0
   31.6388   -0.1995   28.2384 C   0  0  0  0  0  0
   31.2552   -0.8369   27.0889 C   0  0  0  0  0  0
   31.9746   -1.7686   26.1715 C   0  0  0  0  0  0
   33.1002   -2.5723   26.3584 C   0  0  0  0  0  0
   33.6311   -3.3401   25.3185 C   0  0  0  0  0  0
   33.0680   -3.2428   24.0535 C   0  0  0  0  0  0
   31.9314   -2.4378   23.8444 C   0  0  0  0  0  0
   31.3493   -1.7365   24.9239 C   0  0  0  0  0  0
   30.1144   -0.8822   24.9816 C   0  0  0  0  0  0
   31.5813   -2.5423   22.5342 N   0  0  0  0  0  0
   32.4955   -3.4057   22.0614 N   0  0  3  0  0  0
   33.4377   -3.8586   22.9001 N   0  0  0  0  0  0
   33.0585   -0.3239   28.8332 C   0  0  0  0  0  0
   33.3800    0.6565   29.6820 F   0  0  0  0  0  0
   33.1803   -1.4891   29.4640 F   0  0  0  0  0  0
   33.9654   -0.2579   27.8643 F   0  0  0  0  0  0
   32.4667   -3.7164   21.0990 H   0  0  0  0  0  0
   26.9462   -2.7199   27.0511 H   0  0  0  0  0  0
   26.9455   -0.9792   26.8555 H   0  0  0  0  0  0
   27.3903   -2.0262   25.5106 H   0  0  0  0  0  0
   29.4018   -2.8248   26.8316 H   0  0  0  0  0  0
   28.9474   -1.8216   28.1503 H   0  0  0  0  0  0
   28.2965    0.8466   26.4464 H   0  0  0  0  0  0
   29.9124    1.4737   26.3743 H   0  0  0  0  0  0
   29.0082    1.9653   28.6190 H   0  0  0  0  0  0
   28.6083    0.2713   28.8264 H   0  0  0  0  0  0
   33.5670   -2.6483   27.3273 H   0  0  0  0  0  0
   34.4598   -4.0042   25.4623 H   0  0  0  0  0  0
   29.2693   -1.3413   24.4805 H   0  0  0  0  0  0
   30.2898    0.0680   24.4895 H   0  0  0  0  0  0
  1  2  1  0  0  0
  1 25  1  0  0  0
  1 26  1  0  0  0
  1 27  1  0  0  0
  2  3  1  0  0  0
  2 28  1  0  0  0
  2 29  1  0  0  0
  3  9  1  0  0  0
  3 16  1  0  0  0
  3  4  1  0  0  0
  4  5  1  0  0  0
  4 30  1  0  0  0
  4 31  1  0  0  0
  5  6  1  0  0  0
  5 32  1  0  0  0
  5 33  1  0  0  0
  6  7  2  0  0  0
  6  8  1  0  0  0
  8  9  2  0  0  0
  8 20  1  0  0  0
  9 10  1  0  0  0
 10 15  2  0  0  0
 10 11  1  0  0  0
 11 12  2  0  0  0
 11 34  1  0  0  0
 12 13  1  0  0  0
 12 35  1  0  0  0
 13 14  1  0  0  0
 13 19  2  0  0  0
 14 15  1  0  0  0
 14 17  2  0  0  0
 15 16  1  0  0  0
 16 36  1  0  0  0
 16 37  1  0  0  0
 17 18  1  0  0  0
 18 24  1  0  0  0
 18 19  1  0  0  0
 20 21  1  0  0  0
 20 22  1  0  0  0
 20 23  1  0  0  0
M  END
> <s_m_entry_id>
17352

> <s_m_entry_name>
ligand_docking-pose.279

> <s_m_Source_Path>
/home/csk/Desktop/cluster/DUD-E-result/esr1

> <s_m_Source_File>
ligand_docking-pose.sdf

> <i_m_Source_File_Index>
279

> <i_lp_mmshare_version>
53161

> <i_f3d_flags>
0

> <r_lp_tautomer_probability>
0.5

> <s_lp_Force_Field>
OPLS_2005

> <r_lp_Energy>
32.137998

> <b_lp_Chiralities_Consistent>
1

> <s_lp_Variant>
357384-1

> <s_i_glide_gridfile>
glide-grid_1sj0

> <i_i_glide_lignum>
1090

> <i_i_glide_rotatable_bonds>
2

> <r_i_docking_score>
-8.66586012835317

> <r_i_glide_ligand_efficiency>
-0.376776527319703

> <r_i_glide_ligand_efficiency_sa>
-1.07150232370775

> <r_i_glide_ligand_efficiency_ln>
-2.09548355671105

> <r_i_glide_gscore>
-8.66586012835317

> <r_i_glide_lipo>
-3.69569519922811

> <r_i_glide_hbond>
0

> <r_i_glide_metal>
0

> <r_i_glide_rewards>
-3.35668168494438

> <r_i_glide_evdw>
-28.6448936462402

> <r_i_glide_ecoul>
-1.20825707912445

> <r_i_glide_erotb>
0

> <r_i_glide_esite>
0

> <r_i_glide_emodel>
-45.1986078143844

> <r_i_glide_energy>
-29.8531507253647

> <r_i_glide_einternal>
0.456968724727631

> <i_i_glide_confnum>
1

> <i_i_glide_posenum>
57

> <r_i_glide_eff_state_penalty>
0

> <s_user_duplicate_titles>
357384

> <s_m_subgroup_title>
dock_pv

> <s_m_subgroupid>
dock_pv1

> <b_m_subgroup_collapsed>
0

$$$$
88934
                    3D
 Schrodinger Suite 2021-1.
 45 48  0  0  1  0            999 V2000
   33.6349    1.6435   28.2000 C   0  0  0  0  0  0
   32.8609    0.4520   28.8320 C   0  0  2  0  0  0
   33.6614   -0.8382   28.4889 C   0  0  0  0  0  0
   32.8599   -2.1419   28.4544 C   0  0  0  0  0  0
   31.5570   -2.0374   27.6477 C   0  0  2  0  0  0
   31.7289   -1.9884   26.1314 C   0  0  0  0  0  0
   32.7132   -2.7705   25.5098 C   0  0  0  0  0  0
   32.7576   -2.9124   24.1324 C   0  0  0  0  0  0
   31.8361   -2.2366   23.3445 C   0  0  0  0  0  0
   30.9261   -1.3623   23.9469 C   0  0  0  0  0  0
   30.8155   -1.2699   25.3288 C   0  0  0  0  0  0
   29.6602   -0.4584   25.9254 C   0  0  0  0  0  0
   29.3634   -0.8721   27.3741 C   0  0  0  0  0  0
   30.6693   -0.9024   28.1958 C   0  0  2  0  0  0
   31.3986    0.4684   28.2877 C   0  0  1  0  0  0
   30.6493    1.4578   29.1928 C   0  0  0  0  0  0
   31.3895    1.4581   30.5311 C   0  0  0  0  0  0
   32.6818    0.6588   30.3671 C   0  0  1  0  0  0
   32.4601   -0.5420   31.0640 O   0  0  0  0  0  0
   31.7598   -2.5420   22.0102 O   0  0  0  0  0  0
   33.6600   -3.7725   23.5678 O   0  0  0  0  0  0
   34.6024    1.7971   28.6808 H   0  0  0  0  0  0
   33.8272    1.4852   27.1375 H   0  0  0  0  0  0
   33.0789    2.5786   28.2638 H   0  0  0  0  0  0
   34.0122   -0.7453   27.4640 H   0  0  0  0  0  0
   34.5758   -0.9158   29.0795 H   0  0  0  0  0  0
   33.4691   -2.9993   28.1739 H   0  0  0  0  0  0
   32.5789   -2.3894   29.4640 H   0  0  0  0  0  0
   30.9758   -2.9420   27.8069 H   0  0  0  0  0  0
   33.4043   -3.3531   26.0956 H   0  0  0  0  0  0
   30.1738   -0.8441   23.3886 H   0  0  0  0  0  0
   29.8824    0.6054   25.8606 H   0  0  0  0  0  0
   28.7582   -0.5962   25.3313 H   0  0  0  0  0  0
   28.6507   -0.1622   27.7936 H   0  0  0  0  0  0
   28.8788   -1.8505   27.3878 H   0  0  0  0  0  0
   30.3974   -1.1868   29.2144 H   0  0  0  0  0  0
   31.4457    0.8837   27.2827 H   0  0  0  0  0  0
   30.6505    2.4512   28.7453 H   0  0  0  0  0  0
   29.6019    1.1948   29.3425 H   0  0  0  0  0  0
   31.6600    2.4786   30.7663 H   0  0  0  0  0  0
   30.7534    1.1182   31.3520 H   0  0  0  0  0  0
   33.5279    1.1886   30.8093 H   0  0  0  0  0  0
   33.3031   -0.9965   31.1515 H   0  0  0  0  0  0
   32.3385   -3.2788   21.7904 H   0  0  0  0  0  0
   34.0617   -4.3713   24.2032 H   0  0  0  0  0  0
  1  2  1  0  0  0
  1 22  1  0  0  0
  1 23  1  0  0  0
  1 24  1  0  0  0
  2 15  1  0  0  0
  2 18  1  0  0  0
  2  3  1  0  0  0
  3  4  1  0  0  0
  3 25  1  0  0  0
  3 26  1  0  0  0
  4  5  1  0  0  0
  4 27  1  0  0  0
  4 28  1  0  0  0
  5 14  1  0  0  0
  5  6  1  0  0  0
  5 29  1  0  0  0
  6 11  2  0  0  0
  6  7  1  0  0  0
  7  8  2  0  0  0
  7 30  1  0  0  0
  8  9  1  0  0  0
  8 21  1  0  0  0
  9 10  2  0  0  0
  9 20  1  0  0  0
 10 11  1  0  0  0
 10 31  1  0  0  0
 11 12  1  0  0  0
 12 13  1  0  0  0
 12 32  1  0  0  0
 12 33  1  0  0  0
 13 14  1  0  0  0
 13 34  1  0  0  0
 13 35  1  0  0  0
 14 15  1  0  0  0
 14 36  1  0  0  0
 15 16  1  0  0  0
 15 37  1  0  0  0
 16 17  1  0  0  0
 16 38  1  0  0  0
 16 39  1  0  0  0
 17 18  1  0  0  0
 17 40  1  0  0  0
 17 41  1  0  0  0
 18 19  1  0  0  0
 18 42  1  0  0  0
 19 43  1  0  0  0
 20 44  1  0  0  0
 21 45  1  0  0  0
M  END
> <s_m_entry_id>
17353

> <s_m_entry_name>
ligand_docking-pose.280

> <s_m_Source_Path>
/home/csk/Desktop/cluster/DUD-E-result/esr1

> <s_m_Source_File>
ligand_docking-pose.sdf

> <i_m_Source_File_Index>
280

> <i_lp_mmshare_version>
53161

> <i_f3d_flags>
0

> <r_lp_tautomer_probability>
0.999999999999776

> <s_lp_Force_Field>
OPLS_2005

> <r_lp_Energy>
49.006804

> <b_lp_Chiralities_Consistent>
1

> <s_lp_Variant>
88934-1

> <s_i_glide_gridfile>
glide-grid_1sj0

> <i_i_glide_lignum>
715

> <i_i_glide_rotatable_bonds>
3

> <r_i_docking_score>
-8.66446886013239

> <r_i_glide_ligand_efficiency>
-0.4125937552444

> <r_i_glide_ligand_efficiency_sa>
-1.13831488521244

> <r_i_glide_ligand_efficiency_ln>
-2.14227241745986

> <r_i_glide_gscore>
-8.66446886013239

> <r_i_glide_lipo>
-4.64027588639371

> <r_i_glide_hbond>
0

> <r_i_glide_metal>
0

> <r_i_glide_rewards>
-2.29354626215077

> <r_i_glide_evdw>
-30.3741760253906

> <r_i_glide_ecoul>
-1.4129194021225

> <r_i_glide_erotb>
0

> <r_i_glide_esite>
0

> <r_i_glide_emodel>
-38.7957179625648

> <r_i_glide_energy>
-31.7870954275131

> <r_i_glide_einternal>
2.58321046829224

> <i_i_glide_confnum>
1

> <i_i_glide_posenum>
157

> <r_i_glide_eff_state_penalty>
0

> <s_user_duplicate_titles>
88934

> <s_m_subgroup_title>
dock_pv

> <s_m_subgroupid>
dock_pv1

> <b_m_subgroup_collapsed>
0

$$$$
113501
                    3D
 Schrodinger Suite 2021-1.
 58 60  0  0  1  0            999 V2000
   36.8993   -3.1337   19.5756 C   0  0  0  0  0  0
   35.8321   -2.6197   20.4304 N   0  0  0  0  0  0
   35.5367   -1.2481   20.0127 C   0  0  0  0  0  0
   34.6590   -3.5076   20.3471 C   0  0  0  0  0  0
   33.5149   -3.1433   21.3157 C   0  0  0  0  0  0
   33.9244   -3.2558   22.6829 O   0  0  0  0  0  0
   33.1340   -2.7128   23.6814 C   0  0  0  0  0  0
   33.5186   -2.9571   24.9951 C   0  0  0  0  0  0
   32.7836   -2.4438   26.0627 C   0  0  0  0  0  0
   31.6471   -1.6639   25.8207 C   0  0  0  0  0  0
   31.2638   -1.4008   24.5065 C   0  0  0  0  0  0
   31.9947   -1.9350   23.4535 C   0  0  0  0  0  0
   30.8237   -1.1542   26.9386 C   0  0  0  0  0  0
   31.2759   -0.3082   27.9028 C   0  0  0  0  0  0
   30.3989    0.1563   29.0633 C   0  0  0  0  0  0
   29.9650    1.6256   29.0064 C   0  0  0  0  0  0
   29.1973    1.8577   27.8434 O   0  0  0  0  0  0
   32.6256    0.2778   27.8897 C   0  0  0  0  0  0
   32.8968    1.2785   26.9606 C   0  0  0  0  0  0
   34.1363    1.8982   26.9406 C   0  0  0  0  0  0
   35.1023    1.5212   27.8643 C   0  0  0  0  0  0
   34.8417    0.5285   28.8076 C   0  0  0  0  0  0
   33.5945   -0.0913   28.8275 C   0  0  0  0  0  0
   29.4431   -1.6761   26.9858 C   0  0  0  0  0  0
   29.2150   -2.8462   27.7029 C   0  0  0  0  0  0
   27.9265   -3.3387   27.8645 C   0  0  0  0  0  0
   26.8601   -2.6278   27.3283 C   0  0  0  0  0  0
   27.0730   -1.4629   26.5935 C   0  0  0  0  0  0
   28.3707   -0.9871   26.4117 C   0  0  0  0  0  0
   37.7949   -2.5163   19.6615 H   0  0  0  0  0  0
   37.1798   -4.1453   19.8619 H   0  0  0  0  0  0
   36.6031   -3.1541   18.5249 H   0  0  0  0  0  0
   36.4328   -0.6275   20.0597 H   0  0  0  0  0  0
   35.1544   -1.2131   18.9907 H   0  0  0  0  0  0
   34.8042   -0.7752   20.6637 H   0  0  0  0  0  0
   34.9475   -4.5375   20.5592 H   0  0  0  0  0  0
   34.2745   -3.5153   19.3253 H   0  0  0  0  0  0
   32.6739   -3.8184   21.1474 H   0  0  0  0  0  0
   33.1665   -2.1448   21.0653 H   0  0  0  0  0  0
   34.3956   -3.5600   25.1685 H   0  0  0  0  0  0
   33.0941   -2.6594   27.0747 H   0  0  0  0  0  0
   30.3861   -0.8073   24.2959 H   0  0  0  0  0  0
   31.6599   -1.7448   22.4511 H   0  0  0  0  0  0
   29.4864   -0.4304   29.0639 H   0  0  0  0  0  0
   30.9033   -0.0560   30.0066 H   0  0  0  0  0  0
   29.3547    1.8574   29.8788 H   0  0  0  0  0  0
   30.8297    2.2879   29.0212 H   0  0  0  0  0  0
   28.4112    1.3073   27.8790 H   0  0  0  0  0  0
   32.1327    1.5717   26.2640 H   0  0  0  0  0  0
   34.3547    2.6575   26.2070 H   0  0  0  0  0  0
   36.0642    2.0077   27.8467 H   0  0  0  0  0  0
   35.6057    0.2462   29.5172 H   0  0  0  0  0  0
   33.3869   -0.8560   29.5625 H   0  0  0  0  0  0
   30.0582   -3.3421   28.1447 H   0  0  0  0  0  0
   27.7542   -4.2499   28.4187 H   0  0  0  0  0  0
   25.8540   -2.9983   27.4641 H   0  0  0  0  0  0
   26.2294   -0.9436   26.1636 H   0  0  0  0  0  0
   28.5392   -0.0759   25.8559 H   0  0  0  0  0  0
  1  2  1  0  0  0
  1 30  1  0  0  0
  1 31  1  0  0  0
  1 32  1  0  0  0
  2  3  1  0  0  0
  2  4  1  0  0  0
  3 33  1  0  0  0
  3 34  1  0  0  0
  3 35  1  0  0  0
  4  5  1  0  0  0
  4 36  1  0  0  0
  4 37  1  0  0  0
  5  6  1  0  0  0
  5 38  1  0  0  0
  5 39  1  0  0  0
  6  7  1  0  0  0
  7 12  1  0  0  0
  7  8  2  0  0  0
  8  9  1  0  0  0
  8 40  1  0  0  0
  9 10  2  0  0  0
  9 41  1  0  0  0
 10 11  1  0  0  0
 10 13  1  0  0  0
 11 12  2  0  0  0
 11 42  1  0  0  0
 12 43  1  0  0  0
 13 14  2  0  0  0
 13 24  1  0  0  0
 14 15  1  0  0  0
 14 18  1  0  0  0
 15 16  1  0  0  0
 15 44  1  0  0  0
 15 45  1  0  0  0
 16 17  1  0  0  0
 16 46  1  0  0  0
 16 47  1  0  0  0
 17 48  1  0  0  0
 18 23  1  0  0  0
 18 19  2  0  0  0
 19 20  1  0  0  0
 19 49  1  0  0  0
 20 21  2  0  0  0
 20 50  1  0  0  0
 21 22  1  0  0  0
 21 51  1  0  0  0
 22 23  2  0  0  0
 22 52  1  0  0  0
 23 53  1  0  0  0
 24 29  1  0  0  0
 24 25  2  0  0  0
 25 26  1  0  0  0
 25 54  1  0  0  0
 26 27  2  0  0  0
 26 55  1  0  0  0
 27 28  1  0  0  0
 27 56  1  0  0  0
 28 29  2  0  0  0
 28 57  1  0  0  0
 29 58  1  0  0  0
M  END
> <s_m_entry_id>
17354

> <s_m_entry_name>
ligand_docking-pose.281

> <s_m_Source_Path>
/home/csk/Desktop/cluster/DUD-E-result/esr1

> <s_m_Source_File>
ligand_docking-pose.sdf

> <i_m_Source_File_Index>
281

> <i_lp_mmshare_version>
53161

> <i_f3d_flags>
0

> <r_lp_tautomer_probability>
1

> <s_lp_Force_Field>
OPLS_2005

> <r_lp_Energy>
41.787945

> <b_lp_Chiralities_Consistent>
1

> <s_lp_Variant>
113501-1

> <s_i_glide_gridfile>
glide-grid_1sj0

> <i_i_glide_lignum>
1731

> <i_i_glide_rotatable_bonds>
10

> <r_i_docking_score>
-8.6575944711956

> <r_i_glide_ligand_efficiency>
-0.298537740386055

> <r_i_glide_ligand_efficiency_sa>
-0.917202521860813

> <r_i_glide_ligand_efficiency_ln>
-1.98236959625023

> <r_i_glide_gscore>
-8.6575944711956

> <r_i_glide_lipo>
-5.39102057682558

> <r_i_glide_hbond>
0

> <r_i_glide_metal>
0

> <r_i_glide_rewards>
-1.66670604873103

> <r_i_glide_evdw>
-48.2141494750977

> <r_i_glide_ecoul>
-1.51096653938293

> <r_i_glide_erotb>
1.03748460902333

> <r_i_glide_esite>
0

> <r_i_glide_emodel>
-68.4364880977456

> <r_i_glide_energy>
-49.7251160144806

> <r_i_glide_einternal>
8.47931098937988

> <i_i_glide_confnum>
20

> <i_i_glide_posenum>
54

> <r_i_glide_eff_state_penalty>
0

> <s_user_duplicate_titles>
113501

> <s_m_subgroup_title>
dock_pv

> <s_m_subgroupid>
dock_pv1

> <b_m_subgroup_collapsed>
0

$$$$
313421
                    3D
 Schrodinger Suite 2021-1.
 32 35  0  0  1  0            999 V2000
   30.8114   -1.3421   24.0912 C   0  0  0  0  0  0
   30.7871   -1.0097   25.4370 C   0  0  0  0  0  0
   31.6905   -1.5933   26.3117 C   0  0  0  0  0  0
   32.6482   -2.4928   25.8517 C   0  0  0  0  0  0
   32.6886   -2.8520   24.4858 C   0  0  0  0  0  0
   31.7212   -2.3137   23.5879 C   0  0  0  0  0  0
   31.6938   -2.8085   22.2480 C   0  0  0  0  0  0
   32.6876   -3.6667   21.7873 C   0  0  0  0  0  0
   33.6754   -4.1027   22.6483 C   0  0  0  0  0  0
   33.6600   -3.7418   23.9906 C   0  0  0  0  0  0
   32.7265   -4.0803   20.4827 O   0  0  0  0  0  0
   31.6980   -1.2006   27.7259 C   0  0  0  0  0  0
   32.5975   -0.2622   28.2783 C   0  0  0  0  0  0
   33.6056    0.5815   27.8004 C   0  0  0  0  0  0
   34.3385    1.3170   28.7213 C   0  0  0  0  0  0
   34.0598    1.2385   30.0868 C   0  0  0  0  0  0
   33.0144    0.4565   30.5838 C   0  0  0  0  0  0
   32.3048   -0.2928   29.6440 C   0  0  0  0  0  0
   31.2599   -1.1385   29.8638 O   0  0  0  0  0  0
   30.8835   -1.6964   28.6327 N   0  0  0  0  0  0
   35.3257    2.1408   28.2635 O   0  0  0  0  0  0
   30.0601   -0.9036   23.4639 H   0  0  0  0  0  0
   30.0611   -0.2949   25.7979 H   0  0  0  0  0  0
   33.3719   -2.9162   26.5337 H   0  0  0  0  0  0
   30.9026   -2.5418   21.5682 H   0  0  0  0  0  0
   34.4564   -4.7448   22.2645 H   0  0  0  0  0  0
   34.4070   -4.1362   24.6645 H   0  0  0  0  0  0
   32.0966   -4.7944   20.2698 H   0  0  0  0  0  0
   33.8176    0.6580   26.7449 H   0  0  0  0  0  0
   34.6285    1.8579   30.7629 H   0  0  0  0  0  0
   32.7780    0.4220   31.6356 H   0  0  0  0  0  0
   36.1886    1.9335   28.6482 H   0  0  0  0  0  0
  1  6  1  0  0  0
  1  2  2  0  0  0
  1 22  1  0  0  0
  2  3  1  0  0  0
  2 23  1  0  0  0
  3  4  2  0  0  0
  3 12  1  0  0  0
  4  5  1  0  0  0
  4 24  1  0  0  0
  5 10  2  0  0  0
  5  6  1  0  0  0
  6  7  2  0  0  0
  7  8  1  0  0  0
  7 25  1  0  0  0
  8  9  2  0  0  0
  8 11  1  0  0  0
  9 10  1  0  0  0
  9 26  1  0  0  0
 10 27  1  0  0  0
 11 28  1  0  0  0
 12 20  2  0  0  0
 12 13  1  0  0  0
 13 18  2  0  0  0
 13 14  1  0  0  0
 14 15  2  0  0  0
 14 29  1  0  0  0
 15 16  1  0  0  0
 15 21  1  0  0  0
 16 17  2  0  0  0
 16 30  1  0  0  0
 17 18  1  0  0  0
 17 31  1  0  0  0
 18 19  1  0  0  0
 19 20  1  0  0  0
 21 32  1  0  0  0
M  END
> <s_m_entry_id>
17355

> <s_m_entry_name>
ligand_docking-pose.282

> <s_m_Source_Path>
/home/csk/Desktop/cluster/DUD-E-result/esr1

> <s_m_Source_File>
ligand_docking-pose.sdf

> <i_m_Source_File_Index>
282

> <i_lp_mmshare_version>
53161

> <i_f3d_flags>
0

> <r_lp_tautomer_probability>
1

> <s_lp_Force_Field>
OPLS_2005

> <r_lp_Energy>
24.9373

> <b_lp_Chiralities_Consistent>
1

> <s_lp_Variant>
313421-1

> <s_i_glide_gridfile>
glide-grid_1sj0

> <i_i_glide_lignum>
134

> <i_i_glide_rotatable_bonds>
3

> <r_i_docking_score>
-8.65757026710346

> <r_i_glide_ligand_efficiency>
-0.412265250814451

> <r_i_glide_ligand_efficiency_sa>
-1.13740856639953

> <r_i_glide_ligand_efficiency_ln>
-2.14056675427337

> <r_i_glide_gscore>
-8.65757026710346

> <r_i_glide_lipo>
-3.792101229944

> <r_i_glide_hbond>
-0.456

> <r_i_glide_metal>
0

> <r_i_glide_rewards>
-2.22677420237011

> <r_i_glide_evdw>
-24.7500247955322

> <r_i_glide_ecoul>
-7.86266994476318

> <r_i_glide_erotb>
0.234206896701733

> <r_i_glide_esite>
0

> <r_i_glide_emodel>
-41.8191087144054

> <r_i_glide_energy>
-32.6126947402954

> <r_i_glide_einternal>
11.807149887085

> <i_i_glide_confnum>
1

> <i_i_glide_posenum>
59

> <r_i_glide_eff_state_penalty>
0

> <s_user_duplicate_titles>
313421

> <s_m_subgroup_title>
dock_pv

> <s_m_subgroupid>
dock_pv1

> <b_m_subgroup_collapsed>
0

$$$$
339241
                    3D
 Schrodinger Suite 2021-1.
 37 38  0  0  1  0            999 V2000
   34.4634    2.5188   27.4654 C   0  0  0  0  0  0
   33.6557    1.2880   27.8815 C   0  0  0  0  0  0
   32.4381    1.0479   26.9744 C   0  0  0  0  0  0
   31.8182   -0.2541   27.1896 N   0  0  0  0  0  0
   31.9653   -1.2303   26.1930 C   0  0  0  0  0  0
   31.4247   -1.0145   24.9198 C   0  0  0  0  0  0
   31.6751   -1.9165   23.8866 C   0  0  0  0  0  0
   32.4613   -3.0417   24.1181 C   0  0  0  0  0  0
   32.9825   -3.2760   25.3896 C   0  0  0  0  0  0
   32.7328   -2.3783   26.4274 C   0  0  0  0  0  0
   33.2599   -2.6201   27.6503 F   0  0  0  0  0  0
   30.7282   -0.4531   28.5807 S   0  0  0  0  0  0
   30.7735    0.7870   29.3670 O   0  0  0  0  0  0
   31.0431   -1.7421   29.1988 O   0  0  0  0  0  0
   29.0806   -0.6029   27.9079 C   0  0  0  0  0  0
   28.6001   -1.8462   27.4830 C   0  0  0  0  0  0
   27.2776   -1.9625   27.0550 C   0  0  0  0  0  0
   26.4500   -0.8416   27.0632 C   0  0  0  0  0  0
   26.9390    0.3970   27.4634 C   0  0  0  0  0  0
   28.2630    0.5263   27.8631 C   0  0  0  0  0  0
   25.1486   -0.9422   26.6581 O   0  0  0  0  0  0
   35.3197    2.6578   28.1274 H   0  0  0  0  0  0
   34.8537    2.4107   26.4525 H   0  0  0  0  0  0
   33.8570    3.4267   27.4996 H   0  0  0  0  0  0
   33.3351    1.3857   28.9207 H   0  0  0  0  0  0
   34.3083    0.4121   27.8611 H   0  0  0  0  0  0
   32.7916    1.1254   25.9441 H   0  0  0  0  0  0
   31.7170    1.8578   27.0673 H   0  0  0  0  0  0
   30.8238   -0.1409   24.7257 H   0  0  0  0  0  0
   31.2609   -1.7473   22.9052 H   0  0  0  0  0  0
   32.6586   -3.7385   23.3154 H   0  0  0  0  0  0
   33.5980   -4.1429   25.5679 H   0  0  0  0  0  0
   29.2367   -2.7190   27.5061 H   0  0  0  0  0  0
   26.8983   -2.9214   26.7287 H   0  0  0  0  0  0
   26.2901    1.2599   27.4645 H   0  0  0  0  0  0
   28.6284    1.4905   28.1875 H   0  0  0  0  0  0
   24.9518   -1.8111   26.2647 H   0  0  0  0  0  0
  1  2  1  0  0  0
  1 22  1  0  0  0
  1 23  1  0  0  0
  1 24  1  0  0  0
  2  3  1  0  0  0
  2 25  1  0  0  0
  2 26  1  0  0  0
  3  4  1  0  0  0
  3 27  1  0  0  0
  3 28  1  0  0  0
  4  5  1  0  0  0
  4 12  1  0  0  0
  5 10  1  0  0  0
  5  6  2  0  0  0
  6  7  1  0  0  0
  6 29  1  0  0  0
  7  8  2  0  0  0
  7 30  1  0  0  0
  8  9  1  0  0  0
  8 31  1  0  0  0
  9 10  2  0  0  0
  9 32  1  0  0  0
 10 11  1  0  0  0
 12 13  2  0  0  0
 12 14  2  0  0  0
 12 15  1  0  0  0
 15 20  1  0  0  0
 15 16  2  0  0  0
 16 17  1  0  0  0
 16 33  1  0  0  0
 17 18  2  0  0  0
 17 34  1  0  0  0
 18 19  1  0  0  0
 18 21  1  0  0  0
 19 20  2  0  0  0
 19 35  1  0  0  0
 20 36  1  0  0  0
 21 37  1  0  0  0
M  END
> <s_m_entry_id>
17356

> <s_m_entry_name>
ligand_docking-pose.283

> <s_m_Source_Path>
/home/csk/Desktop/cluster/DUD-E-result/esr1

> <s_m_Source_File>
ligand_docking-pose.sdf

> <i_m_Source_File_Index>
283

> <i_lp_mmshare_version>
53161

> <i_f3d_flags>
0

> <r_lp_tautomer_probability>
0.999999999997365

> <s_lp_Force_Field>
OPLS_2005

> <r_lp_Energy>
10.895421

> <b_lp_Chiralities_Consistent>
1

> <s_lp_Variant>
339241-1

> <s_i_glide_gridfile>
glide-grid_1sj0

> <i_i_glide_lignum>
1539

> <i_i_glide_rotatable_bonds>
6

> <r_i_docking_score>
-8.65562055054257

> <r_i_glide_ligand_efficiency>
-0.412172407168694

> <r_i_glide_ligand_efficiency_sa>
-1.13715241782088

> <r_i_glide_ligand_efficiency_ln>
-2.14008469079347

> <r_i_glide_gscore>
-8.65562055054257

> <r_i_glide_lipo>
-3.91557197560063

> <r_i_glide_hbond>
-0.197429501900655

> <r_i_glide_metal>
0

> <r_i_glide_rewards>
-2.49587898909516

> <r_i_glide_evdw>
-38.4223899841309

> <r_i_glide_ecoul>
-4.44883298873901

> <r_i_glide_erotb>
0.541704363571268

> <r_i_glide_esite>
0

> <r_i_glide_emodel>
-64.7377912958454

> <r_i_glide_energy>
-42.8712229728699

> <r_i_glide_einternal>
4.54037141799927

> <i_i_glide_confnum>
15

> <i_i_glide_posenum>
165

> <r_i_glide_eff_state_penalty>
0

> <s_user_duplicate_titles>
339241

> <s_m_subgroup_title>
dock_pv

> <s_m_subgroupid>
dock_pv1

> <b_m_subgroup_collapsed>
0

$$$$
185967
                    3D
 Schrodinger Suite 2021-1.
 33 35  0  0  1  0            999 V2000
   27.1057   -1.7354   27.1384 C   0  0  0  0  0  0
   28.4726   -1.7220   27.4192 C   0  0  0  0  0  0
   29.1265   -0.5163   27.7258 C   0  0  0  0  0  0
   28.3742    0.6673   27.7789 C   0  0  0  0  0  0
   27.0177    0.6494   27.4640 C   0  0  0  0  0  0
   26.3827   -0.5465   27.1425 C   0  0  0  0  0  0
   25.0554   -0.5420   26.8102 O   0  0  0  0  0  0
   29.0984    2.1757   28.2208 Cl  0  0  0  0  0  0
   30.6525   -0.4283   27.8577 C   0  0  2  0  0  0
   31.5412   -1.6373   27.5143 C   0  0  2  0  0  0
   32.7208   -1.4381   28.3469 N   0  0  0  0  0  0
   32.3942   -0.6299   29.2656 C   0  0  0  0  0  0
   31.1135   -0.1483   29.1950 N   0  0  0  0  0  0
   31.9517   -1.9745   26.0490 C   0  0  0  0  0  0
   31.4844   -1.3043   24.8904 C   0  0  0  0  0  0
   32.0032   -1.6184   23.6343 C   0  0  0  0  0  0
   32.9414   -2.6219   23.4721 C   0  0  0  0  0  0
   33.3537   -3.3420   24.5779 C   0  0  0  0  0  0
   32.8356   -3.0564   25.8389 C   0  0  0  0  0  0
   33.2600   -4.1420   27.1096 Cl  0  0  0  0  0  0
   33.4160   -2.9214   22.2244 O   0  0  0  0  0  0
   30.2062   -0.1459   24.8699 Cl  0  0  0  0  0  0
   30.7493    0.7269   29.5422 H   0  0  0  0  0  0
   31.0639   -2.5419   27.8846 H   0  0  0  0  0  0
   26.6127   -2.6616   26.8761 H   0  0  0  0  0  0
   29.0077   -2.6561   27.3487 H   0  0  0  0  0  0
   26.4600    1.5724   27.4796 H   0  0  0  0  0  0
   24.7251    0.3534   26.6644 H   0  0  0  0  0  0
   30.9793    0.4195   27.2518 H   0  0  0  0  0  0
   33.0454   -0.3214   30.0795 H   0  0  0  0  0  0
   31.6600   -1.0909   22.7623 H   0  0  0  0  0  0
   34.0529   -4.1549   24.4579 H   0  0  0  0  0  0
   33.9260   -3.7336   22.1858 H   0  0  0  0  0  0
  1  6  1  0  0  0
  1  2  2  0  0  0
  1 25  1  0  0  0
  2  3  1  0  0  0
  2 26  1  0  0  0
  3  4  2  0  0  0
  3  9  1  0  0  0
  4  5  1  0  0  0
  4  8  1  0  0  0
  5  6  2  0  0  0
  5 27  1  0  0  0
  6  7  1  0  0  0
  7 28  1  0  0  0
  9 10  1  0  0  0
  9 29  1  0  0  0
  9 13  1  0  0  0
 10 11  1  0  0  0
 10 14  1  0  0  0
 10 24  1  0  0  0
 11 12  2  0  0  0
 12 13  1  0  0  0
 12 30  1  0  0  0
 13 23  1  0  0  0
 14 19  1  0  0  0
 14 15  2  0  0  0
 15 16  1  0  0  0
 15 22  1  0  0  0
 16 17  2  0  0  0
 16 31  1  0  0  0
 17 18  1  0  0  0
 17 21  1  0  0  0
 18 19  2  0  0  0
 18 32  1  0  0  0
 19 20  1  0  0  0
 21 33  1  0  0  0
M  END
> <s_m_entry_id>
17357

> <s_m_entry_name>
ligand_docking-pose.284

> <s_m_Source_Path>
/home/csk/Desktop/cluster/DUD-E-result/esr1

> <s_m_Source_File>
ligand_docking-pose.sdf

> <i_m_Source_File_Index>
284

> <i_lp_mmshare_version>
53161

> <i_f3d_flags>
0

> <r_lp_tautomer_probability>
0.499999999997097

> <s_lp_Force_Field>
OPLS_2005

> <r_lp_Energy>
28.778619

> <b_lp_Chiralities_Consistent>
1

> <s_lp_Variant>
185967-3

> <s_i_glide_gridfile>
glide-grid_1sj0

> <i_i_glide_lignum>
670

> <i_i_glide_rotatable_bonds>
4

> <r_i_docking_score>
-8.65535950367331

> <r_i_glide_ligand_efficiency>
-0.39342543198515

> <r_i_glide_ligand_efficiency_sa>
-1.10239353296663

> <r_i_glide_ligand_efficiency_ln>
-2.11568557460658

> <r_i_glide_gscore>
-8.65535950367331

> <r_i_glide_lipo>
-4.06408223607583

> <r_i_glide_hbond>
-0.343461423402523

> <r_i_glide_metal>
0

> <r_i_glide_rewards>
-1.93441043124204

> <r_i_glide_evdw>
-39.5032119750977

> <r_i_glide_ecoul>
-4.25106430053711

> <r_i_glide_erotb>
0.299414830882532

> <r_i_glide_esite>
0

> <r_i_glide_emodel>
-42.620873038525

> <r_i_glide_energy>
-43.7542762756348

> <r_i_glide_einternal>
17.9277114868164

> <i_i_glide_confnum>
4

> <i_i_glide_posenum>
138

> <r_i_glide_eff_state_penalty>
0

> <s_user_duplicate_titles>
185967

> <s_m_subgroup_title>
dock_pv

> <s_m_subgroupid>
dock_pv1

> <b_m_subgroup_collapsed>
0

$$$$
223041
                    3D
 Schrodinger Suite 2021-1.
 34 35  0  0  1  0            999 V2000
   28.9798    1.6331   28.2602 C   0  0  0  0  0  0
   28.5665    0.2260   27.8652 C   0  0  0  0  0  0
   27.2416    0.0380   27.4640 C   0  0  0  0  0  0
   26.7885   -1.2119   27.0639 C   0  0  0  0  0  0
   27.6599   -2.2982   27.0640 C   0  0  0  0  0  0
   28.9834   -2.1263   27.4750 C   0  0  0  0  0  0
   29.4542   -0.8705   27.8872 C   0  0  0  0  0  0
   30.9199   -0.7583   28.3404 C   0  0  1  0  0  0
   31.8729   -0.2683   27.2286 C   0  0  0  0  0  0
   32.0755   -1.2640   26.0976 C   0  0  0  0  0  0
   32.8600   -2.3980   26.3195 C   0  0  0  0  0  0
   33.1236   -3.2731   25.2716 C   0  0  0  0  0  0
   32.5893   -3.0247   24.0115 C   0  0  0  0  0  0
   31.7798   -1.9136   23.7928 C   0  0  0  0  0  0
   31.5212   -1.0285   24.8371 C   0  0  0  0  0  0
   32.8600   -3.8912   22.9880 O   0  0  0  0  0  0
   31.1055    0.0218   29.5806 C   0  0  0  0  0  0
   31.2600    0.6347   30.5519 N   0  0  0  0  0  0
   25.4871   -1.3420   26.6640 O   0  0  0  0  0  0
   29.0314    1.7379   29.3434 H   0  0  0  0  0  0
   29.9440    1.9079   27.8365 H   0  0  0  0  0  0
   28.2541    2.3498   27.8852 H   0  0  0  0  0  0
   26.5495    0.8683   27.4503 H   0  0  0  0  0  0
   27.3165   -3.2719   26.7438 H   0  0  0  0  0  0
   29.6478   -2.9792   27.4655 H   0  0  0  0  0  0
   31.2475   -1.7546   28.6402 H   0  0  0  0  0  0
   31.5448    0.6907   26.8275 H   0  0  0  0  0  0
   32.8551   -0.0578   27.6565 H   0  0  0  0  0  0
   33.2825   -2.5893   27.2949 H   0  0  0  0  0  0
   33.7419   -4.1420   25.4323 H   0  0  0  0  0  0
   31.3570   -1.7420   22.8163 H   0  0  0  0  0  0
   30.9038   -0.1592   24.6640 H   0  0  0  0  0  0
   32.3864   -3.7029   22.1740 H   0  0  0  0  0  0
   25.2600   -2.2139   26.2802 H   0  0  0  0  0  0
  1  2  1  0  0  0
  1 20  1  0  0  0
  1 21  1  0  0  0
  1 22  1  0  0  0
  2  7  1  0  0  0
  2  3  2  0  0  0
  3  4  1  0  0  0
  3 23  1  0  0  0
  4  5  2  0  0  0
  4 19  1  0  0  0
  5  6  1  0  0  0
  5 24  1  0  0  0
  6  7  2  0  0  0
  6 25  1  0  0  0
  7  8  1  0  0  0
  8  9  1  0  0  0
  8 17  1  0  0  0
  8 26  1  0  0  0
  9 10  1  0  0  0
  9 27  1  0  0  0
  9 28  1  0  0  0
 10 15  1  0  0  0
 10 11  2  0  0  0
 11 12  1  0  0  0
 11 29  1  0  0  0
 12 13  2  0  0  0
 12 30  1  0  0  0
 13 14  1  0  0  0
 13 16  1  0  0  0
 14 15  2  0  0  0
 14 31  1  0  0  0
 15 32  1  0  0  0
 16 33  1  0  0  0
 17 18  3  0  0  0
 19 34  1  0  0  0
M  END
> <s_m_entry_id>
17358

> <s_m_entry_name>
ligand_docking-pose.285

> <s_m_Source_Path>
/home/csk/Desktop/cluster/DUD-E-result/esr1

> <s_m_Source_File>
ligand_docking-pose.sdf

> <i_m_Source_File_Index>
285

> <i_lp_mmshare_version>
53161

> <i_f3d_flags>
0

> <r_lp_tautomer_probability>
0.99999999999473

> <s_lp_Force_Field>
OPLS_2005

> <r_lp_Energy>
9.493967

> <b_lp_Chiralities_Consistent>
1

> <s_lp_Variant>
223041-2

> <s_i_glide_gridfile>
glide-grid_1sj0

> <i_i_glide_lignum>
991

> <i_i_glide_rotatable_bonds>
5

> <r_i_docking_score>
-8.65475696778259

> <r_i_glide_ligand_efficiency>
-0.455513524620137

> <r_i_glide_ligand_efficiency_sa>
-1.21549303891853

> <r_i_glide_ligand_efficiency_ln>
-2.19416677846834

> <r_i_glide_gscore>
-8.65475696778259

> <r_i_glide_lipo>
-3.85981991644977

> <r_i_glide_hbond>
-0.16

> <r_i_glide_metal>
0

> <r_i_glide_rewards>
-2.68517201378166

> <r_i_glide_evdw>
-33.2625961303711

> <r_i_glide_ecoul>
-5.74380302429199

> <r_i_glide_erotb>
0.57493522261119

> <r_i_glide_esite>
0

> <r_i_glide_emodel>
-59.8583794912555

> <r_i_glide_energy>
-39.0063991546631

> <r_i_glide_einternal>
2.3135883808136

> <i_i_glide_confnum>
8

> <i_i_glide_posenum>
60

> <r_i_glide_eff_state_penalty>
0

> <s_user_duplicate_titles>
223041

> <s_m_subgroup_title>
dock_pv

> <s_m_subgroupid>
dock_pv1

> <b_m_subgroup_collapsed>
0

$$$$
162631
                    3D
 Schrodinger Suite 2021-1.
 62 66  0  0  1  0            999 V2000
   35.2935    1.4161   27.8724 C   0  0  0  0  0  0
   34.4353    1.9986   26.9673 C   0  0  0  0  0  0
   33.1126    1.6090   26.9558 C   0  0  0  0  0  0
   32.6562    0.6332   27.8477 C   0  0  0  0  0  0
   33.5406    0.0288   28.7432 C   0  0  0  0  0  0
   34.8677    0.4303   28.7599 C   0  0  0  0  0  0
   31.1795    0.2776   27.9052 C   0  0  1  0  0  0
   30.4133    1.5529   28.2893 C   0  0  0  0  0  0
   28.9402    1.2855   28.5331 C   0  0  0  0  0  0
   28.3194    0.2413   27.6457 C   0  0  0  0  0  0
   26.9761   -0.0680   27.8287 C   0  0  0  0  0  0
   26.3194   -0.9188   26.9654 C   0  0  0  0  0  0
   27.0371   -1.6066   26.0039 C   0  0  0  0  0  0
   28.3989   -1.3417   25.8642 C   0  0  0  0  0  0
   29.0763   -0.4557   26.6918 C   0  0  0  0  0  0
   30.5750   -0.1674   26.5402 C   0  0  2  0  0  0
   31.3768   -1.2185   25.7650 C   0  0  0  0  0  0
   31.9613   -2.3235   26.3908 C   0  0  0  0  0  0
   32.7178   -3.2227   25.6400 C   0  0  0  0  0  0
   32.9048   -3.0239   24.2704 C   0  0  0  0  0  0
   32.3323   -1.9045   23.6600 C   0  0  0  0  0  0
   31.5712   -1.0159   24.3986 C   0  0  0  0  0  0
   33.6566   -3.9626   23.5905 O   0  0  0  0  0  0
   33.9642   -3.7726   22.2054 C   0  0  0  0  0  0
   32.7382   -3.9217   21.2705 C   0  0  0  0  0  0
   32.7646   -2.9489   20.1704 N   0  0  0  0  0  0
   33.8331   -3.1624   19.2036 C   0  0  0  0  0  0
   33.4522   -2.2805   18.0131 C   0  0  0  0  0  0
   31.9221   -2.2566   18.0436 C   0  0  0  0  0  0
   31.5646   -2.9878   19.3416 C   0  0  0  0  0  0
   24.9616   -0.9416   26.9896 O   0  0  0  0  0  0
   31.0347   -0.4975   28.6616 H   0  0  0  0  0  0
   30.6021    0.6846   25.8755 H   0  0  0  0  0  0
   36.3187    1.7430   27.8630 H   0  0  0  0  0  0
   34.7929    2.7340   26.2667 H   0  0  0  0  0  0
   32.4559    2.0984   26.2654 H   0  0  0  0  0  0
   33.2024   -0.7233   29.4414 H   0  0  0  0  0  0
   35.5669   -0.0170   29.4525 H   0  0  0  0  0  0
   30.8454    2.0328   29.1692 H   0  0  0  0  0  0
   30.4688    2.2569   27.4677 H   0  0  0  0  0  0
   28.8669    0.7930   29.4638 H   0  0  0  0  0  0
   28.3653    2.2112   28.5723 H   0  0  0  0  0  0
   26.4493    0.3641   28.6619 H   0  0  0  0  0  0
   26.5229   -2.2589   25.3135 H   0  0  0  0  0  0
   28.9440   -1.7419   25.0364 H   0  0  0  0  0  0
   31.8279   -2.4896   27.4492 H   0  0  0  0  0  0
   33.1634   -4.0829   26.1166 H   0  0  0  0  0  0
   32.4652   -1.7064   22.6114 H   0  0  0  0  0  0
   31.1425   -0.1579   23.9045 H   0  0  0  0  0  0
   34.7044   -4.5205   21.9213 H   0  0  0  0  0  0
   34.4663   -2.8107   22.0809 H   0  0  0  0  0  0
   31.8122   -3.7990   21.8329 H   0  0  0  0  0  0
   32.7052   -4.9421   20.8948 H   0  0  0  0  0  0
   33.9387   -4.2173   18.9385 H   0  0  0  0  0  0
   34.7863   -2.8747   19.6482 H   0  0  0  0  0  0
   33.8383   -2.6886   17.0778 H   0  0  0  0  0  0
   33.8732   -1.2809   18.1245 H   0  0  0  0  0  0
   31.5391   -1.2367   18.0383 H   0  0  0  0  0  0
   31.5008   -2.7761   17.1829 H   0  0  0  0  0  0
   30.7421   -2.5124   19.8768 H   0  0  0  0  0  0
   31.2226   -4.0033   19.1425 H   0  0  0  0  0  0
   24.6188   -0.1194   27.3479 H   0  0  0  0  0  0
  1  6  1  0  0  0
  1  2  2  0  0  0
  1 34  1  0  0  0
  2  3  1  0  0  0
  2 35  1  0  0  0
  3  4  2  0  0  0
  3 36  1  0  0  0
  4  5  1  0  0  0
  4  7  1  0  0  0
  5  6  2  0  0  0
  5 37  1  0  0  0
  6 38  1  0  0  0
  7 32  1  0  0  0
  7 16  1  0  0  0
  7  8  1  0  0  0
  8  9  1  0  0  0
  8 39  1  0  0  0
  8 40  1  0  0  0
  9 10  1  0  0  0
  9 41  1  0  0  0
  9 42  1  0  0  0
 10 15  2  0  0  0
 10 11  1  0  0  0
 11 12  2  0  0  0
 11 43  1  0  0  0
 12 13  1  0  0  0
 12 31  1  0  0  0
 13 14  2  0  0  0
 13 44  1  0  0  0
 14 15  1  0  0  0
 14 45  1  0  0  0
 15 16  1  0  0  0
 16 33  1  0  0  0
 16 17  1  0  0  0
 17 22  1  0  0  0
 17 18  2  0  0  0
 18 19  1  0  0  0
 18 46  1  0  0  0
 19 20  2  0  0  0
 19 47  1  0  0  0
 20 21  1  0  0  0
 20 23  1  0  0  0
 21 22  2  0  0  0
 21 48  1  0  0  0
 22 49  1  0  0  0
 23 24  1  0  0  0
 24 25  1  0  0  0
 24 50  1  0  0  0
 24 51  1  0  0  0
 25 26  1  0  0  0
 25 52  1  0  0  0
 25 53  1  0  0  0
 26 30  1  0  0  0
 26 27  1  0  0  0
 27 28  1  0  0  0
 27 54  1  0  0  0
 27 55  1  0  0  0
 28 29  1  0  0  0
 28 56  1  0  0  0
 28 57  1  0  0  0
 29 30  1  0  0  0
 29 58  1  0  0  0
 29 59  1  0  0  0
 30 60  1  0  0  0
 30 61  1  0  0  0
 31 62  1  0  0  0
M  END
> <s_m_entry_id>
17359

> <s_m_entry_name>
ligand_docking-pose.286

> <s_m_Source_Path>
/home/csk/Desktop/cluster/DUD-E-result/esr1

> <s_m_Source_File>
ligand_docking-pose.sdf

> <i_m_Source_File_Index>
286

> <i_lp_mmshare_version>
53161

> <i_f3d_flags>
0

> <r_lp_tautomer_probability>
0.999999999997365

> <s_lp_Force_Field>
OPLS_2005

> <r_lp_Energy>
47.206721

> <b_lp_Chiralities_Consistent>
1

> <s_lp_Variant>
162631-1

> <s_i_glide_gridfile>
glide-grid_1sj0

> <i_i_glide_lignum>
471

> <i_i_glide_rotatable_bonds>
7

> <r_i_docking_score>
-8.65297954496133

> <r_i_glide_ligand_efficiency>
-0.279128372418108

> <r_i_glide_ligand_efficiency_sa>
-0.876848467644047

> <r_i_glide_ligand_efficiency_ln>
-1.95151206936468

> <r_i_glide_gscore>
-8.65297954496133

> <r_i_glide_lipo>
-5.53645934243279

> <r_i_glide_hbond>
-0.098047324865557

> <r_i_glide_metal>
0

> <r_i_glide_rewards>
-1.48935685215697

> <r_i_glide_evdw>
-36.3092613220215

> <r_i_glide_ecoul>
-1.9363329410553

> <r_i_glide_erotb>
0.576796981753355

> <r_i_glide_esite>
0

> <r_i_glide_emodel>
-56.1674232546694

> <r_i_glide_energy>
-38.2455942630768

> <r_i_glide_einternal>
8.06297397613525

> <i_i_glide_confnum>
3

> <i_i_glide_posenum>
2

> <r_i_glide_eff_state_penalty>
0

> <s_user_duplicate_titles>
162631

> <s_m_subgroup_title>
dock_pv

> <s_m_subgroupid>
dock_pv1

> <b_m_subgroup_collapsed>
0

$$$$
373306
                    3D
 Schrodinger Suite 2021-1.
 33 35  0  0  1  0            999 V2000
   28.6195    0.6615   26.7401 C   0  0  0  0  0  0
   29.5367   -0.1281   26.0540 C   0  0  0  0  0  0
   30.7888   -0.3876   26.6406 C   0  0  0  0  0  0
   31.0688    0.1424   27.9323 C   0  0  0  0  0  0
   30.1178    0.8969   28.6420 C   0  0  0  0  0  0
   28.9069    1.1598   28.0054 C   0  0  0  0  0  0
   30.3800    1.4579   30.2535 Cl  0  0  0  0  0  0
   32.3659   -0.2598   28.2175 N   0  0  0  0  0  0
   32.8487   -1.0604   27.2490 N   0  0  0  0  0  0
   31.9675   -1.1246   26.2786 C   0  0  0  0  0  0
   32.2499   -1.9079   25.0306 C   0  0  0  0  0  0
   31.5878   -1.6461   23.8265 C   0  0  0  0  0  0
   31.8021   -2.4529   22.7060 C   0  0  0  0  0  0
   32.7047   -3.5012   22.7708 C   0  0  0  0  0  0
   33.3949   -3.7412   23.9468 C   0  0  0  0  0  0
   33.1576   -2.9677   25.0770 C   0  0  0  0  0  0
   32.9102   -4.3228   21.6954 O   0  0  0  0  0  0
   33.1627    0.0100   29.4257 C   0  0  0  0  0  0
   34.6866   -0.2254   29.3144 C   0  0  0  0  0  0
   35.2597    0.5996   28.3174 O   0  0  0  0  0  0
   27.6606    0.8783   26.2938 H   0  0  0  0  0  0
   29.2727   -0.5310   25.0889 H   0  0  0  0  0  0
   28.1592    1.7501   28.5135 H   0  0  0  0  0  0
   30.9015   -0.8198   23.7432 H   0  0  0  0  0  0
   31.2723   -2.2668   21.7857 H   0  0  0  0  0  0
   34.0601   -4.5764   23.9981 H   0  0  0  0  0  0
   33.6609   -3.2172   25.9981 H   0  0  0  0  0  0
   32.1735   -4.4020   21.0777 H   0  0  0  0  0  0
   32.9836    1.0230   29.7846 H   0  0  0  0  0  0
   32.7708   -0.6455   30.2048 H   0  0  0  0  0  0
   35.1759   -0.0333   30.2639 H   0  0  0  0  0  0
   34.8950   -1.2646   29.0629 H   0  0  0  0  0  0
   36.2148    0.6614   28.4613 H   0  0  0  0  0  0
  1  6  1  0  0  0
  1  2  2  0  0  0
  1 21  1  0  0  0
  2  3  1  0  0  0
  2 22  1  0  0  0
  3 10  1  0  0  0
  3  4  2  0  0  0
  4  5  1  0  0  0
  4  8  1  0  0  0
  5  6  2  0  0  0
  5  7  1  0  0  0
  6 23  1  0  0  0
  8  9  1  0  0  0
  8 18  1  0  0  0
  9 10  2  0  0  0
 10 11  1  0  0  0
 11 16  1  0  0  0
 11 12  2  0  0  0
 12 13  1  0  0  0
 12 24  1  0  0  0
 13 14  2  0  0  0
 13 25  1  0  0  0
 14 15  1  0  0  0
 14 17  1  0  0  0
 15 16  2  0  0  0
 15 26  1  0  0  0
 16 27  1  0  0  0
 17 28  1  0  0  0
 18 19  1  0  0  0
 18 29  1  0  0  0
 18 30  1  0  0  0
 19 20  1  0  0  0
 19 31  1  0  0  0
 19 32  1  0  0  0
 20 33  1  0  0  0
M  END
> <s_m_entry_id>
17360

> <s_m_entry_name>
ligand_docking-pose.287

> <s_m_Source_Path>
/home/csk/Desktop/cluster/DUD-E-result/esr1

> <s_m_Source_File>
ligand_docking-pose.sdf

> <i_m_Source_File_Index>
287

> <i_lp_mmshare_version>
53161

> <i_f3d_flags>
0

> <r_lp_tautomer_probability>
0.999999999997365

> <s_lp_Force_Field>
OPLS_2005

> <r_lp_Energy>
15.992477

> <b_lp_Chiralities_Consistent>
1

> <s_lp_Variant>
373306-1

> <s_i_glide_gridfile>
glide-grid_1sj0

> <i_i_glide_lignum>
7

> <i_i_glide_rotatable_bonds>
5

> <r_i_docking_score>
-8.65020693034094

> <r_i_glide_ligand_efficiency>
-0.432510346517047

> <r_i_glide_ligand_efficiency_sa>
-1.1740137027731

> <r_i_glide_ligand_efficiency_ln>
-2.1648614917453

> <r_i_glide_gscore>
-8.65020693034094

> <r_i_glide_lipo>
-4.38031098420211

> <r_i_glide_hbond>
-0.335535630711737

> <r_i_glide_metal>
0

> <r_i_glide_rewards>
-2.23205411111863

> <r_i_glide_evdw>
-32.4629707336426

> <r_i_glide_ecoul>
-4.89347648620605

> <r_i_glide_erotb>
0.654863805304585

> <r_i_glide_esite>
0

> <r_i_glide_emodel>
-55.4908682365424

> <r_i_glide_energy>
-37.3564472198486

> <r_i_glide_einternal>
2.05998253822327

> <i_i_glide_confnum>
3

> <i_i_glide_posenum>
370

> <r_i_glide_eff_state_penalty>
0

> <s_user_duplicate_titles>
373306

> <s_m_subgroup_title>
dock_pv

> <s_m_subgroupid>
dock_pv1

> <b_m_subgroup_collapsed>
0

$$$$
215371
                    3D
 Schrodinger Suite 2021-1.
 38 40  0  0  1  0            999 V2000
   27.9308    1.6171   27.8622 C   0  0  0  0  0  0
   27.5024    0.5646   27.0657 C   0  0  0  0  0  0
   28.4424   -0.2364   26.4290 C   0  0  0  0  0  0
   29.8063    0.0299   26.5690 C   0  0  0  0  0  0
   30.2203    1.0886   27.3804 C   0  0  0  0  0  0
   29.2835    1.8579   28.0542 C   0  0  0  0  0  0
   30.7768   -0.8345   25.8617 C   0  0  0  0  0  0
   30.6438   -0.9411   24.4799 C   0  0  0  0  0  0
   31.4887   -1.7421   23.7386 C   0  0  0  0  0  0
   32.4332   -2.5572   24.3551 C   0  0  0  0  0  0
   32.5076   -2.5219   25.7636 C   0  0  0  0  0  0
   31.7886   -1.5672   26.5155 C   0  0  0  0  0  0
   32.1434   -1.2525   27.9426 C   0  0  0  0  0  0
   31.2354   -1.4254   28.9926 C   0  0  0  0  0  0
   31.5396   -0.9416   30.2636 C   0  0  0  0  0  0
   32.7364   -0.2779   30.5008 C   0  0  0  0  0  0
   33.6673   -0.1409   29.4829 C   0  0  0  0  0  0
   33.3708   -0.6329   28.2221 C   0  0  0  0  0  0
   33.2573   -3.4692   26.4522 N   0  0  0  0  0  0
   33.2930   -3.3848   23.4883 C   0  0  0  0  0  0
   33.7328   -2.9427   22.3799 N   0  0  0  0  0  0
   34.4597   -3.8925   21.6470 O   0  0  0  0  0  0
   27.1948    2.2463   28.3335 H   0  0  0  0  0  0
   26.4466    0.3591   26.9588 H   0  0  0  0  0  0
   28.1066   -1.0716   25.8304 H   0  0  0  0  0  0
   31.2693    1.3119   27.5052 H   0  0  0  0  0  0
   29.6112    2.6601   28.7001 H   0  0  0  0  0  0
   29.8975   -0.3589   23.9629 H   0  0  0  0  0  0
   31.3850   -1.7427   22.6642 H   0  0  0  0  0  0
   30.2825   -1.9044   28.8129 H   0  0  0  0  0  0
   30.8598   -1.0820   31.0861 H   0  0  0  0  0  0
   32.9596    0.1033   31.4835 H   0  0  0  0  0  0
   34.6081    0.3554   29.6680 H   0  0  0  0  0  0
   34.1085   -0.4748   27.4639 H   0  0  0  0  0  0
   33.6611   -4.2447   25.9471 H   0  0  0  0  0  0
   33.2522   -3.4429   27.4615 H   0  0  0  0  0  0
   33.5133   -4.3825   23.8556 H   0  0  0  0  0  0
   34.3253   -4.7103   22.1322 H   0  0  0  0  0  0
  1  6  1  0  0  0
  1  2  2  0  0  0
  1 23  1  0  0  0
  2  3  1  0  0  0
  2 24  1  0  0  0
  3  4  2  0  0  0
  3 25  1  0  0  0
  4  5  1  0  0  0
  4  7  1  0  0  0
  5  6  2  0  0  0
  5 26  1  0  0  0
  6 27  1  0  0  0
  7 12  1  0  0  0
  7  8  2  0  0  0
  8  9  1  0  0  0
  8 28  1  0  0  0
  9 10  2  0  0  0
  9 29  1  0  0  0
 10 11  1  0  0  0
 10 20  1  0  0  0
 11 12  2  0  0  0
 11 19  1  0  0  0
 12 13  1  0  0  0
 13 18  1  0  0  0
 13 14  2  0  0  0
 14 15  1  0  0  0
 14 30  1  0  0  0
 15 16  2  0  0  0
 15 31  1  0  0  0
 16 17  1  0  0  0
 16 32  1  0  0  0
 17 18  2  0  0  0
 17 33  1  0  0  0
 18 34  1  0  0  0
 19 35  1  0  0  0
 19 36  1  0  0  0
 20 21  2  0  0  0
 20 37  1  0  0  0
 21 22  1  0  0  0
 22 38  1  0  0  0
M  END
> <s_m_entry_id>
17361

> <s_m_entry_name>
ligand_docking-pose.288

> <s_m_Source_Path>
/home/csk/Desktop/cluster/DUD-E-result/esr1

> <s_m_Source_File>
ligand_docking-pose.sdf

> <i_m_Source_File_Index>
288

> <i_lp_mmshare_version>
53161

> <i_f3d_flags>
0

> <r_lp_tautomer_probability>
1

> <s_lp_Force_Field>
OPLS_2005

> <r_lp_Energy>
32.263342

> <b_lp_Chiralities_Consistent>
1

> <s_lp_Variant>
215371-1

> <s_i_glide_gridfile>
glide-grid_1sj0

> <i_i_glide_lignum>
336

> <i_i_glide_rotatable_bonds>
4

> <r_i_docking_score>
-8.64553562913645

> <r_i_glide_ligand_efficiency>
-0.392978892233475

> <r_i_glide_ligand_efficiency_sa>
-1.10114231102102

> <r_i_glide_ligand_efficiency_ln>
-2.11328426133524

> <r_i_glide_gscore>
-8.64553562913645

> <r_i_glide_lipo>
-4.97306960230447

> <r_i_glide_hbond>
-0.0692546552313446

> <r_i_glide_metal>
0

> <r_i_glide_rewards>
-2.79311495454545

> <r_i_glide_evdw>
-33.9242553710938

> <r_i_glide_ecoul>
0.0728629305958748

> <r_i_glide_erotb>
0.875186911910122

> <r_i_glide_esite>
0

> <r_i_glide_emodel>
-36.0161725400224

> <r_i_glide_energy>
-33.8513924404979

> <r_i_glide_einternal>
1.2942521572113

> <i_i_glide_confnum>
29

> <i_i_glide_posenum>
25

> <r_i_glide_eff_state_penalty>
0

> <s_user_duplicate_titles>
215371

> <s_m_subgroup_title>
dock_pv

> <s_m_subgroupid>
dock_pv1

> <b_m_subgroup_collapsed>
0

$$$$
357037
                    3D
 Schrodinger Suite 2021-1.
 37 40  0  0  1  0            999 V2000
   30.3251    1.4671   30.1334 C   0  0  0  0  0  0
   31.1787    0.5177   29.3239 C   0  0  0  0  0  0
   30.6781   -0.1663   28.2641 C   0  0  0  0  0  0
   29.3156   -0.1927   27.7036 C   0  0  0  0  0  0
   28.2397    0.6832   27.8630 C   0  0  0  0  0  0
   26.9664    0.2961   27.4639 C   0  0  0  0  0  0
   26.7578   -0.9653   26.9212 C   0  0  0  0  0  0
   27.8456   -1.8088   26.6748 C   0  0  0  0  0  0
   29.1407   -1.4036   27.0345 C   0  0  0  0  0  0
   30.4617   -2.1413   26.9383 C   0  0  0  0  0  0
   31.5222   -1.1253   27.4255 C   0  0  1  0  0  0
   32.1989   -0.3596   26.2449 C   0  0  0  0  0  0
   33.1333    0.7898   26.7151 C   0  0  0  0  0  0
   34.0944    0.3984   27.8735 C   0  0  0  0  0  0
   33.4693   -0.5505   28.9328 C   0  0  2  0  0  0
   32.6667   -1.7174   28.2853 C   0  0  0  0  0  0
   32.5479    0.2951   29.8352 C   0  0  0  0  0  0
   32.9123    0.6484   30.9584 O   0  0  0  0  0  0
   25.4683   -1.3419   26.6628 O   0  0  0  0  0  0
   34.2576   -0.9413   29.5783 H   0  0  0  0  0  0
   30.7871    1.8529   31.0435 H   0  0  0  0  0  0
   30.1365    2.2994   29.4638 H   0  0  0  0  0  0
   29.3584    1.0586   30.3958 H   0  0  0  0  0  0
   28.3499    1.6452   28.3364 H   0  0  0  0  0  0
   26.1273    0.9602   27.6052 H   0  0  0  0  0  0
   27.6625   -2.7837   26.2486 H   0  0  0  0  0  0
   30.4359   -3.0098   27.5905 H   0  0  0  0  0  0
   30.6850   -2.4968   25.9322 H   0  0  0  0  0  0
   32.7752   -1.0618   25.6405 H   0  0  0  0  0  0
   31.4414    0.0486   25.5742 H   0  0  0  0  0  0
   33.7027    1.1789   25.8703 H   0  0  0  0  0  0
   32.5161    1.6266   27.0446 H   0  0  0  0  0  0
   34.9657   -0.1036   27.4682 H   0  0  0  0  0  0
   34.5342    1.2842   28.3374 H   0  0  0  0  0  0
   32.2686   -2.3658   29.0641 H   0  0  0  0  0  0
   33.3173   -2.3497   27.6805 H   0  0  0  0  0  0
   25.3270   -2.2232   26.2638 H   0  0  0  0  0  0
  1  2  1  0  0  0
  1 21  1  0  0  0
  1 22  1  0  0  0
  1 23  1  0  0  0
  2 17  1  0  0  0
  2  3  2  0  0  0
  3 11  1  0  0  0
  3  4  1  0  0  0
  4  9  2  0  0  0
  4  5  1  0  0  0
  5  6  2  0  0  0
  5 24  1  0  0  0
  6  7  1  0  0  0
  6 25  1  0  0  0
  7  8  2  0  0  0
  7 19  1  0  0  0
  8  9  1  0  0  0
  8 26  1  0  0  0
  9 10  1  0  0  0
 10 11  1  0  0  0
 10 27  1  0  0  0
 10 28  1  0  0  0
 11 16  1  0  0  0
 11 12  1  0  0  0
 12 13  1  0  0  0
 12 29  1  0  0  0
 12 30  1  0  0  0
 13 14  1  0  0  0
 13 31  1  0  0  0
 13 32  1  0  0  0
 14 15  1  0  0  0
 14 33  1  0  0  0
 14 34  1  0  0  0
 15 20  1  0  0  0
 15 16  1  0  0  0
 15 17  1  0  0  0
 16 35  1  0  0  0
 16 36  1  0  0  0
 17 18  2  0  0  0
 19 37  1  0  0  0
M  END
> <s_m_entry_id>
17362

> <s_m_entry_name>
ligand_docking-pose.289

> <s_m_Source_Path>
/home/csk/Desktop/cluster/DUD-E-result/esr1

> <s_m_Source_File>
ligand_docking-pose.sdf

> <i_m_Source_File_Index>
289

> <i_lp_mmshare_version>
53161

> <i_f3d_flags>
0

> <r_lp_tautomer_probability>
1

> <s_lp_Force_Field>
OPLS_2005

> <r_lp_Energy>
27.583239

> <b_lp_Chiralities_Consistent>
1

> <s_lp_Variant>
357037-1

> <s_i_glide_gridfile>
glide-grid_1sj0

> <i_i_glide_lignum>
860

> <i_i_glide_rotatable_bonds>
1

> <r_i_docking_score>
-8.64543226858915

> <r_i_glide_ligand_efficiency>
-0.455022750978376

> <r_i_glide_ligand_efficiency_sa>
-1.214183457725

> <r_i_glide_ligand_efficiency_ln>
-2.19180276694663

> <r_i_glide_gscore>
-8.64543226858915

> <r_i_glide_lipo>
-3.59387545039178

> <r_i_glide_hbond>
-0.16

> <r_i_glide_metal>
0

> <r_i_glide_rewards>
-2.77677267284214

> <r_i_glide_evdw>
-25.98805809021

> <r_i_glide_ecoul>
-5.43587493896484

> <r_i_glide_erotb>
0

> <r_i_glide_esite>
0

> <r_i_glide_emodel>
-42.2832202088312

> <r_i_glide_energy>
-31.4239330291748

> <r_i_glide_einternal>
0.201490685343742

> <i_i_glide_confnum>
1

> <i_i_glide_posenum>
130

> <r_i_glide_eff_state_penalty>
0

> <s_user_duplicate_titles>
357037

> <s_m_subgroup_title>
dock_pv

> <s_m_subgroupid>
dock_pv1

> <b_m_subgroup_collapsed>
0

$$$$
323047
                    3D
 Schrodinger Suite 2021-1.
 31 33  0  0  1  0            999 V2000
   33.2786   -0.6957   29.0921 C   0  0  0  0  0  0
   32.9719    0.0338   30.2327 C   0  0  0  0  0  0
   31.7912    0.7516   30.3160 C   0  0  0  0  0  0
   30.8835    0.7542   29.2535 C   0  0  0  0  0  0
   31.1634    0.0187   28.0454 C   0  0  0  0  0  0
   32.3898   -0.7161   27.9878 C   0  0  0  0  0  0
   32.7153   -1.4556   26.8266 C   0  0  0  0  0  0
   31.8768   -1.5096   25.7091 C   0  0  0  0  0  0
   30.6718   -0.8013   25.7771 C   0  0  0  0  0  0
   30.3048   -0.0366   26.8910 C   0  0  0  0  0  0
   29.0489    0.7033   26.8095 C   0  0  0  0  0  0
   28.0593    1.2972   26.7469 N   0  0  0  0  0  0
   32.2586   -2.3146   24.4922 C   0  0  0  0  0  0
   33.2066   -3.3420   24.5743 C   0  0  0  0  0  0
   33.5340   -4.1123   23.4641 C   0  0  0  0  0  0
   32.9131   -3.9253   22.2430 C   0  0  0  0  0  0
   31.9439   -2.9420   22.1338 C   0  0  0  0  0  0
   31.6600   -2.1179   23.2344 C   0  0  0  0  0  0
   31.2623   -2.8157   20.9739 F   0  0  0  0  0  0
   33.2600   -4.7112   21.1734 O   0  0  0  0  0  0
   29.7367    1.4582   29.4059 F   0  0  0  0  0  0
   31.5273    1.4538   31.4639 O   0  0  0  0  0  0
   34.2064   -1.2529   29.0495 H   0  0  0  0  0  0
   33.6597    0.0404   31.0636 H   0  0  0  0  0  0
   33.6600   -1.9758   26.8291 H   0  0  0  0  0  0
   29.9924   -0.8402   24.9381 H   0  0  0  0  0  0
   33.6759   -3.5999   25.5087 H   0  0  0  0  0  0
   34.1930   -4.9412   23.5851 H   0  0  0  0  0  0
   30.9243   -1.3445   23.1039 H   0  0  0  0  0  0
   32.5083   -4.9772   20.6228 H   0  0  0  0  0  0
   30.7061    1.9477   31.4082 H   0  0  0  0  0  0
  1  6  1  0  0  0
  1  2  2  0  0  0
  1 23  1  0  0  0
  2  3  1  0  0  0
  2 24  1  0  0  0
  3  4  2  0  0  0
  3 22  1  0  0  0
  4  5  1  0  0  0
  4 21  1  0  0  0
  5 10  2  0  0  0
  5  6  1  0  0  0
  6  7  2  0  0  0
  7  8  1  0  0  0
  7 25  1  0  0  0
  8  9  2  0  0  0
  8 13  1  0  0  0
  9 10  1  0  0  0
  9 26  1  0  0  0
 10 11  1  0  0  0
 11 12  3  0  0  0
 13 18  1  0  0  0
 13 14  2  0  0  0
 14 15  1  0  0  0
 14 27  1  0  0  0
 15 16  2  0  0  0
 15 28  1  0  0  0
 16 17  1  0  0  0
 16 20  1  0  0  0
 17 18  2  0  0  0
 17 19  1  0  0  0
 18 29  1  0  0  0
 20 30  1  0  0  0
 22 31  1  0  0  0
M  END
> <s_m_entry_id>
17363

> <s_m_entry_name>
ligand_docking-pose.290

> <s_m_Source_Path>
/home/csk/Desktop/cluster/DUD-E-result/esr1

> <s_m_Source_File>
ligand_docking-pose.sdf

> <i_m_Source_File_Index>
290

> <i_lp_mmshare_version>
53161

> <i_f3d_flags>
0

> <r_lp_tautomer_probability>
0.999999999997365

> <s_lp_Force_Field>
OPLS_2005

> <r_lp_Energy>
20.220687

> <b_lp_Chiralities_Consistent>
1

> <s_lp_Variant>
323047-1

> <s_i_glide_gridfile>
glide-grid_1sj0

> <i_i_glide_lignum>
123

> <i_i_glide_rotatable_bonds>
3

> <r_i_docking_score>
-8.64449258329542

> <r_i_glide_ligand_efficiency>
-0.392931481058883

> <r_i_glide_ligand_efficiency_sa>
-1.10100946304524

> <r_i_glide_ligand_efficiency_ln>
-2.11302930288567

> <r_i_glide_gscore>
-8.64449258329542

> <r_i_glide_lipo>
-3.67836193609239

> <r_i_glide_hbond>
-0.16

> <r_i_glide_metal>
0

> <r_i_glide_rewards>
-3.06756758716578

> <r_i_glide_evdw>
-30.7539520263672

> <r_i_glide_ecoul>
-2.44134831428528

> <r_i_glide_erotb>
0.207475033169332

> <r_i_glide_esite>
-0.0421382447454249

> <r_i_glide_emodel>
-48.5663014528849

> <r_i_glide_energy>
-33.1953003406525

> <r_i_glide_einternal>
2.9586067199707

> <i_i_glide_confnum>
2

> <i_i_glide_posenum>
339

> <r_i_glide_eff_state_penalty>
0

> <s_user_duplicate_titles>
323047

> <s_m_subgroup_title>
dock_pv

> <s_m_subgroupid>
dock_pv1

> <b_m_subgroup_collapsed>
0

$$$$
222931
                    3D
 Schrodinger Suite 2021-1.
 37 38  0  0  1  0            999 V2000
   33.2433    1.7727   26.4738 C   0  0  0  0  0  0
   32.0094    1.2296   27.2195 C   0  0  0  0  0  0
   32.0820   -0.2899   27.5440 C   0  0  2  0  0  0
   32.1520   -1.2240   26.3291 C   0  0  0  0  0  0
   31.5460   -0.9098   25.1068 C   0  0  0  0  0  0
   31.7057   -1.7497   24.0083 C   0  0  0  0  0  0
   32.4626   -2.9112   24.1338 C   0  0  0  0  0  0
   33.0367   -3.2481   25.3532 C   0  0  0  0  0  0
   32.8615   -2.4195   26.4543 C   0  0  0  0  0  0
   32.6461   -3.7401   23.0607 O   0  0  0  0  0  0
   31.0437   -0.7701   28.5934 C   0  0  1  0  0  0
   31.1523    0.0286   29.8301 C   0  0  0  0  0  0
   31.2599    0.6588   30.7962 N   0  0  0  0  0  0
   29.6069   -0.9013   28.0643 C   0  0  0  0  0  0
   29.1266   -2.1638   27.6938 C   0  0  0  0  0  0
   27.8223   -2.3151   27.2213 C   0  0  0  0  0  0
   26.9942   -1.2024   27.1126 C   0  0  0  0  0  0
   27.4673    0.0620   27.4639 C   0  0  0  0  0  0
   28.7720    0.2141   27.9369 C   0  0  0  0  0  0
   25.7053   -1.3420   26.6638 O   0  0  0  0  0  0
   33.0510   -0.3973   28.0373 H   0  0  0  0  0  0
   31.3460   -1.7667   28.9195 H   0  0  0  0  0  0
   33.2154    2.8593   26.3940 H   0  0  0  0  0  0
   34.1708    1.5141   26.9870 H   0  0  0  0  0  0
   33.2991    1.3774   25.4639 H   0  0  0  0  0  0
   31.1001    1.4584   26.6652 H   0  0  0  0  0  0
   31.9229    1.7983   28.1451 H   0  0  0  0  0  0
   30.9604   -0.0109   24.9962 H   0  0  0  0  0  0
   31.2540   -1.4913   23.0660 H   0  0  0  0  0  0
   33.6296   -4.1422   25.4422 H   0  0  0  0  0  0
   33.3158   -2.6886   27.3954 H   0  0  0  0  0  0
   32.1592   -3.4811   22.2744 H   0  0  0  0  0  0
   29.7632   -3.0331   27.7682 H   0  0  0  0  0  0
   27.4624   -3.2955   26.9417 H   0  0  0  0  0  0
   26.8192    0.9221   27.3750 H   0  0  0  0  0  0
   29.1262    1.1962   28.2115 H   0  0  0  0  0  0
   25.4743   -2.2128   26.2884 H   0  0  0  0  0  0
  1  2  1  0  0  0
  1 23  1  0  0  0
  1 24  1  0  0  0
  1 25  1  0  0  0
  2  3  1  0  0  0
  2 26  1  0  0  0
  2 27  1  0  0  0
  3 21  1  0  0  0
  3  4  1  0  0  0
  3 11  1  0  0  0
  4  9  1  0  0  0
  4  5  2  0  0  0
  5  6  1  0  0  0
  5 28  1  0  0  0
  6  7  2  0  0  0
  6 29  1  0  0  0
  7  8  1  0  0  0
  7 10  1  0  0  0
  8  9  2  0  0  0
  8 30  1  0  0  0
  9 31  1  0  0  0
 10 32  1  0  0  0
 11 22  1  0  0  0
 11 12  1  0  0  0
 11 14  1  0  0  0
 12 13  3  0  0  0
 14 19  1  0  0  0
 14 15  2  0  0  0
 15 16  1  0  0  0
 15 33  1  0  0  0
 16 17  2  0  0  0
 16 34  1  0  0  0
 17 18  1  0  0  0
 17 20  1  0  0  0
 18 19  2  0  0  0
 18 35  1  0  0  0
 19 36  1  0  0  0
 20 37  1  0  0  0
M  END
> <s_m_entry_id>
17364

> <s_m_entry_name>
ligand_docking-pose.291

> <s_m_Source_Path>
/home/csk/Desktop/cluster/DUD-E-result/esr1

> <s_m_Source_File>
ligand_docking-pose.sdf

> <i_m_Source_File_Index>
291

> <i_lp_mmshare_version>
53161

> <i_f3d_flags>
0

> <r_lp_tautomer_probability>
0.99999999999473

> <s_lp_Force_Field>
OPLS_2005

> <r_lp_Energy>
13.123457

> <b_lp_Chiralities_Consistent>
1

> <s_lp_Variant>
222931-1

> <s_i_glide_gridfile>
glide-grid_1sj0

> <i_i_glide_lignum>
1504

> <i_i_glide_rotatable_bonds>
6

> <r_i_docking_score>
-8.64049150009824

> <r_i_glide_ligand_efficiency>
-0.432024575004912

> <r_i_glide_ligand_efficiency_sa>
-1.17269511602423

> <r_i_glide_ligand_efficiency_ln>
-2.16243003999189

> <r_i_glide_gscore>
-8.64049150009824

> <r_i_glide_lipo>
-4.17064771492397

> <r_i_glide_hbond>
-0.16

> <r_i_glide_metal>
0

> <r_i_glide_rewards>
-2.53118734076891

> <r_i_glide_evdw>
-36.1175651550293

> <r_i_glide_ecoul>
-4.80866861343384

> <r_i_glide_erotb>
0.74852210536118

> <r_i_glide_esite>
0

> <r_i_glide_emodel>
-62.3115343751537

> <r_i_glide_energy>
-40.9262337684631

> <r_i_glide_einternal>
1.31517171859741

> <i_i_glide_confnum>
8

> <i_i_glide_posenum>
37

> <r_i_glide_eff_state_penalty>
0

> <s_user_duplicate_titles>
222931

> <s_m_subgroup_title>
dock_pv

> <s_m_subgroupid>
dock_pv1

> <b_m_subgroup_collapsed>
0

$$$$
125384
                    3D
 Schrodinger Suite 2021-1.
 29 32  0  0  1  0            999 V2000
   34.7806    1.8580   27.4640 C   0  0  0  0  0  0
   34.7373    1.4580   28.8159 C   0  0  0  0  0  0
   33.5886    0.7962   29.2958 C   0  0  0  0  0  0
   33.0242    0.2555   30.4842 C   0  0  0  0  0  0
   31.7964   -0.3404   30.1262 C   0  0  0  0  0  0
   31.5668   -0.1628   28.7579 C   0  0  0  0  0  0
   32.6268    0.5416   28.3426 N   0  0  0  0  0  0
   32.6299    0.8635   27.0390 C   0  0  0  0  0  0
   33.7242    1.5859   26.5742 C   0  0  0  0  0  0
   31.3962    0.2580   26.5236 C   0  0  0  0  0  0
   30.7733   -0.3603   27.5533 C   0  0  0  0  0  0
   29.5346   -1.1418   27.4810 C   0  0  0  0  0  0
   28.4500   -0.8027   26.6620 C   0  0  0  0  0  0
   27.2763   -1.5587   26.7211 C   0  0  0  0  0  0
   27.2224   -2.6697   27.5627 C   0  0  0  0  0  0
   28.3403   -3.0809   28.2640 C   0  0  0  0  0  0
   29.4743   -2.2884   28.2638 C   0  0  0  0  0  0
   26.0600   -3.3479   27.7787 O   0  0  0  0  0  0
   35.6599    2.3669   27.0940 H   0  0  0  0  0  0
   35.5683    1.6713   29.4720 H   0  0  0  0  0  0
   33.4514    0.2579   31.4736 H   0  0  0  0  0  0
   31.1396   -0.8682   30.8029 H   0  0  0  0  0  0
   33.8021    1.8811   25.5378 H   0  0  0  0  0  0
   31.0801    0.2580   25.4910 H   0  0  0  0  0  0
   28.4922    0.0732   26.0311 H   0  0  0  0  0  0
   26.4077   -1.2644   26.1501 H   0  0  0  0  0  0
   28.2911   -3.9579   28.8917 H   0  0  0  0  0  0
   30.3141   -2.5420   28.8903 H   0  0  0  0  0  0
   25.4902   -3.3420   26.9823 H   0  0  0  0  0  0
  1  9  1  0  0  0
  1  2  2  0  0  0
  1 19  1  0  0  0
  2  3  1  0  0  0
  2 20  1  0  0  0
  3  7  1  0  0  0
  3  4  2  0  0  0
  4  5  1  0  0  0
  4 21  1  0  0  0
  5  6  2  0  0  0
  5 22  1  0  0  0
  6 11  1  0  0  0
  6  7  1  0  0  0
  7  8  1  0  0  0
  8  9  2  0  0  0
  8 10  1  0  0  0
  9 23  1  0  0  0
 10 11  2  0  0  0
 10 24  1  0  0  0
 11 12  1  0  0  0
 12 17  1  0  0  0
 12 13  2  0  0  0
 13 14  1  0  0  0
 13 25  1  0  0  0
 14 15  2  0  0  0
 14 26  1  0  0  0
 15 16  1  0  0  0
 15 18  1  0  0  0
 16 17  2  0  0  0
 16 27  1  0  0  0
 17 28  1  0  0  0
 18 29  1  0  0  0
M  END
> <s_m_entry_id>
17365

> <s_m_entry_name>
ligand_docking-pose.292

> <s_m_Source_Path>
/home/csk/Desktop/cluster/DUD-E-result/esr1

> <s_m_Source_File>
ligand_docking-pose.sdf

> <i_m_Source_File_Index>
292

> <i_lp_mmshare_version>
53161

> <i_f3d_flags>
0

> <r_lp_tautomer_probability>
1

> <s_lp_Force_Field>
OPLS_2005

> <r_lp_Energy>
59.184938

> <b_lp_Chiralities_Consistent>
1

> <s_lp_Variant>
125384-1

> <s_i_glide_gridfile>
glide-grid_1sj0

> <i_i_glide_lignum>
44

> <i_i_glide_rotatable_bonds>
2

> <r_i_docking_score>
-8.63849375087125

> <r_i_glide_ligand_efficiency>
-0.479916319492847

> <r_i_glide_ligand_efficiency_sa>
-1.25773656303951

> <r_i_glide_ligand_efficiency_ln>
-2.22048027501176

> <r_i_glide_gscore>
-8.63849375087125

> <r_i_glide_lipo>
-3.75215803196669

> <r_i_glide_hbond>
-0.16

> <r_i_glide_metal>
0

> <r_i_glide_rewards>
-2.70528098560975

> <r_i_glide_evdw>
-29.7958736419678

> <r_i_glide_ecoul>
-5.64279174804688

> <r_i_glide_erotb>
0.315157711010603

> <r_i_glide_esite>
0

> <r_i_glide_emodel>
-52.6459377817893

> <r_i_glide_energy>
-35.4386653900146

> <r_i_glide_einternal>
2.7091646194458

> <i_i_glide_confnum>
1

> <i_i_glide_posenum>
116

> <r_i_glide_eff_state_penalty>
0

> <s_user_duplicate_titles>
125384

> <s_m_subgroup_title>
dock_pv

> <s_m_subgroupid>
dock_pv1

> <b_m_subgroup_collapsed>
0

$$$$
354341
                    3D
 Schrodinger Suite 2021-1.
 44 47  0  0  1  0            999 V2000
   26.3201   -3.1152   27.9680 C   0  0  0  0  0  0
   27.7922   -3.5675   28.0055 C   0  0  0  0  0  0
   28.8337   -2.4291   27.9041 C   0  0  0  0  0  0
   28.5975   -1.4943   26.6911 C   0  0  0  0  0  0
   29.7277   -0.4790   26.2604 C   0  0  1  0  0  0
   29.3045    0.9728   26.6236 C   0  0  0  0  0  0
   29.2220    1.1647   28.1494 C   0  0  0  0  0  0
   30.5286    0.7665   28.8544 C   0  0  0  0  0  0
   30.6701    1.0578   30.0410 O   0  0  0  0  0  0
   31.4624   -0.1305   28.1184 C   0  0  0  0  0  0
   31.0880   -0.7222   26.9402 C   0  0  0  0  0  0
   31.7947   -1.6773   26.0512 C   0  0  0  0  0  0
   32.8323   -2.5544   26.3348 C   0  0  0  0  0  0
   33.3887   -3.3482   25.3447 C   0  0  0  0  0  0
   32.9517   -3.2096   24.0498 C   0  0  0  0  0  0
   31.8535   -2.4024   23.7229 C   0  0  0  0  0  0
   31.2600   -1.6206   24.7598 C   0  0  0  0  0  0
   30.0822   -0.6824   24.7655 C   0  0  0  0  0  0
   31.6560   -2.7783   22.3446 C   0  0  0  0  0  0
   32.6008   -3.5330   21.8622 N   0  0  0  0  0  0
   33.3904   -3.8173   22.8941 N   0  0  0  0  0  0
   30.5635   -2.5421   21.6648 F   0  0  0  0  0  0
   32.8414   -0.3464   28.7838 C   0  0  0  0  0  0
   33.2021    0.6490   29.5985 F   0  0  0  0  0  0
   32.8290   -1.4842   29.4753 F   0  0  0  0  0  0
   33.8024   -0.4063   27.8639 F   0  0  0  0  0  0
   34.1612   -4.4588   22.7774 H   0  0  0  0  0  0
   25.6509   -3.9742   27.9717 H   0  0  0  0  0  0
   26.0925   -2.5551   27.0628 H   0  0  0  0  0  0
   26.0566   -2.4719   28.8026 H   0  0  0  0  0  0
   27.9698   -4.1399   28.9162 H   0  0  0  0  0  0
   27.9578   -4.2671   27.1846 H   0  0  0  0  0  0
   28.8533   -1.8486   28.8268 H   0  0  0  0  0  0
   29.8153   -2.8980   27.8240 H   0  0  0  0  0  0
   28.3139   -2.1412   25.8654 H   0  0  0  0  0  0
   27.6771   -0.9372   26.8690 H   0  0  0  0  0  0
   30.0358    1.6933   26.2640 H   0  0  0  0  0  0
   28.3570    1.2347   26.1507 H   0  0  0  0  0  0
   28.4526    0.5035   28.5439 H   0  0  0  0  0  0
   28.9546    2.1832   28.4303 H   0  0  0  0  0  0
   33.1863   -2.6868   27.3453 H   0  0  0  0  0  0
   34.0599   -4.1364   25.5362 H   0  0  0  0  0  0
   29.2611   -1.1258   24.2299 H   0  0  0  0  0  0
   30.2964    0.2561   24.2685 H   0  0  0  0  0  0
  1  2  1  0  0  0
  1 28  1  0  0  0
  1 29  1  0  0  0
  1 30  1  0  0  0
  2  3  1  0  0  0
  2 31  1  0  0  0
  2 32  1  0  0  0
  3  4  1  0  0  0
  3 33  1  0  0  0
  3 34  1  0  0  0
  4  5  1  0  0  0
  4 35  1  0  0  0
  4 36  1  0  0  0
  5 11  1  0  0  0
  5 18  1  0  0  0
  5  6  1  0  0  0
  6  7  1  0  0  0
  6 37  1  0  0  0
  6 38  1  0  0  0
  7  8  1  0  0  0
  7 39  1  0  0  0
  7 40  1  0  0  0
  8  9  2  0  0  0
  8 10  1  0  0  0
 10 11  2  0  0  0
 10 23  1  0  0  0
 11 12  1  0  0  0
 12 17  1  0  0  0
 12 13  2  0  0  0
 13 14  1  0  0  0
 13 41  1  0  0  0
 14 15  2  0  0  0
 14 42  1  0  0  0
 15 21  1  0  0  0
 15 16  1  0  0  0
 16 17  2  0  0  0
 16 19  1  0  0  0
 17 18  1  0  0  0
 18 43  1  0  0  0
 18 44  1  0  0  0
 19 20  2  0  0  0
 19 22  1  0  0  0
 20 21  1  0  0  0
 21 27  1  0  0  0
 23 24  1  0  0  0
 23 25  1  0  0  0
 23 26  1  0  0  0
M  END
> <s_m_entry_id>
17366

> <s_m_entry_name>
ligand_docking-pose.293

> <s_m_Source_Path>
/home/csk/Desktop/cluster/DUD-E-result/esr1

> <s_m_Source_File>
ligand_docking-pose.sdf

> <i_m_Source_File_Index>
293

> <i_lp_mmshare_version>
53161

> <i_f3d_flags>
0

> <r_lp_tautomer_probability>
1

> <s_lp_Force_Field>
OPLS_2005

> <r_lp_Energy>
40.227166

> <b_lp_Chiralities_Consistent>
1

> <s_lp_Variant>
354341-1

> <s_i_glide_gridfile>
glide-grid_1sj0

> <i_i_glide_lignum>
1307

> <i_i_glide_rotatable_bonds>
4

> <r_i_docking_score>
-8.63600088145974

> <r_i_glide_ligand_efficiency>
-0.332153880056144

> <r_i_glide_ligand_efficiency_sa>
-0.984004562703919

> <r_i_glide_ligand_efficiency_ln>
-2.02813646998066

> <r_i_glide_gscore>
-8.63600088145974

> <r_i_glide_lipo>
-4.50512758971906

> <r_i_glide_hbond>
0

> <r_i_glide_metal>
0

> <r_i_glide_rewards>
-2.99769042808058

> <r_i_glide_evdw>
-28.86155128479

> <r_i_glide_ecoul>
0.153985917568207

> <r_i_glide_erotb>
0.286802103225704

> <r_i_glide_esite>
-5.2902815359311e-06

> <r_i_glide_emodel>
-41.4388330311681

> <r_i_glide_energy>
-28.7075653672218

> <r_i_glide_einternal>
4.29749584197998

> <i_i_glide_confnum>
6

> <i_i_glide_posenum>
49

> <r_i_glide_eff_state_penalty>
0

> <s_user_duplicate_titles>
354341

> <s_m_subgroup_title>
dock_pv

> <s_m_subgroupid>
dock_pv1

> <b_m_subgroup_collapsed>
0

$$$$
341924
                    3D
 Schrodinger Suite 2021-1.
 35 37  0  0  1  0            999 V2000
   33.8438   -1.4437   28.6640 C   0  0  0  0  0  0
   32.6773   -0.5146   28.9223 C   0  0  0  0  0  0
   32.8460    0.6166   29.7331 C   0  0  0  0  0  0
   31.7646    1.4341   30.0181 C   0  0  0  0  0  0
   30.5302    1.1829   29.4424 C   0  0  0  0  0  0
   30.3612    0.0856   28.5933 C   0  0  0  0  0  0
   31.4272   -0.7875   28.3349 C   0  0  0  0  0  0
   31.1283   -2.0026   27.4358 C   0  0  1  0  0  0
   29.8141   -2.5249   27.6900 O   0  0  0  0  0  0
   28.8033   -1.5843   27.6287 C   0  0  0  0  0  0
   29.0414   -0.2535   28.0127 C   0  0  0  0  0  0
   28.0322    0.6913   27.8638 C   0  0  0  0  0  0
   26.7752    0.2907   27.4496 C   0  0  0  0  0  0
   26.5183   -1.0331   27.1053 C   0  0  0  0  0  0
   27.5323   -1.9961   27.2028 C   0  0  0  0  0  0
   27.2426   -3.4588   26.8822 C   0  0  0  0  0  0
   25.2610   -1.3419   26.6645 O   0  0  0  0  0  0
   31.3255   -1.6805   25.9398 C   0  0  0  0  0  0
   34.0594    0.9564   30.2640 O   0  0  0  0  0  0
   33.7300   -1.8662   27.6687 H   0  0  0  0  0  0
   34.8044   -0.9302   28.6651 H   0  0  0  0  0  0
   33.8690   -2.2531   29.3946 H   0  0  0  0  0  0
   31.8852    2.2580   30.6980 H   0  0  0  0  0  0
   29.7043    1.8318   29.6915 H   0  0  0  0  0  0
   31.8057   -2.8195   27.6717 H   0  0  0  0  0  0
   28.1895    1.7296   28.1139 H   0  0  0  0  0  0
   26.0041    1.0361   27.3856 H   0  0  0  0  0  0
   26.4552   -3.8306   27.5383 H   0  0  0  0  0  0
   26.8703   -3.5518   25.8641 H   0  0  0  0  0  0
   28.1037   -4.1158   26.9929 H   0  0  0  0  0  0
   25.1554   -2.2329   26.2683 H   0  0  0  0  0  0
   32.3382   -1.3310   25.7380 H   0  0  0  0  0  0
   31.1575   -2.5662   25.3275 H   0  0  0  0  0  0
   30.6385   -0.9059   25.5975 H   0  0  0  0  0  0
   34.7629    0.3664   29.9850 H   0  0  0  0  0  0
  1  2  1  0  0  0
  1 20  1  0  0  0
  1 21  1  0  0  0
  1 22  1  0  0  0
  2  7  1  0  0  0
  2  3  2  0  0  0
  3  4  1  0  0  0
  3 19  1  0  0  0
  4  5  2  0  0  0
  4 23  1  0  0  0
  5  6  1  0  0  0
  5 24  1  0  0  0
  6 11  1  0  0  0
  6  7  2  0  0  0
  7  8  1  0  0  0
  8  9  1  0  0  0
  8 18  1  0  0  0
  8 25  1  0  0  0
  9 10  1  0  0  0
 10 15  2  0  0  0
 10 11  1  0  0  0
 11 12  2  0  0  0
 12 13  1  0  0  0
 12 26  1  0  0  0
 13 14  2  0  0  0
 13 27  1  0  0  0
 14 15  1  0  0  0
 14 17  1  0  0  0
 15 16  1  0  0  0
 16 28  1  0  0  0
 16 29  1  0  0  0
 16 30  1  0  0  0
 17 31  1  0  0  0
 18 32  1  0  0  0
 18 33  1  0  0  0
 18 34  1  0  0  0
 19 35  1  0  0  0
M  END
> <s_m_entry_id>
17367

> <s_m_entry_name>
ligand_docking-pose.294

> <s_m_Source_Path>
/home/csk/Desktop/cluster/DUD-E-result/esr1

> <s_m_Source_File>
ligand_docking-pose.sdf

> <i_m_Source_File_Index>
294

> <i_lp_mmshare_version>
53161

> <i_f3d_flags>
0

> <r_lp_tautomer_probability>
0.999999999997365

> <s_lp_Force_Field>
OPLS_2005

> <r_lp_Energy>
17.842547

> <b_lp_Chiralities_Consistent>
1

> <s_lp_Variant>
341924-1

> <s_i_glide_gridfile>
glide-grid_1sj0

> <i_i_glide_lignum>
960

> <i_i_glide_rotatable_bonds>
2

> <r_i_docking_score>
-8.63442008274896

> <r_i_glide_ligand_efficiency>
-0.454443162249945

> <r_i_glide_ligand_efficiency_sa>
-1.21263688220799

> <r_i_glide_ligand_efficiency_ln>
-2.18901094131608

> <r_i_glide_gscore>
-8.63442008274896

> <r_i_glide_lipo>
-3.54932532856488

> <r_i_glide_hbond>
-0.200418426090558

> <r_i_glide_metal>
0

> <r_i_glide_rewards>
-2.52741700688076

> <r_i_glide_evdw>
-26.6496448516846

> <r_i_glide_ecoul>
-6.83184719085693

> <r_i_glide_erotb>
0

> <r_i_glide_esite>
0

> <r_i_glide_emodel>
-47.7584603764857

> <r_i_glide_energy>
-33.4814920425415

> <r_i_glide_einternal>
0.239671856164932

> <i_i_glide_confnum>
1

> <i_i_glide_posenum>
96

> <r_i_glide_eff_state_penalty>
0

> <s_user_duplicate_titles>
341924

> <s_m_subgroup_title>
dock_pv

> <s_m_subgroupid>
dock_pv1

> <b_m_subgroup_collapsed>
0

$$$$
313397
                    3D
 Schrodinger Suite 2021-1.
 35 38  0  0  1  0            999 V2000
   35.1708   -0.1423   29.1551 C   0  0  0  0  0  0
   33.6728    0.0677   29.0268 C   0  0  0  0  0  0
   33.0227   -0.3209   27.8620 C   0  0  0  0  0  0
   31.6260   -0.1105   27.6632 C   0  0  0  0  0  0
   30.9112    0.5698   28.7020 C   0  0  0  0  0  0
   29.5426    0.8834   28.4961 C   0  0  0  0  0  0
   28.8961    0.5157   27.3231 C   0  0  0  0  0  0
   29.5680   -0.2021   26.3430 C   0  0  0  0  0  0
   30.9144   -0.5489   26.4863 C   0  0  0  0  0  0
   31.5142   -1.4310   25.4258 C   0  0  0  0  0  0
   32.4962   -2.2830   25.6168 N   0  0  0  0  0  0
   32.6994   -2.8295   24.3933 C   0  0  0  0  0  0
   33.6608   -3.7418   23.9734 C   0  0  0  0  0  0
   33.6601   -4.1289   22.6321 C   0  0  0  0  0  0
   32.6763   -3.7002   21.7500 C   0  0  0  0  0  0
   31.6631   -2.8333   22.1642 C   0  0  0  0  0  0
   31.7456   -2.3569   23.4862 C   0  0  0  0  0  0
   30.9833   -1.4362   24.1551 O   0  0  0  0  0  0
   32.7412   -4.1377   20.4591 O   0  0  0  0  0  0
   31.5911    0.9039   29.9126 C   0  0  0  0  0  0
   32.9520    0.6599   30.0531 C   0  0  0  0  0  0
   30.9314    1.4574   30.9749 O   0  0  0  0  0  0
   35.6149    0.5573   29.8627 H   0  0  0  0  0  0
   35.6652    0.0379   28.2000 H   0  0  0  0  0  0
   35.3937   -1.1631   29.4653 H   0  0  0  0  0  0
   33.6198   -0.7749   27.0936 H   0  0  0  0  0  0
   28.9988    1.4158   29.2635 H   0  0  0  0  0  0
   27.8531    0.7623   27.1855 H   0  0  0  0  0  0
   29.0169   -0.5158   25.4677 H   0  0  0  0  0  0
   34.3998   -4.1234   24.6638 H   0  0  0  0  0  0
   34.4336   -4.7871   22.2610 H   0  0  0  0  0  0
   30.8861   -2.5426   21.4788 H   0  0  0  0  0  0
   32.0930   -4.8395   20.2647 H   0  0  0  0  0  0
   33.4593    0.9388   30.9645 H   0  0  0  0  0  0
   31.5138    1.6310   31.7161 H   0  0  0  0  0  0
  1  2  1  0  0  0
  1 23  1  0  0  0
  1 24  1  0  0  0
  1 25  1  0  0  0
  2 21  1  0  0  0
  2  3  2  0  0  0
  3  4  1  0  0  0
  3 26  1  0  0  0
  4  9  2  0  0  0
  4  5  1  0  0  0
  5  6  2  0  0  0
  5 20  1  0  0  0
  6  7  1  0  0  0
  6 27  1  0  0  0
  7  8  2  0  0  0
  7 28  1  0  0  0
  8  9  1  0  0  0
  8 29  1  0  0  0
  9 10  1  0  0  0
 10 18  1  0  0  0
 10 11  2  0  0  0
 11 12  1  0  0  0
 12 17  2  0  0  0
 12 13  1  0  0  0
 13 14  2  0  0  0
 13 30  1  0  0  0
 14 15  1  0  0  0
 14 31  1  0  0  0
 15 16  2  0  0  0
 15 19  1  0  0  0
 16 17  1  0  0  0
 16 32  1  0  0  0
 17 18  1  0  0  0
 19 33  1  0  0  0
 20 21  2  0  0  0
 20 22  1  0  0  0
 21 34  1  0  0  0
 22 35  1  0  0  0
M  END
> <s_m_entry_id>
17368

> <s_m_entry_name>
ligand_docking-pose.295

> <s_m_Source_Path>
/home/csk/Desktop/cluster/DUD-E-result/esr1

> <s_m_Source_File>
ligand_docking-pose.sdf

> <i_m_Source_File_Index>
295

> <i_lp_mmshare_version>
53161

> <i_f3d_flags>
0

> <r_lp_tautomer_probability>
1

> <s_lp_Force_Field>
OPLS_2005

> <r_lp_Energy>
22.579231

> <b_lp_Chiralities_Consistent>
1

> <s_lp_Variant>
313397-1

> <s_i_glide_gridfile>
glide-grid_1sj0

> <i_i_glide_lignum>
911

> <i_i_glide_rotatable_bonds>
3

> <r_i_docking_score>
-8.63254022318238

> <r_i_glide_ligand_efficiency>
-0.392388191962835

> <r_i_glide_ligand_efficiency_sa>
-1.09948714563177

> <r_i_glide_ligand_efficiency_ln>
-2.11010771010112

> <r_i_glide_gscore>
-8.63254022318238

> <r_i_glide_lipo>
-3.96072560338064

> <r_i_glide_hbond>
-0.16

> <r_i_glide_metal>
0

> <r_i_glide_rewards>
-2.32173343257341

> <r_i_glide_evdw>
-32.4585571289062

> <r_i_glide_ecoul>
-5.21394443511963

> <r_i_glide_erotb>
0.214938334484929

> <r_i_glide_esite>
0

> <r_i_glide_emodel>
-52.8960363196774

> <r_i_glide_energy>
-37.6725015640259

> <r_i_glide_einternal>
3.74775981903076

> <i_i_glide_confnum>
1

> <i_i_glide_posenum>
27

> <r_i_glide_eff_state_penalty>
0

> <s_user_duplicate_titles>
313397

> <s_m_subgroup_title>
dock_pv

> <s_m_subgroupid>
dock_pv1

> <b_m_subgroup_collapsed>
0

$$$$
50263
                    3D
 Schrodinger Suite 2021-1.
 38 40  0  0  1  0            999 V2000
   26.8599    0.8634   27.4641 C   0  0  0  0  0  0
   26.6261   -0.4480   27.0641 C   0  0  0  0  0  0
   27.6627   -1.1581   26.4806 C   0  0  0  0  0  0
   28.9014   -0.5381   26.3107 C   0  0  0  0  0  0
   29.1327    0.7578   26.7737 C   0  0  0  0  0  0
   28.1041    1.4573   27.3678 C   0  0  0  0  0  0
   29.9307   -1.2361   25.5640 C   0  0  0  0  0  0
   31.2588   -1.2736   25.7959 C   0  0  0  0  0  0
   31.8959   -0.6708   26.9949 C   0  0  0  0  0  0
   31.5210   -1.0821   28.2794 C   0  0  0  0  0  0
   32.1104   -0.5029   29.4006 C   0  0  0  0  0  0
   33.0759    0.4871   29.2369 C   0  0  0  0  0  0
   33.4540    0.9078   27.9651 C   0  0  0  0  0  0
   32.8596    0.3314   26.8470 C   0  0  0  0  0  0
   33.6579    1.0553   30.3349 O   0  0  0  0  0  0
   32.1245   -1.9468   24.8072 C   0  0  0  0  0  0
   33.2286   -2.6835   25.2255 C   0  0  0  0  0  0
   34.0092   -3.3420   24.2910 C   0  0  0  0  0  0
   33.6846   -3.2991   22.9355 C   0  0  0  0  0  0
   32.5756   -2.5864   22.5092 C   0  0  0  0  0  0
   31.8111   -1.9023   23.4429 C   0  0  0  0  0  0
   34.4577   -3.9383   22.0073 O   0  0  0  0  0  0
   26.0603    1.4556   27.8634 H   0  0  0  0  0  0
   25.6464   -0.8916   27.1632 H   0  0  0  0  0  0
   27.4834   -2.1622   26.1212 H   0  0  0  0  0  0
   30.0874    1.2440   26.6410 H   0  0  0  0  0  0
   28.2545    2.4601   27.7240 H   0  0  0  0  0  0
   29.5455   -1.7306   24.6901 H   0  0  0  0  0  0
   30.7706   -1.8488   28.4097 H   0  0  0  0  0  0
   31.8222   -0.8214   30.3916 H   0  0  0  0  0  0
   34.2043    1.6741   27.8367 H   0  0  0  0  0  0
   33.1540    0.6664   25.8639 H   0  0  0  0  0  0
   34.3627    1.6623   30.1011 H   0  0  0  0  0  0
   33.4895   -2.7473   26.2721 H   0  0  0  0  0  0
   34.8591   -3.8731   24.6641 H   0  0  0  0  0  0
   32.3112   -2.5494   21.4622 H   0  0  0  0  0  0
   30.9634   -1.3416   23.0881 H   0  0  0  0  0  0
   34.0431   -3.9965   21.1429 H   0  0  0  0  0  0
  1  6  1  0  0  0
  1  2  2  0  0  0
  1 23  1  0  0  0
  2  3  1  0  0  0
  2 24  1  0  0  0
  3  4  2  0  0  0
  3 25  1  0  0  0
  4  5  1  0  0  0
  4  7  1  0  0  0
  5  6  2  0  0  0
  5 26  1  0  0  0
  6 27  1  0  0  0
  7  8  2  3  0  0
  7 28  1  0  0  0
  8  9  1  0  0  0
  8 16  1  0  0  0
  9 14  1  0  0  0
  9 10  2  0  0  0
 10 11  1  0  0  0
 10 29  1  0  0  0
 11 12  2  0  0  0
 11 30  1  0  0  0
 12 13  1  0  0  0
 12 15  1  0  0  0
 13 14  2  0  0  0
 13 31  1  0  0  0
 14 32  1  0  0  0
 15 33  1  0  0  0
 16 21  1  0  0  0
 16 17  2  0  0  0
 17 18  1  0  0  0
 17 34  1  0  0  0
 18 19  2  0  0  0
 18 35  1  0  0  0
 19 20  1  0  0  0
 19 22  1  0  0  0
 20 21  2  0  0  0
 20 36  1  0  0  0
 21 37  1  0  0  0
 22 38  1  0  0  0
M  END
> <s_m_entry_id>
17369

> <s_m_entry_name>
ligand_docking-pose.296

> <s_m_Source_Path>
/home/csk/Desktop/cluster/DUD-E-result/esr1

> <s_m_Source_File>
ligand_docking-pose.sdf

> <i_m_Source_File_Index>
296

> <i_lp_mmshare_version>
53161

> <i_f3d_flags>
0

> <r_lp_tautomer_probability>
1

> <s_lp_Force_Field>
OPLS_2005

> <r_lp_Energy>
25.129316

> <b_lp_Chiralities_Consistent>
1

> <s_lp_Variant>
50263-1

> <s_i_glide_gridfile>
glide-grid_1sj0

> <i_i_glide_lignum>
409

> <i_i_glide_rotatable_bonds>
5

> <r_i_docking_score>
-8.63158681424832

> <r_i_glide_ligand_efficiency>
-0.392344855193105

> <r_i_glide_ligand_efficiency_sa>
-1.09936571429865

> <r_i_glide_ligand_efficiency_ln>
-2.1098746621812

> <r_i_glide_gscore>
-8.63158681424832

> <r_i_glide_lipo>
-5.24994703383514

> <r_i_glide_hbond>
0

> <r_i_glide_metal>
0

> <r_i_glide_rewards>
-2.34313745454545

> <r_i_glide_evdw>
-31.9172267913818

> <r_i_glide_ecoul>
-0.660295069217682

> <r_i_glide_erotb>
0.656403274084013

> <r_i_glide_esite>
0

> <r_i_glide_emodel>
-44.349653356167

> <r_i_glide_energy>
-32.5775218605995

> <r_i_glide_einternal>
2.18690085411072

> <i_i_glide_confnum>
51

> <i_i_glide_posenum>
394

> <r_i_glide_eff_state_penalty>
0

> <s_user_duplicate_titles>
50263

> <s_m_subgroup_title>
dock_pv

> <s_m_subgroupid>
dock_pv1

> <b_m_subgroup_collapsed>
0

$$$$
313082
                    3D
 Schrodinger Suite 2021-1.
 26 28  0  0  1  0            999 V2000
   31.5877   -2.3581   26.8896 C   0  0  0  0  0  0
   32.5806   -3.1886   26.3771 C   0  0  0  0  0  0
   33.0882   -2.9420   25.1047 C   0  0  0  0  0  0
   32.6210   -1.8766   24.3445 C   0  0  0  0  0  0
   31.6436   -1.0368   24.8628 C   0  0  0  0  0  0
   31.1214   -1.2835   26.1343 C   0  0  0  0  0  0
   29.9961   -0.4576   26.6274 C   0  0  0  0  0  0
   28.7177   -0.9244   27.0507 C   0  0  0  0  0  0
   28.0751   -2.1552   27.2819 C   0  0  0  0  0  0
   26.7178   -2.1403   27.6173 C   0  0  0  0  0  0
   26.0077   -0.9420   27.6859 C   0  0  0  0  0  0
   26.6257    0.2841   27.4640 C   0  0  0  0  0  0
   27.9864    0.2626   27.1817 C   0  0  0  0  0  0
   28.7856    1.3421   26.9721 O   0  0  0  0  0  0
   30.0601    0.8575   26.6640 N   0  0  0  0  0  0
   26.0600   -3.3140   27.8640 O   0  0  0  0  0  0
   34.0600   -3.7420   24.5820 O   0  0  0  0  0  0
   31.1727   -2.5420   27.8683 H   0  0  0  0  0  0
   32.9438   -4.0191   26.9636 H   0  0  0  0  0  0
   33.0178   -1.7055   23.3549 H   0  0  0  0  0  0
   31.2726   -0.2182   24.2640 H   0  0  0  0  0  0
   28.6053   -3.0922   27.1878 H   0  0  0  0  0  0
   24.9561   -0.9482   27.9169 H   0  0  0  0  0  0
   26.0787    1.2124   27.5070 H   0  0  0  0  0  0
   25.4367   -3.5119   27.1433 H   0  0  0  0  0  0
   34.1374   -4.6140   24.9947 H   0  0  0  0  0  0
  1  6  1  0  0  0
  1  2  2  0  0  0
  1 18  1  0  0  0
  2  3  1  0  0  0
  2 19  1  0  0  0
  3  4  2  0  0  0
  3 17  1  0  0  0
  4  5  1  0  0  0
  4 20  1  0  0  0
  5  6  2  0  0  0
  5 21  1  0  0  0
  6  7  1  0  0  0
  7 15  2  0  0  0
  7  8  1  0  0  0
  8 13  2  0  0  0
  8  9  1  0  0  0
  9 10  2  0  0  0
  9 22  1  0  0  0
 10 11  1  0  0  0
 10 16  1  0  0  0
 11 12  2  0  0  0
 11 23  1  0  0  0
 12 13  1  0  0  0
 12 24  1  0  0  0
 13 14  1  0  0  0
 14 15  1  0  0  0
 16 25  1  0  0  0
 17 26  1  0  0  0
M  END
> <s_m_entry_id>
17370

> <s_m_entry_name>
ligand_docking-pose.297

> <s_m_Source_Path>
/home/csk/Desktop/cluster/DUD-E-result/esr1

> <s_m_Source_File>
ligand_docking-pose.sdf

> <i_m_Source_File_Index>
297

> <i_lp_mmshare_version>
53161

> <i_f3d_flags>
0

> <r_lp_tautomer_probability>
0.999999999997365

> <s_lp_Force_Field>
OPLS_2005

> <r_lp_Energy>
19.7109

> <b_lp_Chiralities_Consistent>
1

> <s_lp_Variant>
313082-1

> <s_i_glide_gridfile>
glide-grid_1sj0

> <i_i_glide_lignum>
194

> <i_i_glide_rotatable_bonds>
3

> <r_i_docking_score>
-8.62956508960572

> <r_i_glide_ligand_efficiency>
-0.50762147585916

> <r_i_glide_ligand_efficiency_sa>
-1.30523775466675

> <r_i_glide_ligand_efficiency_ln>
-2.25126136091192

> <r_i_glide_gscore>
-8.62956508960572

> <r_i_glide_lipo>
-3.23584588037165

> <r_i_glide_hbond>
-0.456

> <r_i_glide_metal>
0

> <r_i_glide_rewards>
-2.62463965990375

> <r_i_glide_evdw>
-28.4902114868164

> <r_i_glide_ecoul>
-8.12065696716309

> <r_i_glide_erotb>
0.32952957008496

> <r_i_glide_esite>
0

> <r_i_glide_emodel>
-50.3767369309086

> <r_i_glide_energy>
-36.6108684539795

> <r_i_glide_einternal>
5.70319557189941

> <i_i_glide_confnum>
2

> <i_i_glide_posenum>
353

> <r_i_glide_eff_state_penalty>
0

> <s_user_duplicate_titles>
313082

> <s_m_subgroup_title>
dock_pv

> <s_m_subgroupid>
dock_pv1

> <b_m_subgroup_collapsed>
0

$$$$
21685
                    3D
 Schrodinger Suite 2021-1.
 42 45  0  0  1  0            999 V2000
   32.8573    0.7978   30.4523 C   0  0  0  0  0  0
   33.1872    0.5032   28.9609 C   0  0  1  0  0  0
   33.6860   -0.9414   28.7566 C   0  0  0  0  0  0
   32.5570   -1.9377   28.9166 C   0  0  0  0  0  0
   31.4594   -1.7535   27.8619 C   0  0  2  0  0  0
   31.8535   -2.1151   26.4207 C   0  0  0  0  0  0
   32.8600   -3.0545   26.1428 C   0  0  0  0  0  0
   33.2600   -3.3397   24.8407 C   0  0  0  0  0  0
   32.6524   -2.6798   23.7823 C   0  0  0  0  0  0
   31.6400   -1.7620   24.0357 C   0  0  0  0  0  0
   31.1999   -1.4930   25.3377 C   0  0  0  0  0  0
   30.0557   -0.5032   25.5571 C   0  0  0  0  0  0
   29.7262   -0.1642   27.0220 C   0  0  0  0  0  0
   30.9004   -0.3135   28.0025 C   0  0  2  0  0  0
   31.9868    0.8269   28.0308 C   0  0  2  0  0  0
   32.6649    1.2363   26.7272 C   0  0  0  0  0  0
   33.9850    1.9042   27.0640 C   0  0  0  0  0  0
   34.2895    1.4580   28.4789 C   0  0  0  0  0  0
   35.2600    1.8222   29.1201 O   0  0  0  0  0  0
   33.0325   -2.9367   22.4939 O   0  0  0  0  0  0
   30.6521   -2.4422   28.1199 H   0  0  0  0  0  0
   31.4801    1.7153   28.4183 H   0  0  0  0  0  0
   31.9507    0.2903   30.7800 H   0  0  0  0  0  0
   33.6600    0.4675   31.1114 H   0  0  0  0  0  0
   32.6963    1.8580   30.6419 H   0  0  0  0  0  0
   34.0600   -1.0736   27.7439 H   0  0  0  0  0  0
   34.4803   -1.1919   29.4636 H   0  0  0  0  0  0
   32.9198   -2.9568   28.9896 H   0  0  0  0  0  0
   32.0825   -1.7420   29.8642 H   0  0  0  0  0  0
   33.3491   -3.5809   26.9459 H   0  0  0  0  0  0
   34.0390   -4.0670   24.6641 H   0  0  0  0  0  0
   31.1730   -1.2680   23.1999 H   0  0  0  0  0  0
   30.3165    0.4180   25.0640 H   0  0  0  0  0  0
   29.1560   -0.8672   25.0640 H   0  0  0  0  0  0
   29.2907    0.8334   27.0952 H   0  0  0  0  0  0
   28.9312   -0.8396   27.3447 H   0  0  0  0  0  0
   30.4392   -0.2881   28.9922 H   0  0  0  0  0  0
   32.8173    0.4209   26.0242 H   0  0  0  0  0  0
   32.0600    1.9923   26.2640 H   0  0  0  0  0  0
   34.7836    1.6155   26.3829 H   0  0  0  0  0  0
   33.9047    2.9908   27.0401 H   0  0  0  0  0  0
   33.6369   -3.6780   22.4165 H   0  0  0  0  0  0
  1  2  1  0  0  0
  1 23  1  0  0  0
  1 24  1  0  0  0
  1 25  1  0  0  0
  2 15  1  0  0  0
  2 18  1  0  0  0
  2  3  1  0  0  0
  3  4  1  0  0  0
  3 26  1  0  0  0
  3 27  1  0  0  0
  4  5  1  0  0  0
  4 28  1  0  0  0
  4 29  1  0  0  0
  5 21  1  0  0  0
  5 14  1  0  0  0
  5  6  1  0  0  0
  6 11  2  0  0  0
  6  7  1  0  0  0
  7  8  2  0  0  0
  7 30  1  0  0  0
  8  9  1  0  0  0
  8 31  1  0  0  0
  9 10  2  0  0  0
  9 20  1  0  0  0
 10 11  1  0  0  0
 10 32  1  0  0  0
 11 12  1  0  0  0
 12 13  1  0  0  0
 12 33  1  0  0  0
 12 34  1  0  0  0
 13 14  1  0  0  0
 13 35  1  0  0  0
 13 36  1  0  0  0
 14 15  1  0  0  0
 14 37  1  0  0  0
 15 22  1  0  0  0
 15 16  1  0  0  0
 16 17  1  0  0  0
 16 38  1  0  0  0
 16 39  1  0  0  0
 17 18  1  0  0  0
 17 40  1  0  0  0
 17 41  1  0  0  0
 18 19  2  0  0  0
 20 42  1  0  0  0
M  END
> <s_m_entry_id>
17371

> <s_m_entry_name>
ligand_docking-pose.298

> <s_m_Source_Path>
/home/csk/Desktop/cluster/DUD-E-result/esr1

> <s_m_Source_File>
ligand_docking-pose.sdf

> <i_m_Source_File_Index>
298

> <i_lp_mmshare_version>
53161

> <i_f3d_flags>
0

> <r_lp_tautomer_probability>
0.999949999997365

> <s_lp_Force_Field>
OPLS_2005

> <r_lp_Energy>
38.711419

> <b_lp_Chiralities_Consistent>
1

> <s_lp_Variant>
21685-1

> <s_i_glide_gridfile>
glide-grid_1sj0

> <i_i_glide_lignum>
795

> <i_i_glide_rotatable_bonds>
1

> <r_i_docking_score>
-8.62909944359412

> <r_i_glide_ligand_efficiency>
-0.431454972179706

> <r_i_glide_ligand_efficiency_sa>
-1.17114897608258

> <r_i_glide_ligand_efficiency_ln>
-2.15957898398408

> <r_i_glide_gscore>
-8.62909944359412

> <r_i_glide_lipo>
-4.69198213525516

> <r_i_glide_hbond>
0

> <r_i_glide_metal>
0

> <r_i_glide_rewards>
-2.68651041980632

> <r_i_glide_evdw>
-30.6971702575684

> <r_i_glide_ecoul>
1.89501082897186

> <r_i_glide_erotb>
0

> <r_i_glide_esite>
0

> <r_i_glide_emodel>
-40.984520420069

> <r_i_glide_energy>
-28.8021594285965

> <r_i_glide_einternal>
0.109163671731949

> <i_i_glide_confnum>
1

> <i_i_glide_posenum>
182

> <r_i_glide_eff_state_penalty>
0

> <s_user_duplicate_titles>
21685

> <s_m_subgroup_title>
dock_pv

> <s_m_subgroupid>
dock_pv1

> <b_m_subgroup_collapsed>
0

$$$$
313460
                    3D
 Schrodinger Suite 2021-1.
 32 35  0  0  1  0            999 V2000
   28.6422    0.8666   26.7806 C   0  0  0  0  0  0
   29.1131    1.2671   28.0220 C   0  0  0  0  0  0
   30.3827    0.8427   28.4745 C   0  0  0  0  0  0
   30.8475    1.2351   29.7552 C   0  0  0  0  0  0
   32.0888    0.8232   30.2187 C   0  0  0  0  0  0
   32.9021    0.0329   29.4194 C   0  0  0  0  0  0
   32.4808   -0.3631   28.1527 C   0  0  0  0  0  0
   31.1999    0.0118   27.6356 C   0  0  0  0  0  0
   30.6903   -0.3903   26.3411 C   0  0  0  0  0  0
   29.4139    0.0489   25.9675 C   0  0  0  0  0  0
   31.4137   -1.2606   25.3359 C   0  0  0  0  0  0
   32.5160   -1.9494   25.5413 N   0  0  0  0  0  0
   32.7763   -2.5381   24.3446 C   0  0  0  0  0  0
   33.8455   -3.3420   23.9444 C   0  0  0  0  0  0
   33.8471   -3.8178   22.6278 C   0  0  0  0  0  0
   32.7912   -3.5789   21.7543 C   0  0  0  0  0  0
   31.7098   -2.7820   22.1383 C   0  0  0  0  0  0
   31.7568   -2.2393   23.4353 C   0  0  0  0  0  0
   30.8919   -1.3889   24.0673 O   0  0  0  0  0  0
   32.8597   -4.1414   20.5069 O   0  0  0  0  0  0
   32.5126    1.2019   31.4637 O   0  0  0  0  0  0
   27.6656    1.1897   26.4456 H   0  0  0  0  0  0
   28.5032    1.8983   28.6507 H   0  0  0  0  0  0
   30.2181    1.8552   30.3748 H   0  0  0  0  0  0
   33.8719   -0.2737   29.7815 H   0  0  0  0  0  0
   33.1681   -0.9647   27.5880 H   0  0  0  0  0  0
   28.9960   -0.2363   25.0144 H   0  0  0  0  0  0
   34.6399   -3.5719   24.6366 H   0  0  0  0  0  0
   34.6606   -4.4300   22.2640 H   0  0  0  0  0  0
   30.8963   -2.5760   21.4593 H   0  0  0  0  0  0
   32.1314   -4.7509   20.2914 H   0  0  0  0  0  0
   31.8788    1.7696   31.9051 H   0  0  0  0  0  0
  1 10  1  0  0  0
  1  2  2  0  0  0
  1 22  1  0  0  0
  2  3  1  0  0  0
  2 23  1  0  0  0
  3  8  2  0  0  0
  3  4  1  0  0  0
  4  5  2  0  0  0
  4 24  1  0  0  0
  5  6  1  0  0  0
  5 21  1  0  0  0
  6  7  2  0  0  0
  6 25  1  0  0  0
  7  8  1  0  0  0
  7 26  1  0  0  0
  8  9  1  0  0  0
  9 10  2  0  0  0
  9 11  1  0  0  0
 10 27  1  0  0  0
 11 19  1  0  0  0
 11 12  2  0  0  0
 12 13  1  0  0  0
 13 18  2  0  0  0
 13 14  1  0  0  0
 14 15  2  0  0  0
 14 28  1  0  0  0
 15 16  1  0  0  0
 15 29  1  0  0  0
 16 17  2  0  0  0
 16 20  1  0  0  0
 17 18  1  0  0  0
 17 30  1  0  0  0
 18 19  1  0  0  0
 20 31  1  0  0  0
 21 32  1  0  0  0
M  END
> <s_m_entry_id>
17372

> <s_m_entry_name>
ligand_docking-pose.299

> <s_m_Source_Path>
/home/csk/Desktop/cluster/DUD-E-result/esr1

> <s_m_Source_File>
ligand_docking-pose.sdf

> <i_m_Source_File_Index>
299

> <i_lp_mmshare_version>
53161

> <i_f3d_flags>
0

> <r_lp_tautomer_probability>
1

> <s_lp_Force_Field>
OPLS_2005

> <r_lp_Energy>
20.245029

> <b_lp_Chiralities_Consistent>
1

> <s_lp_Variant>
313460-1

> <s_i_glide_gridfile>
glide-grid_1sj0

> <i_i_glide_lignum>
49

> <i_i_glide_rotatable_bonds>
3

> <r_i_docking_score>
-8.62703643170523

> <r_i_glide_ligand_efficiency>
-0.41081125865263

> <r_i_glide_ligand_efficiency_sa>
-1.13339711227608

> <r_i_glide_ligand_efficiency_ln>
-2.13301732517059

> <r_i_glide_gscore>
-8.62703643170523

> <r_i_glide_lipo>
-4.03933923943555

> <r_i_glide_hbond>
-0.16

> <r_i_glide_metal>
0

> <r_i_glide_rewards>
-2.3417822046254

> <r_i_glide_evdw>
-33.9403953552246

> <r_i_glide_ecoul>
-4.15401411056519

> <r_i_glide_erotb>
0.234206896701733

> <r_i_glide_esite>
0

> <r_i_glide_emodel>
-56.4806149049053

> <r_i_glide_energy>
-38.0944094657898

> <r_i_glide_einternal>
3.36809730529785

> <i_i_glide_confnum>
1

> <i_i_glide_posenum>
249

> <r_i_glide_eff_state_penalty>
0

> <s_user_duplicate_titles>
313460

> <s_m_subgroup_title>
dock_pv

> <s_m_subgroupid>
dock_pv1

> <b_m_subgroup_collapsed>
0

$$$$
396497
                    3D
 Schrodinger Suite 2021-1.
 45 48  0  0  1  0            999 V2000
   33.2482   -2.7342   25.2929 C   0  0  0  0  0  0
   34.0333   -3.3406   24.3257 C   0  0  0  0  0  0
   33.7225   -3.1932   22.9743 C   0  0  0  0  0  0
   32.6490   -2.4127   22.5850 C   0  0  0  0  0  0
   31.9104   -1.7449   23.5460 C   0  0  0  0  0  0
   32.1914   -1.9173   24.9060 C   0  0  0  0  0  0
   31.2506   -1.3315   25.9437 C   0  0  2  0  0  0
   31.7091   -0.1253   26.8177 C   0  0  2  0  0  0
   32.8227   -0.5462   27.8355 C   0  0  0  0  0  0
   33.4086    0.5709   28.7221 C   0  0  0  0  0  0
   32.6559    0.8236   30.0405 C   0  0  0  0  0  0
   31.1242    0.7852   29.9305 C   0  0  0  0  0  0
   30.5612    1.4334   28.6528 C   0  0  0  0  0  0
   30.3913    0.4863   27.4376 C   0  0  2  0  0  0
   29.2900   -0.5816   27.6385 C   0  0  0  0  0  0
   27.9468   -0.2559   27.8499 C   0  0  0  0  0  0
   26.9708   -1.2516   27.8584 C   0  0  0  0  0  0
   27.3016   -2.5906   27.7070 C   0  0  0  0  0  0
   28.6212   -2.9372   27.4891 C   0  0  0  0  0  0
   29.5850   -1.9396   27.3919 C   0  0  0  0  0  0
   30.7870   -2.3289   26.8538 O   0  0  0  0  0  0
   25.6594   -0.9376   27.8945 O   0  0  0  0  0  0
   34.4734   -3.7943   22.0068 O   0  0  0  0  0  0
   30.4153   -0.9855   25.3225 H   0  0  0  0  0  0
   32.1423    0.6313   26.1626 H   0  0  0  0  0  0
   29.9833    1.1154   26.6444 H   0  0  0  0  0  0
   33.4561   -2.9210   26.3335 H   0  0  0  0  0  0
   34.8540   -3.9373   24.6676 H   0  0  0  0  0  0
   32.3987   -2.2997   21.5402 H   0  0  0  0  0  0
   31.1027   -1.1174   23.2130 H   0  0  0  0  0  0
   32.4745   -1.3620   28.4724 H   0  0  0  0  0  0
   33.6636   -0.9603   27.2848 H   0  0  0  0  0  0
   34.4420    0.3263   28.9698 H   0  0  0  0  0  0
   33.4727    1.4922   28.1438 H   0  0  0  0  0  0
   32.9676    0.0834   30.7817 H   0  0  0  0  0  0
   32.9661    1.7870   30.4466 H   0  0  0  0  0  0
   30.8145   -0.2587   29.9866 H   0  0  0  0  0  0
   30.6984    1.2695   30.8109 H   0  0  0  0  0  0
   29.5929    1.8829   28.8838 H   0  0  0  0  0  0
   31.1690    2.2865   28.3551 H   0  0  0  0  0  0
   27.6479    0.7778   27.9321 H   0  0  0  0  0  0
   26.5374   -3.3561   27.7014 H   0  0  0  0  0  0
   28.8633   -3.9687   27.3087 H   0  0  0  0  0  0
   25.1792   -1.6268   27.4291 H   0  0  0  0  0  0
   34.0974   -3.7114   21.1248 H   0  0  0  0  0  0
  1  6  1  0  0  0
  1  2  2  0  0  0
  1 27  1  0  0  0
  2  3  1  0  0  0
  2 28  1  0  0  0
  3  4  2  0  0  0
  3 23  1  0  0  0
  4  5  1  0  0  0
  4 29  1  0  0  0
  5  6  2  0  0  0
  5 30  1  0  0  0
  6  7  1  0  0  0
  7 24  1  0  0  0
  7 21  1  0  0  0
  7  8  1  0  0  0
  8 25  1  0  0  0
  8 14  1  0  0  0
  8  9  1  0  0  0
  9 10  1  0  0  0
  9 31  1  0  0  0
  9 32  1  0  0  0
 10 11  1  0  0  0
 10 33  1  0  0  0
 10 34  1  0  0  0
 11 12  1  0  0  0
 11 35  1  0  0  0
 11 36  1  0  0  0
 12 13  1  0  0  0
 12 37  1  0  0  0
 12 38  1  0  0  0
 13 14  1  0  0  0
 13 39  1  0  0  0
 13 40  1  0  0  0
 14 26  1  0  0  0
 14 15  1  0  0  0
 15 20  2  0  0  0
 15 16  1  0  0  0
 16 17  2  0  0  0
 16 41  1  0  0  0
 17 18  1  0  0  0
 17 22  1  0  0  0
 18 19  2  0  0  0
 18 42  1  0  0  0
 19 20  1  0  0  0
 19 43  1  0  0  0
 20 21  1  0  0  0
 22 44  1  0  0  0
 23 45  1  0  0  0
M  END
> <s_m_entry_id>
17373

> <s_m_entry_name>
ligand_docking-pose.300

> <s_m_Source_Path>
/home/csk/Desktop/cluster/DUD-E-result/esr1

> <s_m_Source_File>
ligand_docking-pose.sdf

> <i_m_Source_File_Index>
300

> <i_lp_mmshare_version>
53161

> <i_f3d_flags>
0

> <r_lp_tautomer_probability>
0.999999999997365

> <s_lp_Force_Field>
OPLS_2005

> <r_lp_Energy>
31.521547

> <b_lp_Chiralities_Consistent>
1

> <s_lp_Variant>
396497-1

> <s_i_glide_gridfile>
glide-grid_1sj0

> <i_i_glide_lignum>
475

> <i_i_glide_rotatable_bonds>
3

> <r_i_docking_score>
-8.61993634276579

> <r_i_glide_ligand_efficiency>
-0.374779840989817

> <r_i_glide_ligand_efficiency_sa>
-1.065824013391

> <r_i_glide_ligand_efficiency_ln>
-2.08437876894215

> <r_i_glide_gscore>
-8.61993634276579

> <r_i_glide_lipo>
-4.71470002925892

> <r_i_glide_hbond>
0

> <r_i_glide_metal>
0

> <r_i_glide_rewards>
-2.19281672727273

> <r_i_glide_evdw>
-37.0967216491699

> <r_i_glide_ecoul>
-0.332822322845459

> <r_i_glide_erotb>
0.192339844651176

> <r_i_glide_esite>
0

> <r_i_glide_emodel>
-38.3497006654101

> <r_i_glide_energy>
-37.4295439720154

> <r_i_glide_einternal>
2.92951893806458

> <i_i_glide_confnum>
2

> <i_i_glide_posenum>
121

> <r_i_glide_eff_state_penalty>
0

> <s_user_duplicate_titles>
396497

> <s_m_subgroup_title>
dock_pv

> <s_m_subgroupid>
dock_pv1

> <b_m_subgroup_collapsed>
0

$$$$
313143
                    3D
 Schrodinger Suite 2021-1.
 27 29  0  0  1  0            999 V2000
   33.1769    1.9070   27.2027 C   0  0  0  0  0  0
   31.9357    1.2592   27.2433 C   0  0  0  0  0  0
   31.7965    0.1149   28.0413 C   0  0  0  0  0  0
   32.9208   -0.3292   28.7578 C   0  0  0  0  0  0
   34.1682    0.3023   28.7299 C   0  0  0  0  0  0
   34.2705    1.4417   27.9338 C   0  0  0  0  0  0
   35.4575    2.1188   27.8637 O   0  0  0  0  0  0
   32.5992   -1.4402   29.4622 O   0  0  0  0  0  0
   31.2577   -1.7419   29.1978 N   0  0  0  0  0  0
   30.7709   -0.8379   28.3743 C   0  0  0  0  0  0
   29.3293   -0.8933   27.9356 C   0  0  0  0  0  0
   28.6254    0.3035   27.7456 C   0  0  0  0  0  0
   27.2904    0.2919   27.3333 C   0  0  0  0  0  0
   26.6507   -0.9177   27.0646 C   0  0  0  0  0  0
   27.3353   -2.1129   27.2333 C   0  0  0  0  0  0
   28.6549   -2.1064   27.6811 C   0  0  0  0  0  0
   29.2591   -3.3175   27.8636 O   0  0  0  0  0  0
   25.3547   -0.9421   26.6242 O   0  0  0  0  0  0
   33.2919    2.7878   26.5884 H   0  0  0  0  0  0
   31.1054    1.6319   26.6645 H   0  0  0  0  0  0
   35.0058   -0.0774   29.2956 H   0  0  0  0  0  0
   36.2082    1.6765   28.2817 H   0  0  0  0  0  0
   29.1024    1.2535   27.9365 H   0  0  0  0  0  0
   26.7573    1.2226   27.2014 H   0  0  0  0  0  0
   26.8324   -3.0476   27.0217 H   0  0  0  0  0  0
   28.8387   -4.0452   27.3956 H   0  0  0  0  0  0
   25.1099   -1.8141   26.2694 H   0  0  0  0  0  0
  1  6  1  0  0  0
  1  2  2  0  0  0
  1 19  1  0  0  0
  2  3  1  0  0  0
  2 20  1  0  0  0
  3 10  1  0  0  0
  3  4  2  0  0  0
  4  5  1  0  0  0
  4  8  1  0  0  0
  5  6  2  0  0  0
  5 21  1  0  0  0
  6  7  1  0  0  0
  7 22  1  0  0  0
  8  9  1  0  0  0
  9 10  2  0  0  0
 10 11  1  0  0  0
 11 16  1  0  0  0
 11 12  2  0  0  0
 12 13  1  0  0  0
 12 23  1  0  0  0
 13 14  2  0  0  0
 13 24  1  0  0  0
 14 15  1  0  0  0
 14 18  1  0  0  0
 15 16  2  0  0  0
 15 25  1  0  0  0
 16 17  1  0  0  0
 17 26  1  0  0  0
 18 27  1  0  0  0
M  END
> <s_m_entry_id>
17374

> <s_m_entry_name>
ligand_docking-pose.301

> <s_m_Source_Path>
/home/csk/Desktop/cluster/DUD-E-result/esr1

> <s_m_Source_File>
ligand_docking-pose.sdf

> <i_m_Source_File_Index>
301

> <i_lp_mmshare_version>
53161

> <i_f3d_flags>
0

> <r_lp_tautomer_probability>
0.999999999898

> <s_lp_Force_Field>
OPLS_2005

> <r_lp_Energy>
30.442362

> <b_lp_Chiralities_Consistent>
1

> <s_lp_Variant>
313143-1

> <s_i_glide_gridfile>
glide-grid_1sj0

> <i_i_glide_lignum>
41

> <i_i_glide_rotatable_bonds>
4

> <r_i_docking_score>
-8.61618151487382

> <r_i_glide_ligand_efficiency>
-0.478676750826323

> <r_i_glide_ligand_efficiency_sa>
-1.25448797412732

> <r_i_glide_ligand_efficiency_ln>
-2.21474502979974

> <r_i_glide_gscore>
-8.61618151487382

> <r_i_glide_lipo>
-3.01684267500253

> <r_i_glide_hbond>
-0.552474857075602

> <r_i_glide_metal>
0

> <r_i_glide_rewards>
-2.43949334584544

> <r_i_glide_evdw>
-30.4037170410156

> <r_i_glide_ecoul>
-8.6175708770752

> <r_i_glide_erotb>
0.205450846661811

> <r_i_glide_esite>
0

> <r_i_glide_emodel>
-60.1383498068887

> <r_i_glide_energy>
-39.0212879180908

> <r_i_glide_einternal>
1.38777208328247

> <i_i_glide_confnum>
3

> <i_i_glide_posenum>
173

> <r_i_glide_eff_state_penalty>
0

> <s_user_duplicate_titles>
313143

> <s_m_subgroup_title>
dock_pv

> <s_m_subgroupid>
dock_pv1

> <b_m_subgroup_collapsed>
0

$$$$
354434
                    3D
 Schrodinger Suite 2021-1.
 48 52  0  0  1  0            999 V2000
   25.8851   -2.4473   28.0375 C   0  0  0  0  0  0
   27.0677   -2.9650   27.1992 C   0  0  0  0  0  0
   28.4192   -2.3044   27.5114 C   0  0  0  0  0  0
   28.4095   -0.7715   27.2823 C   0  0  0  0  0  0
   29.7531   -0.0928   26.8652 C   0  0  1  0  0  0
   29.6643    1.4436   27.0266 C   0  0  0  0  0  0
   29.4939    1.8891   28.5017 C   0  0  0  0  0  0
   30.4600    1.1737   29.4635 C   0  0  0  0  0  0
   30.4648    1.4579   30.6589 O   0  0  0  0  0  0
   31.2311    0.0353   28.9414 C   0  0  0  0  0  0
   30.9302   -0.5344   27.7458 C   0  0  0  0  0  0
   31.6159   -1.6047   27.0152 C   0  0  0  0  0  0
   32.5340   -2.5419   27.4639 C   0  0  0  0  0  0
   33.0992   -3.4642   26.5974 C   0  0  0  0  0  0
   32.9404   -3.2265   25.2353 C   0  0  0  0  0  0
   31.9874   -2.3157   24.7450 C   0  0  0  0  0  0
   31.2603   -1.5464   25.6700 C   0  0  0  0  0  0
   30.1743   -0.5424   25.4448 C   0  0  0  0  0  0
   32.0365   -2.5172   23.3315 C   0  0  0  0  0  0
   32.9922   -3.3332   22.9837 N   0  0  0  0  0  0
   33.5629   -3.7421   24.1227 N   0  0  0  0  0  0
   32.4018   -0.4052   29.8253 C   0  0  0  0  0  0
   33.8296   -0.2763   29.3230 C   0  0  0  0  0  0
   33.3469    0.6102   30.4399 C   0  0  0  0  0  0
   34.2900   -4.4427   24.1033 H   0  0  0  0  0  0
   24.9626   -2.5422   27.4676 H   0  0  0  0  0  0
   25.9742   -1.3927   28.2945 H   0  0  0  0  0  0
   25.7669   -3.0132   28.9617 H   0  0  0  0  0  0
   27.1452   -4.0474   27.3126 H   0  0  0  0  0  0
   26.8600   -2.8042   26.1403 H   0  0  0  0  0  0
   28.7230   -2.5257   28.5358 H   0  0  0  0  0  0
   29.1630   -2.7843   26.8794 H   0  0  0  0  0  0
   27.6630   -0.5181   26.5269 H   0  0  0  0  0  0
   28.0311   -0.3277   28.2015 H   0  0  0  0  0  0
   30.5995    1.8614   26.6640 H   0  0  0  0  0  0
   28.8674    1.8559   26.4058 H   0  0  0  0  0  0
   28.4815    1.6655   28.8324 H   0  0  0  0  0  0
   29.6600    2.9596   28.6124 H   0  0  0  0  0  0
   32.7926   -2.5995   28.5087 H   0  0  0  0  0  0
   33.6599   -4.2943   26.9821 H   0  0  0  0  0  0
   29.3414   -0.9621   24.8806 H   0  0  0  0  0  0
   30.5765    0.2579   24.8411 H   0  0  0  0  0  0
   31.3878   -2.1229   22.5753 H   0  0  0  0  0  0
   32.1796   -1.2672   30.4508 H   0  0  0  0  0  0
   34.5369   -1.0756   29.5466 H   0  0  0  0  0  0
   33.9999    0.1574   28.3365 H   0  0  0  0  0  0
   33.1944    1.6700   30.2425 H   0  0  0  0  0  0
   33.6600    0.4283   31.4644 H   0  0  0  0  0  0
  1  2  1  0  0  0
  1 26  1  0  0  0
  1 27  1  0  0  0
  1 28  1  0  0  0
  2  3  1  0  0  0
  2 29  1  0  0  0
  2 30  1  0  0  0
  3  4  1  0  0  0
  3 31  1  0  0  0
  3 32  1  0  0  0
  4  5  1  0  0  0
  4 33  1  0  0  0
  4 34  1  0  0  0
  5 11  1  0  0  0
  5 18  1  0  0  0
  5  6  1  0  0  0
  6  7  1  0  0  0
  6 35  1  0  0  0
  6 36  1  0  0  0
  7  8  1  0  0  0
  7 37  1  0  0  0
  7 38  1  0  0  0
  8  9  2  0  0  0
  8 10  1  0  0  0
 10 11  2  0  0  0
 10 22  1  0  0  0
 11 12  1  0  0  0
 12 17  1  0  0  0
 12 13  2  0  0  0
 13 14  1  0  0  0
 13 39  1  0  0  0
 14 15  2  0  0  0
 14 40  1  0  0  0
 15 21  1  0  0  0
 15 16  1  0  0  0
 16 17  2  0  0  0
 16 19  1  0  0  0
 17 18  1  0  0  0
 18 41  1  0  0  0
 18 42  1  0  0  0
 19 20  2  0  0  0
 19 43  1  0  0  0
 20 21  1  0  0  0
 21 25  1  0  0  0
 22 24  1  0  0  0
 22 23  1  0  0  0
 22 44  1  0  0  0
 23 24  1  0  0  0
 23 45  1  0  0  0
 23 46  1  0  0  0
 24 47  1  0  0  0
 24 48  1  0  0  0
M  END
> <s_m_entry_id>
17375

> <s_m_entry_name>
ligand_docking-pose.302

> <s_m_Source_Path>
/home/csk/Desktop/cluster/DUD-E-result/esr1

> <s_m_Source_File>
ligand_docking-pose.sdf

> <i_m_Source_File_Index>
302

> <i_lp_mmshare_version>
53161

> <i_f3d_flags>
0

> <r_lp_tautomer_probability>
1

> <s_lp_Force_Field>
OPLS_2005

> <r_lp_Energy>
43.868792

> <b_lp_Chiralities_Consistent>
1

> <s_lp_Variant>
354434-1

> <s_i_glide_gridfile>
glide-grid_1sj0

> <i_i_glide_lignum>
1302

> <i_i_glide_rotatable_bonds>
4

> <r_i_docking_score>
-8.61304930801225

> <r_i_glide_ligand_efficiency>
-0.358877054500511

> <r_i_glide_ligand_efficiency_sa>
-1.03518055419648

> <r_i_glide_ligand_efficiency_ln>
-2.06149792648674

> <r_i_glide_gscore>
-8.61304930801225

> <r_i_glide_lipo>
-4.9787079443671

> <r_i_glide_hbond>
-0.0712016166706736

> <r_i_glide_metal>
0

> <r_i_glide_rewards>
-2.54877576945576

> <r_i_glide_evdw>
-32.7874908447266

> <r_i_glide_ecoul>
0.529481291770935

> <r_i_glide_erotb>
0.54558837095197

> <r_i_glide_esite>
0

> <r_i_glide_emodel>
-43.1360640563875

> <r_i_glide_energy>
-32.2580095529556

> <r_i_glide_einternal>
4.07280158996582

> <i_i_glide_confnum>
15

> <i_i_glide_posenum>
124

> <r_i_glide_eff_state_penalty>
0

> <s_user_duplicate_titles>
354434

> <s_m_subgroup_title>
dock_pv

> <s_m_subgroupid>
dock_pv1

> <b_m_subgroup_collapsed>
0

$$$$
341336
                    3D
 Schrodinger Suite 2021-1.
 30 32  0  0  1  0            999 V2000
   34.4754    1.4782   28.7362 C   0  0  0  0  0  0
   33.1973    0.7339   28.3927 C   0  0  0  0  0  0
   33.2589   -0.5428   27.8638 C   0  0  0  0  0  0
   32.1082   -1.2548   27.5030 C   0  0  0  0  0  0
   30.8291   -0.6944   27.7551 C   0  0  0  0  0  0
   29.4872   -1.3878   27.6264 C   0  0  0  0  0  0
   29.2958   -2.7728   27.5580 C   0  0  0  0  0  0
   28.0227   -3.3420   27.6086 C   0  0  0  0  0  0
   26.9016   -2.5303   27.7349 C   0  0  0  0  0  0
   27.0487   -1.1507   27.7748 C   0  0  0  0  0  0
   28.3260   -0.5931   27.7381 C   0  0  0  0  0  0
   28.3611    0.7749   27.8645 O   0  0  0  0  0  0
   29.4931    1.3728   28.2873 C   0  0  0  0  0  0
   29.3805    2.5261   28.6640 O   0  0  0  0  0  0
   30.7859    0.6433   28.2076 C   0  0  0  0  0  0
   31.9578    1.3360   28.5397 C   0  0  0  0  0  0
   25.6599   -3.0842   27.8640 O   0  0  0  0  0  0
   32.3397   -2.5685   26.7675 C   0  0  0  0  0  0
   34.4768    2.4614   28.2637 H   0  0  0  0  0  0
   34.5579    1.6197   29.8144 H   0  0  0  0  0  0
   35.3660    0.9538   28.3862 H   0  0  0  0  0  0
   34.2415   -0.9418   27.6940 H   0  0  0  0  0  0
   30.1281   -3.4435   27.5088 H   0  0  0  0  0  0
   27.9131   -4.4166   27.5792 H   0  0  0  0  0  0
   26.1789   -0.5186   27.8786 H   0  0  0  0  0  0
   31.9128    2.3529   28.9051 H   0  0  0  0  0  0
   25.2887   -3.3418   26.9863 H   0  0  0  0  0  0
   31.5551   -2.7747   26.0399 H   0  0  0  0  0  0
   32.4558   -3.3973   27.4640 H   0  0  0  0  0  0
   33.2542   -2.5152   26.1740 H   0  0  0  0  0  0
  1  2  1  0  0  0
  1 19  1  0  0  0
  1 20  1  0  0  0
  1 21  1  0  0  0
  2 16  1  0  0  0
  2  3  2  0  0  0
  3  4  1  0  0  0
  3 22  1  0  0  0
  4  5  2  0  0  0
  4 18  1  0  0  0
  5 15  1  0  0  0
  5  6  1  0  0  0
  6 11  2  0  0  0
  6  7  1  0  0  0
  7  8  2  0  0  0
  7 23  1  0  0  0
  8  9  1  0  0  0
  8 24  1  0  0  0
  9 10  2  0  0  0
  9 17  1  0  0  0
 10 11  1  0  0  0
 10 25  1  0  0  0
 11 12  1  0  0  0
 12 13  1  0  0  0
 13 14  2  0  0  0
 13 15  1  0  0  0
 15 16  2  0  0  0
 16 26  1  0  0  0
 17 27  1  0  0  0
 18 28  1  0  0  0
 18 29  1  0  0  0
 18 30  1  0  0  0
M  END
> <s_m_entry_id>
17376

> <s_m_entry_name>
ligand_docking-pose.303

> <s_m_Source_Path>
/home/csk/Desktop/cluster/DUD-E-result/esr1

> <s_m_Source_File>
ligand_docking-pose.sdf

> <i_m_Source_File_Index>
303

> <i_lp_mmshare_version>
53161

> <i_f3d_flags>
0

> <r_lp_tautomer_probability>
1

> <s_lp_Force_Field>
OPLS_2005

> <r_lp_Energy>
33.402334

> <b_lp_Chiralities_Consistent>
1

> <s_lp_Variant>
341336-1

> <s_i_glide_gridfile>
glide-grid_1sj0

> <i_i_glide_lignum>
918

> <i_i_glide_rotatable_bonds>
1

> <r_i_docking_score>
-8.60429734349768

> <r_i_glide_ligand_efficiency>
-0.478016519083204

> <r_i_glide_ligand_efficiency_sa>
-1.25275767747002

> <r_i_glide_ligand_efficiency_ln>
-2.21169026482721

> <r_i_glide_gscore>
-8.60429734349768

> <r_i_glide_lipo>
-3.28972955562814

> <r_i_glide_hbond>
-0.16

> <r_i_glide_metal>
0

> <r_i_glide_rewards>
-2.67099559090909

> <r_i_glide_evdw>
-25.3830585479736

> <r_i_glide_ecoul>
-8.09612846374512

> <r_i_glide_erotb>
0

> <r_i_glide_esite>
0

> <r_i_glide_emodel>
-46.2037194399745

> <r_i_glide_energy>
-33.4791870117188

> <r_i_glide_einternal>
4.6587495803833

> <i_i_glide_confnum>
1

> <i_i_glide_posenum>
311

> <r_i_glide_eff_state_penalty>
0

> <s_user_duplicate_titles>
341336

> <s_m_subgroup_title>
dock_pv

> <s_m_subgroupid>
dock_pv1

> <b_m_subgroup_collapsed>
0

$$$$
51539
                    3D
 Schrodinger Suite 2021-1.
 39 41  0  0  1  0            999 V2000
   33.1092   -2.5158   24.8309 C   0  0  0  0  0  0
   34.0600   -3.0936   24.0168 C   0  0  0  0  0  0
   33.8436   -3.2709   22.6556 C   0  0  0  0  0  0
   32.6195   -2.9420   22.1023 C   0  0  0  0  0  0
   31.6600   -2.3629   22.9190 C   0  0  0  0  0  0
   31.9059   -2.1156   24.2728 C   0  0  0  0  0  0
   30.8324   -1.5791   25.1064 C   0  0  0  0  0  0
   30.8433   -1.0033   26.3307 C   0  0  0  0  0  0
   31.9899   -0.5081   27.1290 C   0  0  0  0  0  0
   32.2371   -1.0432   28.3988 C   0  0  0  0  0  0
   33.2759   -0.5458   29.1801 C   0  0  0  0  0  0
   34.0651    0.4948   28.6994 C   0  0  0  0  0  0
   33.8135    1.0580   27.4522 C   0  0  0  0  0  0
   32.7833    0.5465   26.6634 C   0  0  0  0  0  0
   35.0994    0.9546   29.4640 O   0  0  0  0  0  0
   29.5336   -0.9069   26.9625 C   0  0  0  0  0  0
   28.9619   -2.0982   27.4186 C   0  0  0  0  0  0
   27.6556   -2.1010   27.8640 C   0  0  0  0  0  0
   26.9477   -0.9107   27.8640 C   0  0  0  0  0  0
   27.5211    0.2944   27.4640 C   0  0  0  0  0  0
   28.8354    0.2996   27.0147 C   0  0  0  0  0  0
   25.6600   -0.9420   28.2716 O   0  0  0  0  0  0
   34.8445   -3.7420   21.8568 O   0  0  0  0  0  0
   33.3198   -2.3927   25.8822 H   0  0  0  0  0  0
   35.0075   -3.3420   24.4581 H   0  0  0  0  0  0
   32.4144   -3.1099   21.0548 H   0  0  0  0  0  0
   30.7029   -2.1420   22.4864 H   0  0  0  0  0  0
   29.8546   -1.7420   24.6775 H   0  0  0  0  0  0
   31.6239   -1.8448   28.7843 H   0  0  0  0  0  0
   33.4740   -0.9694   30.1538 H   0  0  0  0  0  0
   34.4244    1.8679   27.0812 H   0  0  0  0  0  0
   32.6002    0.9756   25.6902 H   0  0  0  0  0  0
   35.8028    1.3960   28.9759 H   0  0  0  0  0  0
   29.5074   -3.0312   27.3721 H   0  0  0  0  0  0
   27.1857   -3.0221   28.1771 H   0  0  0  0  0  0
   26.9515    1.2123   27.4788 H   0  0  0  0  0  0
   29.2859    1.2155   26.6594 H   0  0  0  0  0  0
   25.2172   -0.1102   28.0939 H   0  0  0  0  0  0
   34.5408   -3.9974   20.9823 H   0  0  0  0  0  0
  1  6  1  0  0  0
  1  2  2  0  0  0
  1 24  1  0  0  0
  2  3  1  0  0  0
  2 25  1  0  0  0
  3  4  2  0  0  0
  3 23  1  0  0  0
  4  5  1  0  0  0
  4 26  1  0  0  0
  5  6  2  0  0  0
  5 27  1  0  0  0
  6  7  1  0  0  0
  7  8  2  3  0  0
  7 28  1  0  0  0
  8  9  1  0  0  0
  8 16  1  0  0  0
  9 14  1  0  0  0
  9 10  2  0  0  0
 10 11  1  0  0  0
 10 29  1  0  0  0
 11 12  2  0  0  0
 11 30  1  0  0  0
 12 13  1  0  0  0
 12 15  1  0  0  0
 13 14  2  0  0  0
 13 31  1  0  0  0
 14 32  1  0  0  0
 15 33  1  0  0  0
 16 21  1  0  0  0
 16 17  2  0  0  0
 17 18  1  0  0  0
 17 34  1  0  0  0
 18 19  2  0  0  0
 18 35  1  0  0  0
 19 20  1  0  0  0
 19 22  1  0  0  0
 20 21  2  0  0  0
 20 36  1  0  0  0
 21 37  1  0  0  0
 22 38  1  0  0  0
 23 39  1  0  0  0
M  END
> <s_m_entry_id>
17377

> <s_m_entry_name>
ligand_docking-pose.304

> <s_m_Source_Path>
/home/csk/Desktop/cluster/DUD-E-result/esr1

> <s_m_Source_File>
ligand_docking-pose.sdf

> <i_m_Source_File_Index>
304

> <i_lp_mmshare_version>
53161

> <i_f3d_flags>
0

> <r_lp_tautomer_probability>
1

> <s_lp_Force_Field>
OPLS_2005

> <r_lp_Energy>
23.285815

> <b_lp_Chiralities_Consistent>
1

> <s_lp_Variant>
51539-1

> <s_i_glide_gridfile>
glide-grid_1sj0

> <i_i_glide_lignum>
417

> <i_i_glide_rotatable_bonds>
6

> <r_i_docking_score>
-8.59283634931189

> <r_i_glide_ligand_efficiency>
-0.373601580404865

> <r_i_glide_ligand_efficiency_sa>
-1.0624731970233

> <r_i_glide_ligand_efficiency_ln>
-2.07782574479584

> <r_i_glide_gscore>
-8.59283634931189

> <r_i_glide_lipo>
-4.8469098480761

> <r_i_glide_hbond>
-0.143370799193164

> <r_i_glide_metal>
0

> <r_i_glide_rewards>
-1.99540337343878

> <r_i_glide_evdw>
-33.2977409362793

> <r_i_glide_ecoul>
-3.59701919555664

> <r_i_glide_erotb>
0.597287597543615

> <r_i_glide_esite>
0

> <r_i_glide_emodel>
-33.0194414269733

> <r_i_glide_energy>
-36.8947601318359

> <r_i_glide_einternal>
7.98928165435791

> <i_i_glide_confnum>
10

> <i_i_glide_posenum>
361

> <r_i_glide_eff_state_penalty>
0

> <s_user_duplicate_titles>
51539

> <s_m_subgroup_title>
dock_pv

> <s_m_subgroupid>
dock_pv1

> <b_m_subgroup_collapsed>
0

$$$$
223765
                    3D
 Schrodinger Suite 2021-1.
 32 33  0  0  1  0            999 V2000
   29.3934   -1.8605   27.9134 C   0  0  0  0  0  0
   28.3668   -2.7908   28.0319 C   0  0  0  0  0  0
   27.0690   -2.4366   27.6822 C   0  0  0  0  0  0
   26.7930   -1.1669   27.1808 C   0  0  0  0  0  0
   27.8240   -0.2377   27.0576 C   0  0  0  0  0  0
   29.1329   -0.5765   27.4190 C   0  0  0  0  0  0
   30.2229    0.4927   27.2607 C   0  0  0  0  0  0
   31.7207    0.0802   27.4260 C   0  0  0  0  0  0
   32.5824    1.2463   27.1542 C   0  0  0  0  0  0
   33.2601    2.1607   26.9411 N   0  0  0  0  0  0
   31.9741   -0.2736   28.8383 C   0  0  0  0  0  0
   32.1714   -0.5423   29.9471 N   0  0  0  0  0  0
   32.1268   -1.0376   26.4400 C   0  0  0  0  0  0
   32.6149   -2.2808   26.8687 C   0  0  0  0  0  0
   33.0113   -3.2385   25.9394 C   0  0  0  0  0  0
   32.9542   -2.9507   24.5792 C   0  0  0  0  0  0
   32.4399   -1.7422   24.1369 C   0  0  0  0  0  0
   32.0277   -0.7920   25.0646 C   0  0  0  0  0  0
   33.4275   -3.8466   23.6625 O   0  0  0  0  0  0
   26.0599   -3.3418   27.8640 O   0  0  0  0  0  0
   30.3764   -2.1639   28.2285 H   0  0  0  0  0  0
   28.5728   -3.7795   28.4142 H   0  0  0  0  0  0
   25.7851   -0.8950   26.9031 H   0  0  0  0  0  0
   27.6018    0.7493   26.6781 H   0  0  0  0  0  0
   29.9973    1.2784   27.9842 H   0  0  0  0  0  0
   30.0871    0.9617   26.2837 H   0  0  0  0  0  0
   32.7110   -2.5183   27.9186 H   0  0  0  0  0  0
   33.3898   -4.1891   26.2816 H   0  0  0  0  0  0
   32.3860   -1.5309   23.0784 H   0  0  0  0  0  0
   31.6570    0.1553   24.7060 H   0  0  0  0  0  0
   33.7498   -4.6610   24.0604 H   0  0  0  0  0  0
   25.4266   -3.3421   27.1253 H   0  0  0  0  0  0
  1  6  1  0  0  0
  1  2  2  0  0  0
  1 21  1  0  0  0
  2  3  1  0  0  0
  2 22  1  0  0  0
  3  4  2  0  0  0
  3 20  1  0  0  0
  4  5  1  0  0  0
  4 23  1  0  0  0
  5  6  2  0  0  0
  5 24  1  0  0  0
  6  7  1  0  0  0
  7  8  1  0  0  0
  7 25  1  0  0  0
  7 26  1  0  0  0
  8  9  1  0  0  0
  8 11  1  0  0  0
  8 13  1  0  0  0
  9 10  3  0  0  0
 11 12  3  0  0  0
 13 18  1  0  0  0
 13 14  2  0  0  0
 14 15  1  0  0  0
 14 27  1  0  0  0
 15 16  2  0  0  0
 15 28  1  0  0  0
 16 17  1  0  0  0
 16 19  1  0  0  0
 17 18  2  0  0  0
 17 29  1  0  0  0
 18 30  1  0  0  0
 19 31  1  0  0  0
 20 32  1  0  0  0
M  END
> <s_m_entry_id>
17378

> <s_m_entry_name>
ligand_docking-pose.305

> <s_m_Source_Path>
/home/csk/Desktop/cluster/DUD-E-result/esr1

> <s_m_Source_File>
ligand_docking-pose.sdf

> <i_m_Source_File_Index>
305

> <i_lp_mmshare_version>
53161

> <i_f3d_flags>
0

> <r_lp_tautomer_probability>
0.99999999999473

> <s_lp_Force_Field>
OPLS_2005

> <r_lp_Energy>
13.966032

> <b_lp_Chiralities_Consistent>
1

> <s_lp_Variant>
223765-1

> <s_i_glide_gridfile>
glide-grid_1sj0

> <i_i_glide_lignum>
432

> <i_i_glide_rotatable_bonds>
5

> <r_i_docking_score>
-8.58978908100648

> <r_i_glide_ligand_efficiency>
-0.429489454050324

> <r_i_glide_ligand_efficiency_sa>
-1.16581373905177

> <r_i_glide_ligand_efficiency_ln>
-2.14974089677092

> <r_i_glide_gscore>
-8.58978908100648

> <r_i_glide_lipo>
-3.32137437795086

> <r_i_glide_hbond>
-0.288723448265281

> <r_i_glide_metal>
0

> <r_i_glide_rewards>
-3.16338710443102

> <r_i_glide_evdw>
-35.7866020202637

> <r_i_glide_ecoul>
-5.26962089538574

> <r_i_glide_erotb>
0.763469084961734

> <r_i_glide_esite>
0

> <r_i_glide_emodel>
-60.8822153450519

> <r_i_glide_energy>
-41.0562229156494

> <r_i_glide_einternal>
5.69904232025146

> <i_i_glide_confnum>
32

> <i_i_glide_posenum>
237

> <r_i_glide_eff_state_penalty>
0

> <s_user_duplicate_titles>
223765

> <s_m_subgroup_title>
dock_pv

> <s_m_subgroupid>
dock_pv1

> <b_m_subgroup_collapsed>
0

$$$$
87157
                    3D
 Schrodinger Suite 2021-1.
 33 35  0  0  1  0            999 V2000
   29.0499   -0.0892   26.4758 C   0  0  0  0  0  0
   27.7939    0.0436   27.0642 C   0  0  0  0  0  0
   27.2173   -1.0493   27.7056 C   0  0  0  0  0  0
   27.8886   -2.2615   27.7814 C   0  0  0  0  0  0
   29.1465   -2.3844   27.2086 C   0  0  0  0  0  0
   29.7430   -1.3080   26.5385 C   0  0  0  0  0  0
   31.0986   -1.4824   25.8164 C   0  0  2  0  0  0
   32.0453   -2.5422   26.4450 C   0  0  0  0  0  0
   32.4735   -2.1142   27.8582 C   0  0  0  0  0  0
   33.0234   -0.6962   27.8149 C   0  0  0  0  0  0
   33.8783   -0.2347   28.8166 C   0  0  0  0  0  0
   34.4229    1.0421   28.7539 C   0  0  0  0  0  0
   34.1200    1.8887   27.6933 C   0  0  0  0  0  0
   33.2586    1.4578   26.6898 C   0  0  0  0  0  0
   32.7181    0.1706   26.7400 C   0  0  0  0  0  0
   31.8749   -0.2424   25.6888 N   0  0  0  0  0  0
   35.2600    1.4580   29.7415 O   0  0  0  0  0  0
   25.9766   -0.9420   28.2638 O   0  0  0  0  0  0
   29.4732    0.7583   25.9579 H   0  0  0  0  0  0
   27.2711    0.9871   27.0059 H   0  0  0  0  0  0
   27.4286   -3.1107   28.2643 H   0  0  0  0  0  0
   29.6323   -3.3420   27.2682 H   0  0  0  0  0  0
   30.8408   -1.8050   24.8068 H   0  0  0  0  0  0
   31.5968   -3.5336   26.4577 H   0  0  0  0  0  0
   32.9312   -2.6543   25.8160 H   0  0  0  0  0  0
   33.2177   -2.8062   28.2561 H   0  0  0  0  0  0
   31.6225   -2.1419   28.5397 H   0  0  0  0  0  0
   34.1328   -0.8782   29.6468 H   0  0  0  0  0  0
   34.5447    2.8798   27.6523 H   0  0  0  0  0  0
   33.0335    2.1164   25.8643 H   0  0  0  0  0  0
   31.5992    0.3812   24.9451 H   0  0  0  0  0  0
   36.1894    1.4581   29.4639 H   0  0  0  0  0  0
   25.5686   -0.0994   28.0541 H   0  0  0  0  0  0
  1  6  1  0  0  0
  1  2  2  0  0  0
  1 19  1  0  0  0
  2  3  1  0  0  0
  2 20  1  0  0  0
  3  4  2  0  0  0
  3 18  1  0  0  0
  4  5  1  0  0  0
  4 21  1  0  0  0
  5  6  2  0  0  0
  5 22  1  0  0  0
  6  7  1  0  0  0
  7 16  1  0  0  0
  7  8  1  0  0  0
  7 23  1  0  0  0
  8  9  1  0  0  0
  8 24  1  0  0  0
  8 25  1  0  0  0
  9 10  1  0  0  0
  9 26  1  0  0  0
  9 27  1  0  0  0
 10 15  2  0  0  0
 10 11  1  0  0  0
 11 12  2  0  0  0
 11 28  1  0  0  0
 12 13  1  0  0  0
 12 17  1  0  0  0
 13 14  2  0  0  0
 13 29  1  0  0  0
 14 15  1  0  0  0
 14 30  1  0  0  0
 15 16  1  0  0  0
 16 31  1  0  0  0
 17 32  1  0  0  0
 18 33  1  0  0  0
M  END
> <s_m_entry_id>
17379

> <s_m_entry_name>
ligand_docking-pose.306

> <s_m_Source_Path>
/home/csk/Desktop/cluster/DUD-E-result/esr1

> <s_m_Source_File>
ligand_docking-pose.sdf

> <i_m_Source_File_Index>
306

> <i_lp_mmshare_version>
53161

> <i_f3d_flags>
0

> <r_lp_tautomer_probability>
0.999999999997365

> <s_lp_Force_Field>
OPLS_2005

> <r_lp_Energy>
12.432735

> <b_lp_Chiralities_Consistent>
1

> <s_lp_Variant>
87157-1

> <s_i_glide_gridfile>
glide-grid_1sj0

> <i_i_glide_lignum>
326

> <i_i_glide_rotatable_bonds>
3

> <r_i_docking_score>
-8.58071724003516

> <r_i_glide_ligand_efficiency>
-0.476706513335287

> <r_i_glide_ligand_efficiency_sa>
-1.24932449118311

> <r_i_glide_ligand_efficiency_ln>
-2.20562912082095

> <r_i_glide_gscore>
-8.58071724003516

> <r_i_glide_lipo>
-3.90450431946567

> <r_i_glide_hbond>
-0.32

> <r_i_glide_metal>
0

> <r_i_glide_rewards>
-2.28328549877388

> <r_i_glide_evdw>
-30.9424209594727

> <r_i_glide_ecoul>
-5.48885202407837

> <r_i_glide_erotb>
0.297521429789778

> <r_i_glide_esite>
0

> <r_i_glide_emodel>
-51.6984735799069

> <r_i_glide_energy>
-36.431272983551

> <r_i_glide_einternal>
5.75150585174561

> <i_i_glide_confnum>
4

> <i_i_glide_posenum>
399

> <r_i_glide_eff_state_penalty>
0

> <s_user_duplicate_titles>
87157

> <s_m_subgroup_title>
dock_pv

> <s_m_subgroupid>
dock_pv1

> <b_m_subgroup_collapsed>
0

$$$$
328853
                    3D
 Schrodinger Suite 2021-1.
 42 45  0  0  1  0            999 V2000
   32.0052    0.1424   29.8593 C   0  0  0  0  0  0
   33.2974    0.1963   29.3424 C   0  0  0  0  0  0
   33.6608   -0.6728   28.3146 C   0  0  0  0  0  0
   32.7549   -1.6463   27.8667 C   0  0  0  0  0  0
   31.5019   -1.7421   28.4467 C   0  0  0  0  0  0
   31.1100   -0.8079   29.3759 C   0  0  0  0  0  0
   33.0087   -2.5215   26.6548 C   0  0  0  0  0  0
   32.2909   -2.1138   25.3734 C   0  0  0  0  0  0
   31.2600   -1.2763   25.0876 C   0  0  0  0  0  0
   31.0155   -1.2088   23.6123 C   0  0  0  0  0  0
   31.9114   -2.2623   23.0643 C   0  0  0  0  0  0
   32.6908   -2.7508   24.0985 C   0  0  0  0  0  0
   33.6600   -3.7112   23.8176 C   0  0  0  0  0  0
   33.8571   -4.1419   22.5019 C   0  0  0  0  0  0
   33.0499   -3.6776   21.4755 C   0  0  0  0  0  0
   32.0596   -2.7460   21.7603 C   0  0  0  0  0  0
   33.2377   -4.1418   20.2015 O   0  0  0  0  0  0
   30.3636   -0.4950   25.9669 C   0  0  0  0  0  0
   30.7669    0.6532   26.6639 C   0  0  0  0  0  0
   29.8219    1.4326   27.3288 C   0  0  0  0  0  0
   28.4826    1.0592   27.2976 C   0  0  0  0  0  0
   28.0772   -0.1061   26.6664 C   0  0  0  0  0  0
   29.0176   -0.8721   25.9974 C   0  0  0  0  0  0
   27.5399    1.8580   27.8640 O   0  0  0  0  0  0
   31.6806    0.8759   30.5827 H   0  0  0  0  0  0
   33.9907    0.9501   29.6866 H   0  0  0  0  0  0
   34.6329   -0.5425   27.8641 H   0  0  0  0  0  0
   30.7720   -2.4392   28.0592 H   0  0  0  0  0  0
   30.0600   -0.7874   29.5512 H   0  0  0  0  0  0
   34.0599   -2.5217   26.4116 H   0  0  0  0  0  0
   32.7517   -3.5563   26.8862 H   0  0  0  0  0  0
   29.9634   -1.3420   23.3811 H   0  0  0  0  0  0
   31.3298   -0.2339   23.2555 H   0  0  0  0  0  0
   34.2760   -4.1174   24.6062 H   0  0  0  0  0  0
   34.6225   -4.8650   22.2639 H   0  0  0  0  0  0
   31.4399   -2.3888   20.9531 H   0  0  0  0  0  0
   32.5652   -4.7984   19.9635 H   0  0  0  0  0  0
   31.8029    0.9604   26.6548 H   0  0  0  0  0  0
   30.1214    2.3301   27.8470 H   0  0  0  0  0  0
   27.0384   -0.4019   26.6590 H   0  0  0  0  0  0
   28.6753   -1.7419   25.4644 H   0  0  0  0  0  0
   26.6477    1.5367   27.7126 H   0  0  0  0  0  0
  1  6  1  0  0  0
  1  2  2  0  0  0
  1 25  1  0  0  0
  2  3  1  0  0  0
  2 26  1  0  0  0
  3  4  2  0  0  0
  3 27  1  0  0  0
  4  5  1  0  0  0
  4  7  1  0  0  0
  5  6  2  0  0  0
  5 28  1  0  0  0
  6 29  1  0  0  0
  7  8  1  0  0  0
  7 30  1  0  0  0
  7 31  1  0  0  0
  8 12  1  0  0  0
  8  9  2  0  0  0
  9 10  1  0  0  0
  9 18  1  0  0  0
 10 11  1  0  0  0
 10 32  1  0  0  0
 10 33  1  0  0  0
 11 16  2  0  0  0
 11 12  1  0  0  0
 12 13  2  0  0  0
 13 14  1  0  0  0
 13 34  1  0  0  0
 14 15  2  0  0  0
 14 35  1  0  0  0
 15 16  1  0  0  0
 15 17  1  0  0  0
 16 36  1  0  0  0
 17 37  1  0  0  0
 18 23  1  0  0  0
 18 19  2  0  0  0
 19 20  1  0  0  0
 19 38  1  0  0  0
 20 21  2  0  0  0
 20 39  1  0  0  0
 21 22  1  0  0  0
 21 24  1  0  0  0
 22 23  2  0  0  0
 22 40  1  0  0  0
 23 41  1  0  0  0
 24 42  1  0  0  0
M  END
> <s_m_entry_id>
17380

> <s_m_entry_name>
ligand_docking-pose.307

> <s_m_Source_Path>
/home/csk/Desktop/cluster/DUD-E-result/esr1

> <s_m_Source_File>
ligand_docking-pose.sdf

> <i_m_Source_File_Index>
307

> <i_lp_mmshare_version>
53161

> <i_f3d_flags>
0

> <r_lp_tautomer_probability>
1

> <s_lp_Force_Field>
OPLS_2005

> <r_lp_Energy>
39.005548

> <b_lp_Chiralities_Consistent>
1

> <s_lp_Variant>
328853-1

> <s_i_glide_gridfile>
glide-grid_1sj0

> <i_i_glide_lignum>
403

> <i_i_glide_rotatable_bonds>
5

> <r_i_docking_score>
-8.57962222088284

> <r_i_glide_ligand_efficiency>
-0.357484259203452

> <r_i_glide_ligand_efficiency_sa>
-1.03116303736332

> <r_i_glide_ligand_efficiency_ln>
-2.05349729066759

> <r_i_glide_gscore>
-8.57962222088284

> <r_i_glide_lipo>
-4.92906194978905

> <r_i_glide_hbond>
-0.16

> <r_i_glide_metal>
0

> <r_i_glide_rewards>
-2.123823835887

> <r_i_glide_evdw>
-27.8245429992676

> <r_i_glide_ecoul>
-3.5981273651123

> <r_i_glide_erotb>
0.564209819523429

> <r_i_glide_esite>
0

> <r_i_glide_emodel>
-42.3251467774224

> <r_i_glide_energy>
-31.4226703643799

> <r_i_glide_einternal>
8.69308471679688

> <i_i_glide_confnum>
12

> <i_i_glide_posenum>
198

> <r_i_glide_eff_state_penalty>
0

> <s_user_duplicate_titles>
328853

> <s_m_subgroup_title>
dock_pv

> <s_m_subgroupid>
dock_pv1

> <b_m_subgroup_collapsed>
0

$$$$
351036
                    3D
 Schrodinger Suite 2021-1.
 45 47  0  0  1  0            999 V2000
   26.9380   -4.1418   28.2637 C   0  0  0  0  0  0
   27.0948   -2.6946   27.8010 C   0  0  0  0  0  0
   28.5646   -2.2770   27.6334 C   0  0  0  0  0  0
   28.7167   -0.7471   27.6388 C   0  0  0  0  0  0
   30.0487   -0.1598   27.0770 C   0  0  1  0  0  0
   30.1373    1.3507   27.4049 C   0  0  0  0  0  0
   30.2483    1.6229   28.9189 C   0  0  0  0  0  0
   31.2604    0.7126   29.6425 C   0  0  0  0  0  0
   31.4703    0.8880   30.8430 O   0  0  0  0  0  0
   31.8242   -0.4334   28.8769 C   0  0  0  0  0  0
   31.3159   -0.8120   27.6660 C   0  0  0  0  0  0
   31.8379   -1.7531   26.6304 C   0  0  0  0  0  0
   32.8601   -2.7108   26.6460 C   0  0  0  0  0  0
   33.2598   -3.3416   25.4644 C   0  0  0  0  0  0
   32.6732   -3.0089   24.2509 C   0  0  0  0  0  0
   31.6583   -2.0625   24.2240 C   0  0  0  0  0  0
   31.2182   -1.4713   25.4111 C   0  0  0  0  0  0
   30.1496   -0.4391   25.5726 C   0  0  0  0  0  0
   33.0893   -3.6276   23.1028 O   0  0  0  0  0  0
   33.0366   -1.0965   29.5406 C   0  0  0  0  0  0
   34.3822   -0.5226   29.0666 C   0  0  0  0  0  0
   25.8826   -4.3542   28.4365 H   0  0  0  0  0  0
   27.4749   -4.3201   29.1978 H   0  0  0  0  0  0
   27.3174   -4.8394   27.5146 H   0  0  0  0  0  0
   26.5678   -2.5566   26.8548 H   0  0  0  0  0  0
   26.5863   -2.0381   28.5099 H   0  0  0  0  0  0
   29.1792   -2.6956   28.4334 H   0  0  0  0  0  0
   28.9497   -2.7023   26.7069 H   0  0  0  0  0  0
   27.8919   -0.3042   27.0764 H   0  0  0  0  0  0
   28.5510   -0.4247   28.6638 H   0  0  0  0  0  0
   31.0103    1.7880   26.9183 H   0  0  0  0  0  0
   29.2724    1.8765   26.9971 H   0  0  0  0  0  0
   29.2797    1.4675   29.3929 H   0  0  0  0  0  0
   30.5448    2.6580   29.0705 H   0  0  0  0  0  0
   33.3874   -2.9816   27.5428 H   0  0  0  0  0  0
   34.0485   -4.0778   25.4651 H   0  0  0  0  0  0
   31.1971   -1.8037   23.2845 H   0  0  0  0  0  0
   29.2010   -0.7531   25.1365 H   0  0  0  0  0  0
   30.4488    0.4575   25.0642 H   0  0  0  0  0  0
   32.5430   -3.4387   22.3365 H   0  0  0  0  0  0
   32.9957   -1.0144   30.6292 H   0  0  0  0  0  0
   32.9949   -2.1694   29.3836 H   0  0  0  0  0  0
   35.2201   -1.0962   29.4641 H   0  0  0  0  0  0
   34.4607   -0.5283   27.9794 H   0  0  0  0  0  0
   34.5051    0.5106   29.3963 H   0  0  0  0  0  0
  1  2  1  0  0  0
  1 22  1  0  0  0
  1 23  1  0  0  0
  1 24  1  0  0  0
  2  3  1  0  0  0
  2 25  1  0  0  0
  2 26  1  0  0  0
  3  4  1  0  0  0
  3 27  1  0  0  0
  3 28  1  0  0  0
  4  5  1  0  0  0
  4 29  1  0  0  0
  4 30  1  0  0  0
  5 11  1  0  0  0
  5 18  1  0  0  0
  5  6  1  0  0  0
  6  7  1  0  0  0
  6 31  1  0  0  0
  6 32  1  0  0  0
  7  8  1  0  0  0
  7 33  1  0  0  0
  7 34  1  0  0  0
  8  9  2  0  0  0
  8 10  1  0  0  0
 10 11  2  0  0  0
 10 20  1  0  0  0
 11 12  1  0  0  0
 12 17  1  0  0  0
 12 13  2  0  0  0
 13 14  1  0  0  0
 13 35  1  0  0  0
 14 15  2  0  0  0
 14 36  1  0  0  0
 15 16  1  0  0  0
 15 19  1  0  0  0
 16 17  2  0  0  0
 16 37  1  0  0  0
 17 18  1  0  0  0
 18 38  1  0  0  0
 18 39  1  0  0  0
 19 40  1  0  0  0
 20 21  1  0  0  0
 20 41  1  0  0  0
 20 42  1  0  0  0
 21 43  1  0  0  0
 21 44  1  0  0  0
 21 45  1  0  0  0
M  END
> <s_m_entry_id>
17381

> <s_m_entry_name>
ligand_docking-pose.308

> <s_m_Source_Path>
/home/csk/Desktop/cluster/DUD-E-result/esr1

> <s_m_Source_File>
ligand_docking-pose.sdf

> <i_m_Source_File_Index>
308

> <i_lp_mmshare_version>
53161

> <i_f3d_flags>
0

> <r_lp_tautomer_probability>
1

> <s_lp_Force_Field>
OPLS_2005

> <r_lp_Energy>
22.100993

> <b_lp_Chiralities_Consistent>
1

> <s_lp_Variant>
351036-2

> <s_i_glide_gridfile>
glide-grid_1sj0

> <i_i_glide_lignum>
1349

> <i_i_glide_rotatable_bonds>
5

> <r_i_docking_score>
-8.57749946059262

> <r_i_glide_ligand_efficiency>
-0.408452355266315

> <r_i_glide_ligand_efficiency_sa>
-1.12688907670044

> <r_i_glide_ligand_efficiency_ln>
-2.12076940916187

> <r_i_glide_gscore>
-8.57749946059262

> <r_i_glide_lipo>
-4.54067079666673

> <r_i_glide_hbond>
0

> <r_i_glide_metal>
0

> <r_i_glide_rewards>
-2.71711712073807

> <r_i_glide_evdw>
-35.5047607421875

> <r_i_glide_ecoul>
0.04863166436553

> <r_i_glide_erotb>
0.448231744266714

> <r_i_glide_esite>
0

> <r_i_glide_emodel>
-50.916178513319

> <r_i_glide_energy>
-35.456129077822

> <r_i_glide_einternal>
2.71975564956665

> <i_i_glide_confnum>
6

> <i_i_glide_posenum>
244

> <r_i_glide_eff_state_penalty>
0

> <s_user_duplicate_titles>
351036

> <s_m_subgroup_title>
dock_pv

> <s_m_subgroupid>
dock_pv1

> <b_m_subgroup_collapsed>
0

$$$$
313646
                    3D
 Schrodinger Suite 2021-1.
 33 35  0  0  1  0            999 V2000
   27.8811   -1.0117   26.9279 C   0  0  0  0  0  0
   27.7991    0.4700   27.2456 C   0  0  0  0  0  0
   28.7077    1.2204   27.8994 C   0  0  0  0  0  0
   30.0352    0.8214   28.4046 C   0  0  0  0  0  0
   30.4628    1.2497   29.6655 C   0  0  0  0  0  0
   31.7080    0.8977   30.1947 C   0  0  0  0  0  0
   32.5973    0.0890   29.4843 C   0  0  0  0  0  0
   32.2040   -0.3506   28.2132 C   0  0  0  0  0  0
   30.9504    0.0228   27.6984 C   0  0  0  0  0  0
   30.8478   -0.5136   26.4517 O   0  0  0  0  0  0
   32.0231   -1.1937   26.2850 C   0  0  0  0  0  0
   32.8552   -1.1352   27.3075 N   0  0  0  0  0  0
   32.2285   -1.9609   25.0175 C   0  0  0  0  0  0
   33.2031   -2.9611   24.9949 C   0  0  0  0  0  0
   33.3852   -3.7419   23.8594 C   0  0  0  0  0  0
   32.6258   -3.5403   22.7202 C   0  0  0  0  0  0
   31.6604   -2.5421   22.7207 C   0  0  0  0  0  0
   31.4563   -1.7549   23.8644 C   0  0  0  0  0  0
   30.4602   -0.8435   23.8640 F   0  0  0  0  0  0
   32.8323   -4.3542   21.6374 O   0  0  0  0  0  0
   32.0617    1.3540   31.4334 O   0  0  0  0  0  0
   26.9382   -1.4996   27.1760 H   0  0  0  0  0  0
   28.6686   -1.5136   27.4890 H   0  0  0  0  0  0
   28.0718   -1.1578   25.8644 H   0  0  0  0  0  0
   26.8869    0.9521   26.9230 H   0  0  0  0  0  0
   28.4562    2.2579   28.0620 H   0  0  0  0  0  0
   29.8026    1.8578   30.2638 H   0  0  0  0  0  0
   33.5584   -0.1916   29.8886 H   0  0  0  0  0  0
   33.7959   -3.1697   25.8711 H   0  0  0  0  0  0
   34.0600   -4.5719   23.8757 H   0  0  0  0  0  0
   31.0459   -2.4291   21.8440 H   0  0  0  0  0  0
   32.0597   -4.5788   21.1026 H   0  0  0  0  0  0
   32.9480    1.0855   31.6819 H   0  0  0  0  0  0
  1  2  1  0  0  0
  1 22  1  0  0  0
  1 23  1  0  0  0
  1 24  1  0  0  0
  2  3  2  0  0  0
  2 25  1  0  0  0
  3  4  1  0  0  0
  3 26  1  0  0  0
  4  9  1  0  0  0
  4  5  2  0  0  0
  5  6  1  0  0  0
  5 27  1  0  0  0
  6  7  2  0  0  0
  6 21  1  0  0  0
  7  8  1  0  0  0
  7 28  1  0  0  0
  8 12  1  0  0  0
  8  9  2  0  0  0
  9 10  1  0  0  0
 10 11  1  0  0  0
 11 12  2  0  0  0
 11 13  1  0  0  0
 13 18  1  0  0  0
 13 14  2  0  0  0
 14 15  1  0  0  0
 14 29  1  0  0  0
 15 16  2  0  0  0
 15 30  1  0  0  0
 16 17  1  0  0  0
 16 20  1  0  0  0
 17 18  2  0  0  0
 17 31  1  0  0  0
 18 19  1  0  0  0
 20 32  1  0  0  0
 21 33  1  0  0  0
M  END
> <s_m_entry_id>
17382

> <s_m_entry_name>
ligand_docking-pose.309

> <s_m_Source_Path>
/home/csk/Desktop/cluster/DUD-E-result/esr1

> <s_m_Source_File>
ligand_docking-pose.sdf

> <i_m_Source_File_Index>
309

> <i_lp_mmshare_version>
53161

> <i_f3d_flags>
0

> <r_lp_tautomer_probability>
0.999999999997365

> <s_lp_Force_Field>
OPLS_2005

> <r_lp_Energy>
18.451694

> <b_lp_Chiralities_Consistent>
1

> <s_lp_Variant>
313646-1

> <s_i_glide_gridfile>
glide-grid_1sj0

> <i_i_glide_lignum>
1255

> <i_i_glide_rotatable_bonds>
4

> <r_i_docking_score>
-8.57281206376336

> <r_i_glide_ligand_efficiency>
-0.408229145893494

> <r_i_glide_ligand_efficiency_sa>
-1.12627325896599

> <r_i_glide_ligand_efficiency_ln>
-2.11961045976761

> <r_i_glide_gscore>
-8.57281206376336

> <r_i_glide_lipo>
-4.36350206442668

> <r_i_glide_hbond>
-0.0808436798437358

> <r_i_glide_metal>
0

> <r_i_glide_rewards>
-2.49490383636376

> <r_i_glide_evdw>
-32.8922576904297

> <r_i_glide_ecoul>
-2.89857220649719

> <r_i_glide_erotb>
0.445836232366875

> <r_i_glide_esite>
0

> <r_i_glide_emodel>
-50.889381055612

> <r_i_glide_energy>
-35.7908298969269

> <r_i_glide_einternal>
5.26177167892456

> <i_i_glide_confnum>
10

> <i_i_glide_posenum>
69

> <r_i_glide_eff_state_penalty>
0

> <s_user_duplicate_titles>
313646

> <s_m_subgroup_title>
dock_pv

> <s_m_subgroupid>
dock_pv1

> <b_m_subgroup_collapsed>
0

$$$$
223609
                    3D
 Schrodinger Suite 2021-1.
 34 35  0  0  1  0            999 V2000
   28.9911    1.5242   28.3035 C   0  0  0  0  0  0
   28.5091    0.1423   27.8826 C   0  0  0  0  0  0
   27.1859    0.0046   27.4559 C   0  0  0  0  0  0
   26.6938   -1.2352   27.0621 C   0  0  0  0  0  0
   27.5225   -2.3535   27.0779 C   0  0  0  0  0  0
   28.8369   -2.2348   27.5287 C   0  0  0  0  0  0
   29.3369   -0.9960   27.9511 C   0  0  0  0  0  0
   30.7531   -0.9285   28.5221 C   0  0  0  0  0  0
   31.8217   -0.3924   27.5471 C   0  0  1  0  0  0
   33.0839   -0.1092   28.2563 C   0  0  0  0  0  0
   34.0722    0.1132   28.8164 N   0  0  0  0  0  0
   32.0516   -1.3116   26.3506 C   0  0  0  0  0  0
   32.8420   -2.4583   26.4812 C   0  0  0  0  0  0
   33.0814   -3.2642   25.3735 C   0  0  0  0  0  0
   32.5196   -2.9391   24.1436 C   0  0  0  0  0  0
   31.7089   -1.8136   24.0129 C   0  0  0  0  0  0
   31.4717   -1.0010   25.1177 C   0  0  0  0  0  0
   32.7684   -3.7417   23.0639 O   0  0  0  0  0  0
   25.3915   -1.3420   26.6639 O   0  0  0  0  0  0
   28.1850    2.2578   28.2803 H   0  0  0  0  0  0
   29.3834    1.5080   29.3203 H   0  0  0  0  0  0
   29.7823    1.8740   27.6425 H   0  0  0  0  0  0
   26.5266    0.8608   27.4251 H   0  0  0  0  0  0
   27.1450   -3.3163   26.7610 H   0  0  0  0  0  0
   29.4631   -3.1157   27.5581 H   0  0  0  0  0  0
   31.0514   -1.9142   28.8840 H   0  0  0  0  0  0
   30.7381   -0.3235   29.4286 H   0  0  0  0  0  0
   31.5127    0.5827   27.1719 H   0  0  0  0  0  0
   33.2786   -2.7169   27.4344 H   0  0  0  0  0  0
   33.7016   -4.1417   25.4624 H   0  0  0  0  0  0
   31.2611   -1.5681   23.0639 H   0  0  0  0  0  0
   30.8388   -0.1331   25.0140 H   0  0  0  0  0  0
   32.2839   -3.4982   22.2718 H   0  0  0  0  0  0
   25.1756   -2.2131   26.2682 H   0  0  0  0  0  0
  1  2  1  0  0  0
  1 20  1  0  0  0
  1 21  1  0  0  0
  1 22  1  0  0  0
  2  7  1  0  0  0
  2  3  2  0  0  0
  3  4  1  0  0  0
  3 23  1  0  0  0
  4  5  2  0  0  0
  4 19  1  0  0  0
  5  6  1  0  0  0
  5 24  1  0  0  0
  6  7  2  0  0  0
  6 25  1  0  0  0
  7  8  1  0  0  0
  8  9  1  0  0  0
  8 26  1  0  0  0
  8 27  1  0  0  0
  9 10  1  0  0  0
  9 12  1  0  0  0
  9 28  1  0  0  0
 10 11  3  0  0  0
 12 17  1  0  0  0
 12 13  2  0  0  0
 13 14  1  0  0  0
 13 29  1  0  0  0
 14 15  2  0  0  0
 14 30  1  0  0  0
 15 16  1  0  0  0
 15 18  1  0  0  0
 16 17  2  0  0  0
 16 31  1  0  0  0
 17 32  1  0  0  0
 18 33  1  0  0  0
 19 34  1  0  0  0
M  END
> <s_m_entry_id>
17383

> <s_m_entry_name>
ligand_docking-pose.310

> <s_m_Source_Path>
/home/csk/Desktop/cluster/DUD-E-result/esr1

> <s_m_Source_File>
ligand_docking-pose.sdf

> <i_m_Source_File_Index>
310

> <i_lp_mmshare_version>
53161

> <i_f3d_flags>
0

> <r_lp_tautomer_probability>
0.99999999999473

> <s_lp_Force_Field>
OPLS_2005

> <r_lp_Energy>
11.234691

> <b_lp_Chiralities_Consistent>
1

> <s_lp_Variant>
223609-2

> <s_i_glide_gridfile>
glide-grid_1sj0

> <i_i_glide_lignum>
993

> <i_i_glide_rotatable_bonds>
5

> <r_i_docking_score>
-8.57113146979548

> <r_i_glide_ligand_efficiency>
-0.451112182620815

> <r_i_glide_ligand_efficiency_sa>
-1.20374849068248

> <r_i_glide_ligand_efficiency_ln>
-2.1729659186176

> <r_i_glide_gscore>
-8.57113146979548

> <r_i_glide_lipo>
-3.80171164529432

> <r_i_glide_hbond>
-0.165234509144813

> <r_i_glide_metal>
0

> <r_i_glide_rewards>
-2.77745578023896

> <r_i_glide_evdw>
-33.8214225769043

> <r_i_glide_ecoul>
-4.73729085922241

> <r_i_glide_erotb>
0.57493522261119

> <r_i_glide_esite>
0

> <r_i_glide_emodel>
-58.879355926231

> <r_i_glide_energy>
-38.5587134361267

> <r_i_glide_einternal>
2.15717220306396

> <i_i_glide_confnum>
12

> <i_i_glide_posenum>
212

> <r_i_glide_eff_state_penalty>
0

> <s_user_duplicate_titles>
223609

> <s_m_subgroup_title>
dock_pv

> <s_m_subgroupid>
dock_pv1

> <b_m_subgroup_collapsed>
0

$$$$
373334
                    3D
 Schrodinger Suite 2021-1.
 41 43  0  0  1  0            999 V2000
   34.0600   -3.5489   25.2700 C   0  0  0  0  0  0
   33.2584   -3.2566   24.0683 C   0  0  0  0  0  0
   33.6357   -3.8903   22.8791 C   0  0  0  0  0  0
   32.8985   -3.7558   21.7229 C   0  0  0  0  0  0
   31.7820   -2.9420   21.7475 C   0  0  0  0  0  0
   31.4455   -2.2847   22.9327 C   0  0  0  0  0  0
   32.1386   -2.4167   24.1459 C   0  0  0  0  0  0
   31.5704   -1.6596   25.3731 C   0  0  0  0  0  0
   31.9110   -1.4965   26.7889 C   0  0  0  0  0  0
   32.8572   -2.0153   27.7025 C   0  0  0  0  0  0
   32.9375   -1.5320   28.9936 C   0  0  0  0  0  0
   32.0870   -0.5420   29.4288 C   0  0  0  0  0  0
   31.0809    0.0039   28.6245 C   0  0  0  0  0  0
   30.9757   -0.5202   27.3066 C   0  0  0  0  0  0
   30.0740   -0.3273   26.2559 N   0  0  0  0  0  0
   30.4817   -0.9709   25.1640 N   0  0  0  0  0  0
   28.7301    0.2780   26.1213 C   0  0  0  0  0  0
   28.6761    1.7959   26.3577 C   0  0  0  0  0  0
   27.6561   -0.5738   26.8293 C   0  0  0  0  0  0
   30.2626    1.1236   29.2471 C   0  0  0  0  0  0
   30.6009    2.2580   28.6575 F   0  0  0  0  0  0
   28.9764    0.9105   29.0640 F   0  0  0  0  0  0
   30.4619    1.2719   30.5585 F   0  0  0  0  0  0
   33.2600   -4.4699   20.6108 O   0  0  0  0  0  0
   34.9319   -4.1420   25.0640 H   0  0  0  0  0  0
   34.4098   -2.6002   25.6675 H   0  0  0  0  0  0
   33.4431   -4.1144   25.9675 H   0  0  0  0  0  0
   34.4600   -4.5683   22.8343 H   0  0  0  0  0  0
   31.1651   -2.8374   20.8669 H   0  0  0  0  0  0
   30.5235   -1.7420   22.9288 H   0  0  0  0  0  0
   33.5475   -2.7991   27.4938 H   0  0  0  0  0  0
   33.6812   -1.9293   29.6712 H   0  0  0  0  0  0
   32.2328   -0.1968   30.4426 H   0  0  0  0  0  0
   28.4600    0.2097   25.0640 H   0  0  0  0  0  0
   28.0600    2.2580   25.5865 H   0  0  0  0  0  0
   28.2086    2.0815   27.2959 H   0  0  0  0  0  0
   29.6600    2.2580   26.2952 H   0  0  0  0  0  0
   26.6715   -0.1109   26.7579 H   0  0  0  0  0  0
   27.5799   -1.5585   26.3653 H   0  0  0  0  0  0
   27.8653   -0.7448   27.8826 H   0  0  0  0  0  0
   32.5234   -4.9994   20.2640 H   0  0  0  0  0  0
  1  2  1  0  0  0
  1 25  1  0  0  0
  1 26  1  0  0  0
  1 27  1  0  0  0
  2  7  1  0  0  0
  2  3  2  0  0  0
  3  4  1  0  0  0
  3 28  1  0  0  0
  4  5  2  0  0  0
  4 24  1  0  0  0
  5  6  1  0  0  0
  5 29  1  0  0  0
  6  7  2  0  0  0
  6 30  1  0  0  0
  7  8  1  0  0  0
  8 16  2  0  0  0
  8  9  1  0  0  0
  9 14  2  0  0  0
  9 10  1  0  0  0
 10 11  2  0  0  0
 10 31  1  0  0  0
 11 12  1  0  0  0
 11 32  1  0  0  0
 12 13  2  0  0  0
 12 33  1  0  0  0
 13 14  1  0  0  0
 13 20  1  0  0  0
 14 15  1  0  0  0
 15 16  1  0  0  0
 15 17  1  0  0  0
 17 18  1  0  0  0
 17 19  1  0  0  0
 17 34  1  0  0  0
 18 35  1  0  0  0
 18 36  1  0  0  0
 18 37  1  0  0  0
 19 38  1  0  0  0
 19 39  1  0  0  0
 19 40  1  0  0  0
 20 21  1  0  0  0
 20 22  1  0  0  0
 20 23  1  0  0  0
 24 41  1  0  0  0
M  END
> <s_m_entry_id>
17384

> <s_m_entry_name>
ligand_docking-pose.311

> <s_m_Source_Path>
/home/csk/Desktop/cluster/DUD-E-result/esr1

> <s_m_Source_File>
ligand_docking-pose.sdf

> <i_m_Source_File_Index>
311

> <i_lp_mmshare_version>
53161

> <i_f3d_flags>
0

> <r_lp_tautomer_probability>
0.999999999997365

> <s_lp_Force_Field>
OPLS_2005

> <r_lp_Energy>
28.736607

> <b_lp_Chiralities_Consistent>
1

> <s_lp_Variant>
373334-1

> <s_i_glide_gridfile>
glide-grid_1sj0

> <i_i_glide_lignum>
975

> <i_i_glide_rotatable_bonds>
4

> <r_i_docking_score>
-8.57000470228903

> <r_i_glide_ligand_efficiency>
-0.357083529262043

> <r_i_glide_ligand_efficiency_sa>
-1.03000713219293

> <r_i_glide_ligand_efficiency_ln>
-2.05119537714892

> <r_i_glide_gscore>
-8.57000470228903

> <r_i_glide_lipo>
-4.09714393941313

> <r_i_glide_hbond>
-0.16

> <r_i_glide_metal>
0

> <r_i_glide_rewards>
-2.95030110075766

> <r_i_glide_evdw>
-21.3987617492676

> <r_i_glide_ecoul>
-3.07558846473694

> <r_i_glide_erotb>
0.168716695055681

> <r_i_glide_esite>
0

> <r_i_glide_emodel>
-26.2346946801871

> <r_i_glide_energy>
-24.4743502140045

> <r_i_glide_einternal>
5.82456636428833

> <i_i_glide_confnum>
3

> <i_i_glide_posenum>
47

> <r_i_glide_eff_state_penalty>
0

> <s_user_duplicate_titles>
373334

> <s_m_subgroup_title>
dock_pv

> <s_m_subgroupid>
dock_pv1

> <b_m_subgroup_collapsed>
0

$$$$
396502
                    3D
 Schrodinger Suite 2021-1.
 39 42  0  0  1  0            999 V2000
   26.9984   -0.3631   27.0646 C   0  0  0  0  0  0
   27.3484    0.8435   27.6651 C   0  0  0  0  0  0
   28.6829    1.1220   27.9670 C   0  0  0  0  0  0
   29.7032    0.2443   27.5972 C   0  0  0  0  0  0
   29.3285   -0.9289   26.9136 C   0  0  0  0  0  0
   27.9943   -1.2525   26.6778 C   0  0  0  0  0  0
   30.2672   -1.7795   26.3832 O   0  0  0  0  0  0
   31.3705   -1.0476   25.8636 C   0  0  1  0  0  0
   32.1344   -0.4056   27.0513 C   0  0  1  0  0  0
   31.1928    0.5437   27.8591 C   0  0  2  0  0  0
   31.6086    0.4029   29.3425 C   0  0  0  0  0  0
   32.8840   -0.4407   29.3382 C   0  0  0  0  0  0
   32.7175   -1.3415   28.1203 C   0  0  0  0  0  0
   32.1589   -1.8784   24.8575 C   0  0  0  0  0  0
   32.9773   -2.9446   25.2383 C   0  0  0  0  0  0
   33.6370   -3.6877   24.2623 C   0  0  0  0  0  0
   33.4382   -3.4061   22.9153 C   0  0  0  0  0  0
   32.5933   -2.3813   22.5324 C   0  0  0  0  0  0
   31.9740   -1.6067   23.5002 C   0  0  0  0  0  0
   34.0606   -4.1432   21.9517 O   0  0  0  0  0  0
   28.9872    2.2577   28.6639 O   0  0  0  0  0  0
   30.9964   -0.2072   25.2680 H   0  0  0  0  0  0
   32.9518    0.1944   26.6448 H   0  0  0  0  0  0
   31.4120    1.5505   27.4989 H   0  0  0  0  0  0
   25.9622   -0.5910   26.8595 H   0  0  0  0  0  0
   26.5684    1.5400   27.9330 H   0  0  0  0  0  0
   27.7345   -2.1657   26.1626 H   0  0  0  0  0  0
   31.8152    1.3656   29.8121 H   0  0  0  0  0  0
   30.8606   -0.1521   29.9123 H   0  0  0  0  0  0
   33.0138   -1.0067   30.2618 H   0  0  0  0  0  0
   33.7634    0.1953   29.2186 H   0  0  0  0  0  0
   32.0216   -2.1496   28.3492 H   0  0  0  0  0  0
   33.6600   -1.7866   27.8203 H   0  0  0  0  0  0
   33.0877   -3.2262   26.2728 H   0  0  0  0  0  0
   34.2418   -4.5298   24.5488 H   0  0  0  0  0  0
   32.4280   -2.1614   21.4882 H   0  0  0  0  0  0
   31.3331   -0.7987   23.1872 H   0  0  0  0  0  0
   33.7045   -4.0076   21.0700 H   0  0  0  0  0  0
   28.2017    2.7312   28.9431 H   0  0  0  0  0  0
  1  6  1  0  0  0
  1  2  2  0  0  0
  1 25  1  0  0  0
  2  3  1  0  0  0
  2 26  1  0  0  0
  3  4  2  0  0  0
  3 21  1  0  0  0
  4 10  1  0  0  0
  4  5  1  0  0  0
  5  6  2  0  0  0
  5  7  1  0  0  0
  6 27  1  0  0  0
  7  8  1  0  0  0
  8 22  1  0  0  0
  8  9  1  0  0  0
  8 14  1  0  0  0
  9 23  1  0  0  0
  9 13  1  0  0  0
  9 10  1  0  0  0
 10 24  1  0  0  0
 10 11  1  0  0  0
 11 12  1  0  0  0
 11 28  1  0  0  0
 11 29  1  0  0  0
 12 13  1  0  0  0
 12 30  1  0  0  0
 12 31  1  0  0  0
 13 32  1  0  0  0
 13 33  1  0  0  0
 14 19  1  0  0  0
 14 15  2  0  0  0
 15 16  1  0  0  0
 15 34  1  0  0  0
 16 17  2  0  0  0
 16 35  1  0  0  0
 17 18  1  0  0  0
 17 20  1  0  0  0
 18 19  2  0  0  0
 18 36  1  0  0  0
 19 37  1  0  0  0
 20 38  1  0  0  0
 21 39  1  0  0  0
M  END
> <s_m_entry_id>
17385

> <s_m_entry_name>
ligand_docking-pose.312

> <s_m_Source_Path>
/home/csk/Desktop/cluster/DUD-E-result/esr1

> <s_m_Source_File>
ligand_docking-pose.sdf

> <i_m_Source_File_Index>
312

> <i_lp_mmshare_version>
53161

> <i_f3d_flags>
0

> <r_lp_tautomer_probability>
0.999999999938865

> <s_lp_Force_Field>
OPLS_2005

> <r_lp_Energy>
35.334443

> <b_lp_Chiralities_Consistent>
1

> <s_lp_Variant>
396502-1

> <s_i_glide_gridfile>
glide-grid_1sj0

> <i_i_glide_lignum>
107

> <i_i_glide_rotatable_bonds>
3

> <r_i_docking_score>
-8.56512091798027

> <r_i_glide_ligand_efficiency>
-0.407862900856203

> <r_i_glide_ligand_efficiency_sa>
-1.12526281667915

> <r_i_glide_ligand_efficiency_ln>
-2.11770883951417

> <r_i_glide_gscore>
-8.56512091798027

> <r_i_glide_lipo>
-4.82592000894743

> <r_i_glide_hbond>
0

> <r_i_glide_metal>
0

> <r_i_glide_rewards>
-2.29251278439378

> <r_i_glide_evdw>
-32.0083045959473

> <r_i_glide_ecoul>
-0.488259047269821

> <r_i_glide_erotb>
0.226965962248775

> <r_i_glide_esite>
0

> <r_i_glide_emodel>
-36.2865998325587

> <r_i_glide_energy>
-32.4965636432171

> <r_i_glide_einternal>
5.59788846969604

> <i_i_glide_confnum>
1

> <i_i_glide_posenum>
167

> <r_i_glide_eff_state_penalty>
0

> <s_user_duplicate_titles>
396502

> <s_m_subgroup_title>
dock_pv

> <s_m_subgroupid>
dock_pv1

> <b_m_subgroup_collapsed>
0

$$$$
190516
                    3D
 Schrodinger Suite 2021-1.
 34 36  0  0  1  0            999 V2000
   29.4221    2.0269   28.7603 C   0  0  0  0  0  0
   29.4246    0.9024   27.7129 C   0  0  1  0  0  0
   30.4525   -0.1924   28.1335 C   0  0  1  0  0  0
   30.2409   -1.4106   27.4290 O   0  0  0  0  0  0
   28.9743   -1.9106   27.6557 C   0  0  0  0  0  0
   28.8600   -3.2747   27.8640 C   0  0  0  0  0  0
   27.6186   -3.8625   28.0721 C   0  0  0  0  0  0
   26.4783   -3.0679   28.0546 C   0  0  0  0  0  0
   26.5778   -1.6944   27.8368 C   0  0  0  0  0  0
   27.8371   -1.0966   27.6842 C   0  0  0  0  0  0
   27.9853    0.3676   27.5568 C   0  0  0  0  0  0
   26.9975    1.0960   27.4640 O   0  0  0  0  0  0
   25.2600   -3.6334   28.2640 O   0  0  0  0  0  0
   31.8887    0.3205   27.9935 C   0  0  0  0  0  0
   32.3506    0.7778   26.7553 C   0  0  0  0  0  0
   33.5671    1.4502   26.6641 C   0  0  0  0  0  0
   34.3595    1.5871   27.7991 C   0  0  0  0  0  0
   33.9499    1.0580   29.0199 C   0  0  0  0  0  0
   32.7081    0.4367   29.1226 C   0  0  0  0  0  0
   35.5479    2.2552   27.7209 O   0  0  0  0  0  0
   28.5462    2.6580   28.6674 H   0  0  0  0  0  0
   29.4061    1.6395   29.7804 H   0  0  0  0  0  0
   30.3044    2.6580   28.6639 H   0  0  0  0  0  0
   29.6874    1.3062   26.7358 H   0  0  0  0  0  0
   30.3231   -0.4228   29.1944 H   0  0  0  0  0  0
   29.7514   -3.8627   27.8640 H   0  0  0  0  0  0
   27.5445   -4.9268   28.2381 H   0  0  0  0  0  0
   25.6776   -1.0955   27.8365 H   0  0  0  0  0  0
   24.8539   -3.7420   27.3830 H   0  0  0  0  0  0
   31.7386    0.6580   25.8738 H   0  0  0  0  0  0
   33.8932    1.8493   25.7147 H   0  0  0  0  0  0
   34.5805    1.1645   29.8901 H   0  0  0  0  0  0
   32.3758    0.0802   30.0868 H   0  0  0  0  0  0
   35.8468    2.4382   26.8250 H   0  0  0  0  0  0
  1  2  1  0  0  0
  1 21  1  0  0  0
  1 22  1  0  0  0
  1 23  1  0  0  0
  2 11  1  0  0  0
  2  3  1  0  0  0
  2 24  1  0  0  0
  3  4  1  0  0  0
  3 14  1  0  0  0
  3 25  1  0  0  0
  4  5  1  0  0  0
  5 10  2  0  0  0
  5  6  1  0  0  0
  6  7  2  0  0  0
  6 26  1  0  0  0
  7  8  1  0  0  0
  7 27  1  0  0  0
  8  9  2  0  0  0
  8 13  1  0  0  0
  9 10  1  0  0  0
  9 28  1  0  0  0
 10 11  1  0  0  0
 11 12  2  0  0  0
 13 29  1  0  0  0
 14 19  1  0  0  0
 14 15  2  0  0  0
 15 16  1  0  0  0
 15 30  1  0  0  0
 16 17  2  0  0  0
 16 31  1  0  0  0
 17 18  1  0  0  0
 17 20  1  0  0  0
 18 19  2  0  0  0
 18 32  1  0  0  0
 19 33  1  0  0  0
 20 34  1  0  0  0
M  END
> <s_m_entry_id>
17386

> <s_m_entry_name>
ligand_docking-pose.313

> <s_m_Source_Path>
/home/csk/Desktop/cluster/DUD-E-result/esr1

> <s_m_Source_File>
ligand_docking-pose.sdf

> <i_m_Source_File_Index>
313

> <i_lp_mmshare_version>
53161

> <i_f3d_flags>
0

> <r_lp_tautomer_probability>
0.999949999997365

> <s_lp_Force_Field>
OPLS_2005

> <r_lp_Energy>
19.61339

> <b_lp_Chiralities_Consistent>
1

> <s_lp_Variant>
190516-2

> <s_i_glide_gridfile>
glide-grid_1sj0

> <i_i_glide_lignum>
1062

> <i_i_glide_rotatable_bonds>
3

> <r_i_docking_score>
-8.55432103756049

> <r_i_glide_ligand_efficiency>
-0.427716051878025

> <r_i_glide_ligand_efficiency_sa>
-1.16099998495878

> <r_i_glide_ligand_efficiency_ln>
-2.14086441531076

> <r_i_glide_gscore>
-8.55432103756049

> <r_i_glide_lipo>
-3.19111538174752

> <r_i_glide_hbond>
-0.412603282378311

> <r_i_glide_metal>
0

> <r_i_glide_rewards>
-2.84462264566196

> <r_i_glide_evdw>
-32.6637878417969

> <r_i_glide_ecoul>
-4.29436349868774

> <r_i_glide_erotb>
0.171364189120308

> <r_i_glide_esite>
0

> <r_i_glide_emodel>
-50.8530635890367

> <r_i_glide_energy>
-36.9581513404846

> <r_i_glide_einternal>
4.47161483764648

> <i_i_glide_confnum>
2

> <i_i_glide_posenum>
342

> <r_i_glide_eff_state_penalty>
0

> <s_user_duplicate_titles>
190516

> <s_m_subgroup_title>
dock_pv

> <s_m_subgroupid>
dock_pv1

> <b_m_subgroup_collapsed>
0

$$$$
308603
                    3D
 Schrodinger Suite 2021-1.
 35 37  0  0  1  0            999 V2000
   26.3676   -0.5685   27.0668 C   0  0  0  0  0  0
   27.8730   -0.3186   26.8513 C   0  0  0  0  0  0
   28.4351    0.9048   27.5968 C   0  0  0  0  0  0
   27.6986    1.8573   27.8600 O   0  0  0  0  0  0
   29.7843    0.7145   28.1933 C   0  0  0  0  0  0
   30.0558    1.2503   29.4640 C   0  0  0  0  0  0
   31.2661    1.0180   30.1264 C   0  0  0  0  0  0
   32.2948    0.3031   29.5243 C   0  0  0  0  0  0
   32.0907   -0.1995   28.2362 C   0  0  0  0  0  0
   30.8510    0.0215   27.5930 C   0  0  0  0  0  0
   30.8470   -0.5468   26.3473 O   0  0  0  0  0  0
   32.0598   -1.1533   26.1894 C   0  0  0  0  0  0
   32.8532   -0.9641   27.3149 C   0  0  0  0  0  0
   32.2795   -1.9251   24.9347 C   0  0  0  0  0  0
   33.2296   -2.9424   24.9652 C   0  0  0  0  0  0
   33.4182   -3.7423   23.8499 C   0  0  0  0  0  0
   32.6752   -3.5600   22.7001 C   0  0  0  0  0  0
   31.7402   -2.5414   22.6515 C   0  0  0  0  0  0
   31.5457   -1.7088   23.7629 C   0  0  0  0  0  0
   32.8718   -4.4099   21.6429 O   0  0  0  0  0  0
   31.4534    1.4576   31.4062 O   0  0  0  0  0  0
   26.0504   -1.4653   26.5334 H   0  0  0  0  0  0
   25.7578    0.2559   26.6976 H   0  0  0  0  0  0
   26.1310   -0.7111   28.1226 H   0  0  0  0  0  0
   28.4071   -1.2097   27.1808 H   0  0  0  0  0  0
   28.0870   -0.1993   25.7899 H   0  0  0  0  0  0
   29.2834    1.8050   29.9791 H   0  0  0  0  0  0
   33.2235    0.1314   30.0482 H   0  0  0  0  0  0
   33.8498   -1.3420   27.4631 H   0  0  0  0  0  0
   33.7895   -3.1527   25.8619 H   0  0  0  0  0  0
   34.0614   -4.5951   23.8917 H   0  0  0  0  0  0
   31.1839   -2.4069   21.7402 H   0  0  0  0  0  0
   30.8061   -0.9225   23.7222 H   0  0  0  0  0  0
   32.0950   -4.6279   21.1087 H   0  0  0  0  0  0
   30.7159    1.9711   31.7412 H   0  0  0  0  0  0
  1  2  1  0  0  0
  1 22  1  0  0  0
  1 23  1  0  0  0
  1 24  1  0  0  0
  2  3  1  0  0  0
  2 25  1  0  0  0
  2 26  1  0  0  0
  3  4  2  0  0  0
  3  5  1  0  0  0
  5 10  1  0  0  0
  5  6  2  0  0  0
  6  7  1  0  0  0
  6 27  1  0  0  0
  7  8  2  0  0  0
  7 21  1  0  0  0
  8  9  1  0  0  0
  8 28  1  0  0  0
  9 13  1  0  0  0
  9 10  2  0  0  0
 10 11  1  0  0  0
 11 12  1  0  0  0
 12 13  2  0  0  0
 12 14  1  0  0  0
 13 29  1  0  0  0
 14 19  1  0  0  0
 14 15  2  0  0  0
 15 16  1  0  0  0
 15 30  1  0  0  0
 16 17  2  0  0  0
 16 31  1  0  0  0
 17 18  1  0  0  0
 17 20  1  0  0  0
 18 19  2  0  0  0
 18 32  1  0  0  0
 19 33  1  0  0  0
 20 34  1  0  0  0
 21 35  1  0  0  0
M  END
> <s_m_entry_id>
17387

> <s_m_entry_name>
ligand_docking-pose.314

> <s_m_Source_Path>
/home/csk/Desktop/cluster/DUD-E-result/esr1

> <s_m_Source_File>
ligand_docking-pose.sdf

> <i_m_Source_File_Index>
314

> <i_lp_mmshare_version>
53161

> <i_f3d_flags>
0

> <r_lp_tautomer_probability>
0.999900004997115

> <s_lp_Force_Field>
OPLS_2005

> <r_lp_Energy>
16.463643

> <b_lp_Chiralities_Consistent>
1

> <s_lp_Variant>
308603-1

> <s_i_glide_gridfile>
glide-grid_1sj0

> <i_i_glide_lignum>
1548

> <i_i_glide_rotatable_bonds>
5

> <r_i_docking_score>
-8.5511502034723

> <r_i_glide_ligand_efficiency>
-0.407197628736776

> <r_i_glide_ligand_efficiency_sa>
-1.12342738134686

> <r_i_glide_ligand_efficiency_ln>
-2.11425460858256

> <r_i_glide_gscore>
-8.5511502034723

> <r_i_glide_lipo>
-4.13638940575791

> <r_i_glide_hbond>
-0.0881811398983113

> <r_i_glide_metal>
0

> <r_i_glide_rewards>
-2.62904252003994

> <r_i_glide_evdw>
-36.025764465332

> <r_i_glide_ecoul>
-2.33534145355225

> <r_i_glide_erotb>
0.454052303523303

> <r_i_glide_esite>
0

> <r_i_glide_emodel>
-53.2875992889985

> <r_i_glide_energy>
-38.3611059188843

> <r_i_glide_einternal>
8.86906814575195

> <i_i_glide_confnum>
2

> <i_i_glide_posenum>
251

> <r_i_glide_eff_state_penalty>
0

> <s_user_duplicate_titles>
308603

> <s_m_subgroup_title>
dock_pv

> <s_m_subgroupid>
dock_pv1

> <b_m_subgroup_collapsed>
0

$$$$
121671
                    3D
 Schrodinger Suite 2021-1.
 36 38  0  0  1  0            999 V2000
   28.0696   -0.1712   26.6635 C   0  0  0  0  0  0
   29.2992   -1.0568   26.4321 C   0  0  0  0  0  0
   30.5561   -0.2199   26.1034 C   0  0  2  0  0  0
   31.8346   -1.1171   26.0172 C   0  0  0  0  0  0
   32.5909   -1.1624   27.0512 N   0  0  0  0  0  0
   32.2654   -0.4861   28.2339 C   0  0  0  0  0  0
   32.9458   -0.7855   29.4200 C   0  0  0  0  0  0
   32.6087   -0.1174   30.5975 C   0  0  0  0  0  0
   31.6125    0.8557   30.5970 C   0  0  0  0  0  0
   30.9650    1.1995   29.4120 C   0  0  0  0  0  0
   31.3045    0.5272   28.2433 C   0  0  0  0  0  0
   30.6773    0.8627   27.0641 O   0  0  0  0  0  0
   31.2655    1.4579   31.7711 O   0  0  0  0  0  0
   33.9244   -1.7414   29.4640 O   0  0  0  0  0  0
   32.1278   -1.9226   24.8045 C   0  0  0  0  0  0
   31.4348   -1.7493   23.5954 C   0  0  0  0  0  0
   31.6600   -2.6131   22.5157 C   0  0  0  0  0  0
   32.6227   -3.6080   22.6126 C   0  0  0  0  0  0
   33.3544   -3.7420   23.7800 C   0  0  0  0  0  0
   33.1041   -2.9266   24.8732 C   0  0  0  0  0  0
   32.8600   -4.4813   21.5825 O   0  0  0  0  0  0
   27.1417   -0.7401   26.5911 H   0  0  0  0  0  0
   28.1014    0.3035   27.6450 H   0  0  0  0  0  0
   28.0601    0.6245   25.9179 H   0  0  0  0  0  0
   29.0913   -1.7390   25.6100 H   0  0  0  0  0  0
   29.4620   -1.6791   27.3141 H   0  0  0  0  0  0
   30.3978    0.2580   25.1422 H   0  0  0  0  0  0
   33.1148   -0.3557   31.5188 H   0  0  0  0  0  0
   30.1996    1.9597   29.3891 H   0  0  0  0  0  0
   30.5822    2.1201   31.6587 H   0  0  0  0  0  0
   34.3926   -1.7442   30.3031 H   0  0  0  0  0  0
   30.6719   -0.9978   23.4757 H   0  0  0  0  0  0
   31.0817   -2.5418   21.6074 H   0  0  0  0  0  0
   34.0626   -4.5430   23.8643 H   0  0  0  0  0  0
   33.6589   -3.1092   25.7822 H   0  0  0  0  0  0
   32.1088   -4.6980   21.0126 H   0  0  0  0  0  0
  1  2  1  0  0  0
  1 22  1  0  0  0
  1 23  1  0  0  0
  1 24  1  0  0  0
  2  3  1  0  0  0
  2 25  1  0  0  0
  2 26  1  0  0  0
  3 12  1  0  0  0
  3  4  1  0  0  0
  3 27  1  0  0  0
  4  5  2  0  0  0
  4 15  1  0  0  0
  5  6  1  0  0  0
  6 11  2  0  0  0
  6  7  1  0  0  0
  7  8  2  0  0  0
  7 14  1  0  0  0
  8  9  1  0  0  0
  8 28  1  0  0  0
  9 10  2  0  0  0
  9 13  1  0  0  0
 10 11  1  0  0  0
 10 29  1  0  0  0
 11 12  1  0  0  0
 13 30  1  0  0  0
 14 31  1  0  0  0
 15 20  1  0  0  0
 15 16  2  0  0  0
 16 17  1  0  0  0
 16 32  1  0  0  0
 17 18  2  0  0  0
 17 33  1  0  0  0
 18 19  1  0  0  0
 18 21  1  0  0  0
 19 20  2  0  0  0
 19 34  1  0  0  0
 20 35  1  0  0  0
 21 36  1  0  0  0
M  END
> <s_m_entry_id>
17388

> <s_m_entry_name>
ligand_docking-pose.315

> <s_m_Source_Path>
/home/csk/Desktop/cluster/DUD-E-result/esr1

> <s_m_Source_File>
ligand_docking-pose.sdf

> <i_m_Source_File_Index>
315

> <i_lp_mmshare_version>
53161

> <i_f3d_flags>
0

> <r_lp_tautomer_probability>
0.999601159137504

> <s_lp_Force_Field>
OPLS_2005

> <r_lp_Energy>
22.558265

> <b_lp_Chiralities_Consistent>
1

> <s_lp_Variant>
121671-1

> <s_i_glide_gridfile>
glide-grid_1sj0

> <i_i_glide_lignum>
1180

> <i_i_glide_rotatable_bonds>
5

> <r_i_docking_score>
-8.53600149511466

> <r_i_glide_ligand_efficiency>
-0.406476261672127

> <r_i_glide_ligand_efficiency_sa>
-1.12143718431417

> <r_i_glide_ligand_efficiency_ln>
-2.11050912105198

> <r_i_glide_gscore>
-8.53600149511466

> <r_i_glide_lipo>
-3.9120099197975

> <r_i_glide_hbond>
-0.126664451226351

> <r_i_glide_metal>
0

> <r_i_glide_rewards>
-2.46286917750647

> <r_i_glide_evdw>
-33.4107055664062

> <r_i_glide_ecoul>
-3.91204690933228

> <r_i_glide_erotb>
0.222884368135808

> <r_i_glide_esite>
0

> <r_i_glide_emodel>
-53.6772372224369

> <r_i_glide_energy>
-37.3227524757385

> <r_i_glide_einternal>
3.15636229515076

> <i_i_glide_confnum>
4

> <i_i_glide_posenum>
46

> <r_i_glide_eff_state_penalty>
0

> <s_user_duplicate_titles>
121671

> <s_m_subgroup_title>
dock_pv

> <s_m_subgroupid>
dock_pv1

> <b_m_subgroup_collapsed>
0

$$$$
561008
                    3D
 Schrodinger Suite 2021-1.
 41 42  0  0  1  0            999 V2000
   34.4730    0.6878   28.3059 C   0  0  0  0  0  0
   33.1177    1.0633   27.6767 C   0  0  0  0  0  0
   32.0643   -0.0768   27.7194 C   0  0  2  0  0  0
   32.2714   -1.0581   26.5545 C   0  0  0  0  0  0
   31.8672   -0.7211   25.2574 C   0  0  0  0  0  0
   32.0479   -1.6205   24.2083 C   0  0  0  0  0  0
   32.6452   -2.8547   24.4536 C   0  0  0  0  0  0
   33.0385   -3.2010   25.7424 C   0  0  0  0  0  0
   32.8508   -2.3078   26.7930 C   0  0  0  0  0  0
   32.8462   -3.7419   23.4300 O   0  0  0  0  0  0
   30.5893    0.4443   27.8585 C   0  0  2  0  0  0
   30.3279    1.2564   29.1627 C   0  0  0  0  0  0
   30.9716    0.7189   30.4596 C   0  0  0  0  0  0
   29.5152   -0.6430   27.6706 C   0  0  0  0  0  0
   28.3750   -0.4007   26.8866 C   0  0  0  0  0  0
   27.4611   -1.4399   26.6809 C   0  0  0  0  0  0
   27.7086   -2.6869   27.2565 C   0  0  0  0  0  0
   28.8518   -2.8478   28.0350 C   0  0  0  0  0  0
   29.7416   -1.8498   28.2597 N   0  0  0  0  0  0
   26.8600   -3.7418   27.0654 O   0  0  0  0  0  0
   32.2566   -0.6510   28.6288 H   0  0  0  0  0  0
   30.4414    1.1455   27.0360 H   0  0  0  0  0  0
   35.2010    1.4921   28.1797 H   0  0  0  0  0  0
   34.3726    0.5044   29.3783 H   0  0  0  0  0  0
   34.8977   -0.2128   27.8640 H   0  0  0  0  0  0
   33.2715    1.3988   26.6493 H   0  0  0  0  0  0
   32.7613    1.9441   28.2087 H   0  0  0  0  0  0
   31.4141    0.2384   25.0641 H   0  0  0  0  0  0
   31.7351   -1.3502   23.2104 H   0  0  0  0  0  0
   33.4938   -4.1609   25.9240 H   0  0  0  0  0  0
   33.1606   -2.5893   27.7910 H   0  0  0  0  0  0
   32.4794   -3.4541   22.5916 H   0  0  0  0  0  0
   30.6764    2.2786   29.0223 H   0  0  0  0  0  0
   29.2541    1.3629   29.3211 H   0  0  0  0  0  0
   30.5285    1.1884   31.3393 H   0  0  0  0  0  0
   30.8606   -0.3620   30.5597 H   0  0  0  0  0  0
   32.0417    0.9324   30.4862 H   0  0  0  0  0  0
   28.2066    0.5637   26.4330 H   0  0  0  0  0  0
   26.5797   -1.2834   26.0729 H   0  0  0  0  0  0
   29.0691   -3.8052   28.4822 H   0  0  0  0  0  0
   26.1192   -3.5780   26.4558 H   0  0  0  0  0  0
  1  2  1  0  0  0
  1 23  1  0  0  0
  1 24  1  0  0  0
  1 25  1  0  0  0
  2  3  1  0  0  0
  2 26  1  0  0  0
  2 27  1  0  0  0
  3 21  1  0  0  0
  3  4  1  0  0  0
  3 11  1  0  0  0
  4  9  1  0  0  0
  4  5  2  0  0  0
  5  6  1  0  0  0
  5 28  1  0  0  0
  6  7  2  0  0  0
  6 29  1  0  0  0
  7  8  1  0  0  0
  7 10  1  0  0  0
  8  9  2  0  0  0
  8 30  1  0  0  0
  9 31  1  0  0  0
 10 32  1  0  0  0
 11 22  1  0  0  0
 11 12  1  0  0  0
 11 14  1  0  0  0
 12 13  1  0  0  0
 12 33  1  0  0  0
 12 34  1  0  0  0
 13 35  1  0  0  0
 13 36  1  0  0  0
 13 37  1  0  0  0
 14 19  1  0  0  0
 14 15  2  0  0  0
 15 16  1  0  0  0
 15 38  1  0  0  0
 16 17  2  0  0  0
 16 39  1  0  0  0
 17 18  1  0  0  0
 17 20  1  0  0  0
 18 19  2  0  0  0
 18 40  1  0  0  0
 20 41  1  0  0  0
M  END
> <s_m_entry_id>
17389

> <s_m_entry_name>
ligand_docking-pose.316

> <s_m_Source_Path>
/home/csk/Desktop/cluster/DUD-E-result/esr1

> <s_m_Source_File>
ligand_docking-pose.sdf

> <i_m_Source_File_Index>
316

> <i_lp_mmshare_version>
53161

> <i_f3d_flags>
0

> <r_lp_tautomer_probability>
0.43657999999885

> <s_lp_Force_Field>
OPLS_2005

> <r_lp_Energy>
9.639086

> <b_lp_Chiralities_Consistent>
1

> <s_lp_Variant>
561008-2

> <s_i_glide_gridfile>
glide-grid_1sj0

> <i_i_glide_lignum>
1503

> <i_i_glide_rotatable_bonds>
7

> <r_i_docking_score>
-8.5352405384014

> <r_i_glide_ligand_efficiency>
-0.42676202692007

> <r_i_glide_ligand_efficiency_sa>
-1.15841036280883

> <r_i_glide_ligand_efficiency_ln>
-2.13608919568822

> <r_i_glide_gscore>
-8.5352405384014

> <r_i_glide_lipo>
-4.25765144169879

> <r_i_glide_hbond>
-0.16

> <r_i_glide_metal>
0

> <r_i_glide_rewards>
-2.42103057493473

> <r_i_glide_evdw>
-36.2944030761719

> <r_i_glide_ecoul>
-4.0748872756958

> <r_i_glide_erotb>
0.729394723395079

> <r_i_glide_esite>
0

> <r_i_glide_emodel>
-58.9267906077301

> <r_i_glide_energy>
-40.3692903518677

> <r_i_glide_einternal>
6.80305910110474

> <i_i_glide_confnum>
6

> <i_i_glide_posenum>
127

> <r_i_glide_eff_state_penalty>
0

> <s_user_duplicate_titles>
561008

> <s_m_subgroup_title>
dock_pv

> <s_m_subgroupid>
dock_pv1

> <b_m_subgroup_collapsed>
0

$$$$
120986
                    3D
 Schrodinger Suite 2021-1.
 35 37  0  0  1  0            999 V2000
   28.1794   -2.0354   27.4606 C   0  0  0  0  0  0
   29.6995   -2.1419   27.2606 C   0  0  0  0  0  0
   30.3276   -0.8890   26.5986 C   0  0  2  0  0  0
   31.8164   -1.1750   26.1948 C   0  0  0  0  0  0
   32.7491   -0.7799   26.9778 N   0  0  0  0  0  0
   32.4538   -0.1325   28.1756 C   0  0  0  0  0  0
   33.4831    0.0480   29.0994 C   0  0  0  0  0  0
   33.2042    0.6576   30.3227 C   0  0  0  0  0  0
   31.9144    1.0966   30.6150 C   0  0  0  0  0  0
   30.8967    0.9882   29.6669 C   0  0  0  0  0  0
   31.1775    0.3684   28.4526 C   0  0  0  0  0  0
   30.1792    0.2366   27.5068 O   0  0  0  0  0  0
   31.6600    1.6322   31.8428 O   0  0  0  0  0  0
   32.1178   -1.9519   24.9775 C   0  0  0  0  0  0
   33.1037   -2.9441   25.0275 C   0  0  0  0  0  0
   33.3504   -3.7410   23.9154 C   0  0  0  0  0  0
   32.6306   -3.5596   22.7448 C   0  0  0  0  0  0
   31.6805   -2.5488   22.6651 C   0  0  0  0  0  0
   31.4239   -1.7419   23.7788 C   0  0  0  0  0  0
   32.8603   -4.4046   21.6910 O   0  0  0  0  0  0
   27.7837   -2.9405   27.9230 H   0  0  0  0  0  0
   27.9213   -1.1942   28.1054 H   0  0  0  0  0  0
   27.6621   -1.9005   26.5095 H   0  0  0  0  0  0
   29.9079   -3.0295   26.6643 H   0  0  0  0  0  0
   30.1721   -2.3270   28.2267 H   0  0  0  0  0  0
   29.7578   -0.6392   25.7045 H   0  0  0  0  0  0
   34.4828   -0.3045   28.8870 H   0  0  0  0  0  0
   33.9836    0.7792   31.0560 H   0  0  0  0  0  0
   29.9004    1.3507   29.8685 H   0  0  0  0  0  0
   30.7546    1.9337   31.9376 H   0  0  0  0  0  0
   33.6580   -3.1316   25.9360 H   0  0  0  0  0  0
   34.0600   -4.5425   23.9773 H   0  0  0  0  0  0
   31.1276   -2.4360   21.7468 H   0  0  0  0  0  0
   30.6690   -0.9738   23.6995 H   0  0  0  0  0  0
   32.1084   -4.5949   21.1155 H   0  0  0  0  0  0
  1  2  1  0  0  0
  1 21  1  0  0  0
  1 22  1  0  0  0
  1 23  1  0  0  0
  2  3  1  0  0  0
  2 24  1  0  0  0
  2 25  1  0  0  0
  3 12  1  0  0  0
  3  4  1  0  0  0
  3 26  1  0  0  0
  4  5  2  0  0  0
  4 14  1  0  0  0
  5  6  1  0  0  0
  6 11  2  0  0  0
  6  7  1  0  0  0
  7  8  2  0  0  0
  7 27  1  0  0  0
  8  9  1  0  0  0
  8 28  1  0  0  0
  9 10  2  0  0  0
  9 13  1  0  0  0
 10 11  1  0  0  0
 10 29  1  0  0  0
 11 12  1  0  0  0
 13 30  1  0  0  0
 14 19  1  0  0  0
 14 15  2  0  0  0
 15 16  1  0  0  0
 15 31  1  0  0  0
 16 17  2  0  0  0
 16 32  1  0  0  0
 17 18  1  0  0  0
 17 20  1  0  0  0
 18 19  2  0  0  0
 18 33  1  0  0  0
 19 34  1  0  0  0
 20 35  1  0  0  0
M  END
> <s_m_entry_id>
17390

> <s_m_entry_name>
ligand_docking-pose.317

> <s_m_Source_Path>
/home/csk/Desktop/cluster/DUD-E-result/esr1

> <s_m_Source_File>
ligand_docking-pose.sdf

> <i_m_Source_File_Index>
317

> <i_lp_mmshare_version>
53161

> <i_f3d_flags>
0

> <r_lp_tautomer_probability>
0.999601159137504

> <s_lp_Force_Field>
OPLS_2005

> <r_lp_Energy>
21.444623

> <b_lp_Chiralities_Consistent>
1

> <s_lp_Variant>
120986-1

> <s_i_glide_gridfile>
glide-grid_1sj0

> <i_i_glide_lignum>
1176

> <i_i_glide_rotatable_bonds>
4

> <r_i_docking_score>
-8.52784440604376

> <r_i_glide_ligand_efficiency>
-0.426392220302188

> <r_i_glide_ligand_efficiency_sa>
-1.15740655321152

> <r_i_glide_ligand_efficiency_ln>
-2.13423818769987

> <r_i_glide_gscore>
-8.52784440604376

> <r_i_glide_lipo>
-3.93228275468045

> <r_i_glide_hbond>
-0.074054809266314

> <r_i_glide_metal>
0

> <r_i_glide_rewards>
-2.80012265977617

> <r_i_glide_evdw>
-32.2454223632812

> <r_i_glide_ecoul>
-2.36979627609253

> <r_i_glide_erotb>
0.246356377257121

> <r_i_glide_esite>
0

> <r_i_glide_emodel>
-50.3880583910844

> <r_i_glide_energy>
-34.6152186393738

> <r_i_glide_einternal>
2.68634963035583

> <i_i_glide_confnum>
2

> <i_i_glide_posenum>
67

> <r_i_glide_eff_state_penalty>
0

> <s_user_duplicate_titles>
120986

> <s_m_subgroup_title>
dock_pv

> <s_m_subgroupid>
dock_pv1

> <b_m_subgroup_collapsed>
0

$$$$
124952
                    3D
 Schrodinger Suite 2021-1.
 39 42  0  0  1  0            999 V2000
   27.8813   -1.6793   26.2760 C   0  0  0  0  0  0
   28.9663   -0.8469   25.5513 C   0  0  0  0  0  0
   30.2093   -0.5867   26.3808 C   0  0  0  0  0  0
   31.4944   -1.0309   26.2614 C   0  0  0  0  0  0
   32.2534   -0.5895   27.4215 C   0  0  0  0  0  0
   33.4327   -0.5112   28.1736 C   0  0  0  0  0  0
   33.2105    0.2214   29.3563 C   0  0  0  0  0  0
   31.8622    0.6626   29.3051 C   0  0  0  0  0  0
   31.3768    0.1246   28.1307 N   0  0  0  0  0  0
   30.1582    0.2652   27.5772 C   0  0  0  0  0  0
   29.2610    1.1182   28.2271 C   0  0  0  0  0  0
   29.6599    1.6411   29.4638 C   0  0  0  0  0  0
   30.9313    1.4219   30.0291 C   0  0  0  0  0  0
   27.9404    1.5946   27.6282 C   0  0  0  0  0  0
   26.8603    0.7268   27.8594 O   0  0  0  0  0  0
   32.0717   -1.8172   25.1574 C   0  0  0  0  0  0
   31.6903   -1.6065   23.8281 C   0  0  0  0  0  0
   32.2669   -2.3473   22.8017 C   0  0  0  0  0  0
   33.2598   -3.2714   23.0925 C   0  0  0  0  0  0
   33.6606   -3.4696   24.4096 C   0  0  0  0  0  0
   33.0549   -2.7651   25.4396 C   0  0  0  0  0  0
   33.8493   -3.9607   22.0684 O   0  0  0  0  0  0
   26.8982   -1.5191   25.8331 H   0  0  0  0  0  0
   28.0600   -2.7507   26.2641 H   0  0  0  0  0  0
   27.8173   -1.4361   27.3333 H   0  0  0  0  0  0
   28.5642    0.1058   25.2113 H   0  0  0  0  0  0
   29.2601   -1.3792   24.6599 H   0  0  0  0  0  0
   34.3788   -0.9415   27.8901 H   0  0  0  0  0  0
   33.9496    0.4220   30.1179 H   0  0  0  0  0  0
   28.9527    2.2578   29.9859 H   0  0  0  0  0  0
   31.2011    1.8587   30.9789 H   0  0  0  0  0  0
   27.6643    2.5531   28.0688 H   0  0  0  0  0  0
   28.0571    1.7726   26.5601 H   0  0  0  0  0  0
   26.0875    1.0620   27.3935 H   0  0  0  0  0  0
   30.9754   -0.8416   23.5714 H   0  0  0  0  0  0
   31.9679   -2.1839   21.7771 H   0  0  0  0  0  0
   34.4571   -4.1470   24.6587 H   0  0  0  0  0  0
   33.3726   -2.9388   26.4572 H   0  0  0  0  0  0
   34.4088   -4.6880   22.3474 H   0  0  0  0  0  0
  1  2  1  0  0  0
  1 23  1  0  0  0
  1 24  1  0  0  0
  1 25  1  0  0  0
  2  3  1  0  0  0
  2 26  1  0  0  0
  2 27  1  0  0  0
  3 10  1  0  0  0
  3  4  2  0  0  0
  4  5  1  0  0  0
  4 16  1  0  0  0
  5  9  1  0  0  0
  5  6  2  0  0  0
  6  7  1  0  0  0
  6 28  1  0  0  0
  7  8  2  0  0  0
  7 29  1  0  0  0
  8 13  1  0  0  0
  8  9  1  0  0  0
  9 10  1  0  0  0
 10 11  2  0  0  0
 11 12  1  0  0  0
 11 14  1  0  0  0
 12 13  2  0  0  0
 12 30  1  0  0  0
 13 31  1  0  0  0
 14 15  1  0  0  0
 14 32  1  0  0  0
 14 33  1  0  0  0
 15 34  1  0  0  0
 16 21  1  0  0  0
 16 17  2  0  0  0
 17 18  1  0  0  0
 17 35  1  0  0  0
 18 19  2  0  0  0
 18 36  1  0  0  0
 19 20  1  0  0  0
 19 22  1  0  0  0
 20 21  2  0  0  0
 20 37  1  0  0  0
 21 38  1  0  0  0
 22 39  1  0  0  0
M  END
> <s_m_entry_id>
17391

> <s_m_entry_name>
ligand_docking-pose.318

> <s_m_Source_Path>
/home/csk/Desktop/cluster/DUD-E-result/esr1

> <s_m_Source_File>
ligand_docking-pose.sdf

> <i_m_Source_File_Index>
318

> <i_lp_mmshare_version>
53161

> <i_f3d_flags>
0

> <r_lp_tautomer_probability>
1

> <s_lp_Force_Field>
OPLS_2005

> <r_lp_Energy>
60.975631

> <b_lp_Chiralities_Consistent>
1

> <s_lp_Variant>
124952-1

> <s_i_glide_gridfile>
glide-grid_1sj0

> <i_i_glide_lignum>
1126

> <i_i_glide_rotatable_bonds>
5

> <r_i_docking_score>
-8.5237716121297

> <r_i_glide_ligand_efficiency>
-0.387444164187714

> <r_i_glide_ligand_efficiency_sa>
-1.0856337853683

> <r_i_glide_ligand_efficiency_ln>
-2.08352069412836

> <r_i_glide_gscore>
-8.5237716121297

> <r_i_glide_lipo>
-5.02498239023223

> <r_i_glide_hbond>
-0.168031444191377

> <r_i_glide_metal>
0

> <r_i_glide_rewards>
-2.16502154491585

> <r_i_glide_evdw>
-31.5999946594238

> <r_i_glide_ecoul>
-0.103348940610886

> <r_i_glide_erotb>
0.42976584127258

> <r_i_glide_esite>
0

> <r_i_glide_emodel>
-45.8415306887059

> <r_i_glide_energy>
-31.7033436000347

> <r_i_glide_einternal>
0.681210398674011

> <i_i_glide_confnum>
7

> <i_i_glide_posenum>
274

> <r_i_glide_eff_state_penalty>
0

> <s_user_duplicate_titles>
124952

> <s_m_subgroup_title>
dock_pv

> <s_m_subgroupid>
dock_pv1

> <b_m_subgroup_collapsed>
0

$$$$
351066
                    3D
 Schrodinger Suite 2021-1.
 48 50  0  0  1  0            999 V2000
   26.3726   -3.2961   28.0611 C   0  0  0  0  0  0
   26.1882   -1.7779   27.8902 C   0  0  0  0  0  0
   27.2985   -1.0761   27.0829 C   0  0  0  0  0  0
   28.7343   -1.3172   27.6118 C   0  0  0  0  0  0
   29.8653   -0.3934   27.0424 C   0  0  1  0  0  0
   29.6848    1.1001   27.4228 C   0  0  0  0  0  0
   29.7719    1.3253   28.9419 C   0  0  0  0  0  0
   31.0003    0.6571   29.5870 C   0  0  0  0  0  0
   31.2884    0.9408   30.7504 O   0  0  0  0  0  0
   31.6960   -0.4110   28.8136 C   0  0  0  0  0  0
   31.2190   -0.8570   27.6132 C   0  0  0  0  0  0
   31.7951   -1.7851   26.5976 C   0  0  0  0  0  0
   32.8597   -2.6931   26.6320 C   0  0  0  0  0  0
   33.2628   -3.3420   25.4634 C   0  0  0  0  0  0
   32.6753   -3.0482   24.2423 C   0  0  0  0  0  0
   31.6314   -2.1372   24.1954 C   0  0  0  0  0  0
   31.1551   -1.5619   25.3764 C   0  0  0  0  0  0
   30.0295   -0.5935   25.5313 C   0  0  0  0  0  0
   33.1160   -3.6740   23.1073 O   0  0  0  0  0  0
   32.9783   -0.9420   29.4762 C   0  0  0  0  0  0
   34.2954   -0.3495   28.9349 C   0  0  0  0  0  0
   34.4604    1.1554   29.1936 C   0  0  0  0  0  0
   25.5132   -3.7385   28.5657 H   0  0  0  0  0  0
   27.2574   -3.5386   28.6498 H   0  0  0  0  0  0
   26.4686   -3.7901   27.0937 H   0  0  0  0  0  0
   25.2435   -1.6027   27.3764 H   0  0  0  0  0  0
   26.0815   -1.3049   28.8669 H   0  0  0  0  0  0
   27.2225   -1.4087   26.0477 H   0  0  0  0  0  0
   27.0759   -0.0101   27.0699 H   0  0  0  0  0  0
   28.7198   -1.2446   28.6976 H   0  0  0  0  0  0
   28.9944   -2.3586   27.4108 H   0  0  0  0  0  0
   30.4569    1.7050   26.9423 H   0  0  0  0  0  0
   28.7402    1.4884   27.0423 H   0  0  0  0  0  0
   28.8958    0.8747   29.4037 H   0  0  0  0  0  0
   29.7609    2.3845   29.1905 H   0  0  0  0  0  0
   33.3904   -2.9268   27.5378 H   0  0  0  0  0  0
   34.0593   -4.0672   25.4785 H   0  0  0  0  0  0
   31.1633   -1.9106   23.2498 H   0  0  0  0  0  0
   29.1169   -0.9479   25.0635 H   0  0  0  0  0  0
   30.2978    0.3318   25.0466 H   0  0  0  0  0  0
   32.5706   -3.5119   22.3343 H   0  0  0  0  0  0
   32.9616   -0.8436   30.5633 H   0  0  0  0  0  0
   32.9903   -2.0216   29.3526 H   0  0  0  0  0  0
   35.1348   -0.8782   29.3895 H   0  0  0  0  0  0
   34.3716   -0.5369   27.8641 H   0  0  0  0  0  0
   35.4337    1.5049   28.8485 H   0  0  0  0  0  0
   33.7024    1.7340   28.6651 H   0  0  0  0  0  0
   34.3832    1.3881   30.2566 H   0  0  0  0  0  0
  1  2  1  0  0  0
  1 23  1  0  0  0
  1 24  1  0  0  0
  1 25  1  0  0  0
  2  3  1  0  0  0
  2 26  1  0  0  0
  2 27  1  0  0  0
  3  4  1  0  0  0
  3 28  1  0  0  0
  3 29  1  0  0  0
  4  5  1  0  0  0
  4 30  1  0  0  0
  4 31  1  0  0  0
  5 11  1  0  0  0
  5 18  1  0  0  0
  5  6  1  0  0  0
  6  7  1  0  0  0
  6 32  1  0  0  0
  6 33  1  0  0  0
  7  8  1  0  0  0
  7 34  1  0  0  0
  7 35  1  0  0  0
  8  9  2  0  0  0
  8 10  1  0  0  0
 10 11  2  0  0  0
 10 20  1  0  0  0
 11 12  1  0  0  0
 12 17  1  0  0  0
 12 13  2  0  0  0
 13 14  1  0  0  0
 13 36  1  0  0  0
 14 15  2  0  0  0
 14 37  1  0  0  0
 15 16  1  0  0  0
 15 19  1  0  0  0
 16 17  2  0  0  0
 16 38  1  0  0  0
 17 18  1  0  0  0
 18 39  1  0  0  0
 18 40  1  0  0  0
 19 41  1  0  0  0
 20 21  1  0  0  0
 20 42  1  0  0  0
 20 43  1  0  0  0
 21 22  1  0  0  0
 21 44  1  0  0  0
 21 45  1  0  0  0
 22 46  1  0  0  0
 22 47  1  0  0  0
 22 48  1  0  0  0
M  END
> <s_m_entry_id>
17392

> <s_m_entry_name>
ligand_docking-pose.319

> <s_m_Source_Path>
/home/csk/Desktop/cluster/DUD-E-result/esr1

> <s_m_Source_File>
ligand_docking-pose.sdf

> <i_m_Source_File_Index>
319

> <i_lp_mmshare_version>
53161

> <i_f3d_flags>
0

> <r_lp_tautomer_probability>
1

> <s_lp_Force_Field>
OPLS_2005

> <r_lp_Energy>
25.189394

> <b_lp_Chiralities_Consistent>
1

> <s_lp_Variant>
351066-2

> <s_i_glide_gridfile>
glide-grid_1sj0

> <i_i_glide_lignum>
1351

> <i_i_glide_rotatable_bonds>
6

> <r_i_docking_score>
-8.52206709825212

> <r_i_glide_ligand_efficiency>
-0.387366686284187

> <r_i_glide_ligand_efficiency_sa>
-1.08541668923558

> <r_i_glide_ligand_efficiency_ln>
-2.08310404876302

> <r_i_glide_gscore>
-8.52206709825212

> <r_i_glide_lipo>
-4.62934211483509

> <r_i_glide_hbond>
0

> <r_i_glide_metal>
0

> <r_i_glide_rewards>
-2.5979606396855

> <r_i_glide_evdw>
-38.9138221740723

> <r_i_glide_ecoul>
0.218261793255806

> <r_i_glide_erotb>
0.618187495983705

> <r_i_glide_esite>
0

> <r_i_glide_emodel>
-55.5678068147396

> <r_i_glide_energy>
-38.6955603808165

> <r_i_glide_einternal>
1.63729465007782

> <i_i_glide_confnum>
11

> <i_i_glide_posenum>
359

> <r_i_glide_eff_state_penalty>
0

> <s_user_duplicate_titles>
351066

> <s_m_subgroup_title>
dock_pv

> <s_m_subgroupid>
dock_pv1

> <b_m_subgroup_collapsed>
0

$$$$
364527
                    3D
 Schrodinger Suite 2021-1.
 47 49  0  0  1  0            999 V2000
   34.0570    2.0629   26.9117 C   0  0  0  0  0  0
   35.2037    2.0387   27.9359 C   0  0  0  0  0  0
   34.9032    1.1830   29.1805 C   0  0  0  0  0  0
   34.8461   -0.3443   28.9102 C   0  0  0  0  0  0
   33.5509   -1.1153   29.2592 C   0  0  0  0  0  0
   32.2526   -0.3231   29.0831 C   0  0  0  0  0  0
   31.7747    0.4669   30.1364 C   0  0  0  0  0  0
   30.6423    1.2408   29.9708 C   0  0  0  0  0  0
   29.9486    1.2320   28.7724 C   0  0  0  0  0  0
   30.3723    0.4278   27.7067 C   0  0  0  0  0  0
   31.5354   -0.3465   27.8745 C   0  0  0  0  0  0
   32.0706   -1.0944   26.8428 O   0  0  0  0  0  0
   31.1551   -1.5719   25.8453 C   0  0  1  0  0  0
   30.2671   -0.4292   25.3286 C   0  0  0  0  0  0
   29.5761    0.3062   26.4544 C   0  0  0  0  0  0
   28.4591    0.8050   26.3257 O   0  0  0  0  0  0
   31.9386   -2.2315   24.7115 C   0  0  0  0  0  0
   32.9548   -3.1260   25.0264 C   0  0  0  0  0  0
   33.6601   -3.7422   24.0039 C   0  0  0  0  0  0
   33.3746   -3.4822   22.6686 C   0  0  0  0  0  0
   32.3695   -2.5904   22.3455 C   0  0  0  0  0  0
   31.6595   -1.9716   23.3627 C   0  0  0  0  0  0
   34.0610   -4.0973   21.6576 O   0  0  0  0  0  0
   28.8598    2.0467   28.6643 O   0  0  0  0  0  0
   32.4337    0.5529   31.3323 O   0  0  0  0  0  0
   30.5375   -2.3630   26.2785 H   0  0  0  0  0  0
   34.3264    2.6580   26.0399 H   0  0  0  0  0  0
   33.1502    2.4885   27.3422 H   0  0  0  0  0  0
   33.8169    1.0624   26.5521 H   0  0  0  0  0  0
   36.1147    1.6849   27.4530 H   0  0  0  0  0  0
   35.4140    3.0571   28.2637 H   0  0  0  0  0  0
   35.6638    1.3797   29.9299 H   0  0  0  0  0  0
   34.0000    1.5677   29.6341 H   0  0  0  0  0  0
   35.0521   -0.5181   27.8641 H   0  0  0  0  0  0
   35.6826   -0.8262   29.4191 H   0  0  0  0  0  0
   33.5079   -2.0306   28.6667 H   0  0  0  0  0  0
   33.6106   -1.4826   30.2789 H   0  0  0  0  0  0
   30.3021    1.8576   30.7865 H   0  0  0  0  0  0
   30.9092    0.2580   24.7881 H   0  0  0  0  0  0
   29.4939   -0.8462   24.6840 H   0  0  0  0  0  0
   33.1919   -3.3525   26.0560 H   0  0  0  0  0  0
   34.4252   -4.4442   24.2691 H   0  0  0  0  0  0
   32.1267   -2.4019   21.3100 H   0  0  0  0  0  0
   30.8662   -1.3127   23.0650 H   0  0  0  0  0  0
   34.6208   -4.8307   21.9236 H   0  0  0  0  0  0
   28.4276    1.9045   27.8145 H   0  0  0  0  0  0
   33.2553    0.0569   31.3189 H   0  0  0  0  0  0
  1  2  1  0  0  0
  1 27  1  0  0  0
  1 28  1  0  0  0
  1 29  1  0  0  0
  2  3  1  0  0  0
  2 30  1  0  0  0
  2 31  1  0  0  0
  3  4  1  0  0  0
  3 32  1  0  0  0
  3 33  1  0  0  0
  4  5  1  0  0  0
  4 34  1  0  0  0
  4 35  1  0  0  0
  5  6  1  0  0  0
  5 36  1  0  0  0
  5 37  1  0  0  0
  6 11  1  0  0  0
  6  7  2  0  0  0
  7  8  1  0  0  0
  7 25  1  0  0  0
  8  9  2  0  0  0
  8 38  1  0  0  0
  9 10  1  0  0  0
  9 24  1  0  0  0
 10 15  1  0  0  0
 10 11  2  0  0  0
 11 12  1  0  0  0
 12 13  1  0  0  0
 13 26  1  0  0  0
 13 14  1  0  0  0
 13 17  1  0  0  0
 14 15  1  0  0  0
 14 39  1  0  0  0
 14 40  1  0  0  0
 15 16  2  0  0  0
 17 22  1  0  0  0
 17 18  2  0  0  0
 18 19  1  0  0  0
 18 41  1  0  0  0
 19 20  2  0  0  0
 19 42  1  0  0  0
 20 21  1  0  0  0
 20 23  1  0  0  0
 21 22  2  0  0  0
 21 43  1  0  0  0
 22 44  1  0  0  0
 23 45  1  0  0  0
 24 46  1  0  0  0
 25 47  1  0  0  0
M  END
> <s_m_entry_id>
17393

> <s_m_entry_name>
ligand_docking-pose.320

> <s_m_Source_Path>
/home/csk/Desktop/cluster/DUD-E-result/esr1

> <s_m_Source_File>
ligand_docking-pose.sdf

> <i_m_Source_File_Index>
320

> <i_lp_mmshare_version>
53161

> <i_f3d_flags>
0

> <r_lp_tautomer_probability>
0.999949999997365

> <s_lp_Force_Field>
OPLS_2005

> <r_lp_Energy>
25.155954

> <b_lp_Chiralities_Consistent>
1

> <s_lp_Variant>
364527-1

> <s_i_glide_gridfile>
glide-grid_1sj0

> <i_i_glide_lignum>
1423

> <i_i_glide_rotatable_bonds>
8

> <r_i_docking_score>
-8.51953125750027

> <r_i_glide_ligand_efficiency>
-0.340781250300011

> <r_i_glide_ligand_efficiency_sa>
-0.99645041965844

> <r_i_glide_ligand_efficiency_ln>
-2.01938421777712

> <r_i_glide_gscore>
-8.51953125750027

> <r_i_glide_lipo>
-4.81376502699488

> <r_i_glide_hbond>
-0.083888387366997

> <r_i_glide_metal>
0

> <r_i_glide_rewards>
-2.11913542022697

> <r_i_glide_evdw>
-38.3489646911621

> <r_i_glide_ecoul>
-1.54867899417877

> <r_i_glide_erotb>
0.647007660773498

> <r_i_glide_esite>
0

> <r_i_glide_emodel>
-55.3774199826441

> <r_i_glide_energy>
-39.8976436853409

> <r_i_glide_einternal>
5.80908346176147

> <i_i_glide_confnum>
6

> <i_i_glide_posenum>
346

> <r_i_glide_eff_state_penalty>
0

> <s_user_duplicate_titles>
364527

> <s_m_subgroup_title>
dock_pv

> <s_m_subgroupid>
dock_pv1

> <b_m_subgroup_collapsed>
0

$$$$
373264
                    3D
 Schrodinger Suite 2021-1.
 38 41  0  0  1  0            999 V2000
   33.5199    0.1806   29.1998 C   0  0  0  0  0  0
   33.4336   -0.4755   27.9715 C   0  0  0  0  0  0
   32.1711   -0.7473   27.4227 C   0  0  0  0  0  0
   31.0250   -0.3778   28.1681 C   0  0  0  0  0  0
   31.1004    0.3201   29.3813 C   0  0  0  0  0  0
   32.3735    0.5768   29.8829 C   0  0  0  0  0  0
   32.4943    1.2246   31.0797 O   0  0  0  0  0  0
   29.9681   -0.8740   27.4316 N   0  0  0  0  0  0
   30.3463   -1.3826   26.2639 N   0  0  0  0  0  0
   31.6371   -1.3429   26.2228 C   0  0  0  0  0  0
   32.2711   -1.9927   25.0584 C   0  0  0  0  0  0
   31.9256   -1.6289   23.7495 C   0  0  0  0  0  0
   32.4108   -2.3630   22.6640 C   0  0  0  0  0  0
   33.3074   -3.4000   22.8762 C   0  0  0  0  0  0
   33.6600   -3.7390   24.1730 C   0  0  0  0  0  0
   33.0935   -3.0943   25.2614 C   0  0  0  0  0  0
   33.2600   -3.6238   26.5113 O   0  0  0  0  0  0
   33.8127   -4.1154   21.8276 O   0  0  0  0  0  0
   28.6081   -0.8313   27.6462 C   0  0  0  0  0  0
   27.9152   -2.0290   27.8520 C   0  0  0  0  0  0
   26.5248   -2.0179   27.8640 C   0  0  0  0  0  0
   25.8483   -0.8232   27.6331 C   0  0  0  0  0  0
   26.5559    0.3625   27.4640 C   0  0  0  0  0  0
   27.9350    0.3718   27.4640 C   0  0  0  0  0  0
   28.7637    1.8580   27.1732 Cl  0  0  0  0  0  0
   25.6600   -3.4550   28.2640 Cl  0  0  0  0  0  0
   34.4962    0.3843   29.6164 H   0  0  0  0  0  0
   34.3311   -0.7714   27.4640 H   0  0  0  0  0  0
   30.2218    0.6508   29.9133 H   0  0  0  0  0  0
   33.4122    1.3577   31.3226 H   0  0  0  0  0  0
   31.2346   -0.8163   23.5784 H   0  0  0  0  0  0
   32.0921   -2.1420   21.6576 H   0  0  0  0  0  0
   34.3362   -4.5420   24.3376 H   0  0  0  0  0  0
   33.7033   -4.4721   26.4697 H   0  0  0  0  0  0
   33.3252   -3.9899   21.0098 H   0  0  0  0  0  0
   28.4480   -2.9609   27.9839 H   0  0  0  0  0  0
   24.7778   -0.7862   27.6159 H   0  0  0  0  0  0
   26.0600    1.3057   27.3503 H   0  0  0  0  0  0
  1  6  1  0  0  0
  1  2  2  0  0  0
  1 27  1  0  0  0
  2  3  1  0  0  0
  2 28  1  0  0  0
  3 10  1  0  0  0
  3  4  2  0  0  0
  4  5  1  0  0  0
  4  8  1  0  0  0
  5  6  2  0  0  0
  5 29  1  0  0  0
  6  7  1  0  0  0
  7 30  1  0  0  0
  8  9  1  0  0  0
  8 19  1  0  0  0
  9 10  2  0  0  0
 10 11  1  0  0  0
 11 16  1  0  0  0
 11 12  2  0  0  0
 12 13  1  0  0  0
 12 31  1  0  0  0
 13 14  2  0  0  0
 13 32  1  0  0  0
 14 15  1  0  0  0
 14 18  1  0  0  0
 15 16  2  0  0  0
 15 33  1  0  0  0
 16 17  1  0  0  0
 17 34  1  0  0  0
 18 35  1  0  0  0
 19 24  1  0  0  0
 19 20  2  0  0  0
 20 21  1  0  0  0
 20 36  1  0  0  0
 21 22  2  0  0  0
 21 26  1  0  0  0
 22 23  1  0  0  0
 22 37  1  0  0  0
 23 24  2  0  0  0
 23 38  1  0  0  0
 24 25  1  0  0  0
M  END
> <s_m_entry_id>
17394

> <s_m_entry_name>
ligand_docking-pose.321

> <s_m_Source_Path>
/home/csk/Desktop/cluster/DUD-E-result/esr1

> <s_m_Source_File>
ligand_docking-pose.sdf

> <i_m_Source_File_Index>
321

> <i_lp_mmshare_version>
53161

> <i_f3d_flags>
0

> <r_lp_tautomer_probability>
0.999999999898

> <s_lp_Force_Field>
OPLS_2005

> <r_lp_Energy>
19.716567

> <b_lp_Chiralities_Consistent>
1

> <s_lp_Variant>
373264-1

> <s_i_glide_gridfile>
glide-grid_1sj0

> <i_i_glide_lignum>
32

> <i_i_glide_rotatable_bonds>
5

> <r_i_docking_score>
-8.51733862659132

> <r_i_glide_ligand_efficiency>
-0.327589947176589

> <r_i_glide_ligand_efficiency_sa>
-0.970483929506447

> <r_i_glide_ligand_efficiency_ln>
-2.00026902878742

> <r_i_glide_gscore>
-8.51733862659132

> <r_i_glide_lipo>
-4.89532541255977

> <r_i_glide_hbond>
-0.0926568116367837

> <r_i_glide_metal>
0

> <r_i_glide_rewards>
-1.70689872513653

> <r_i_glide_evdw>
-40.0658416748047

> <r_i_glide_ecoul>
-0.52597051858902

> <r_i_glide_erotb>
0.259729984270355

> <r_i_glide_esite>
0

> <r_i_glide_emodel>
-40.1736280337521

> <r_i_glide_energy>
-40.5918121933937

> <r_i_glide_einternal>
5.57892370223999

> <i_i_glide_confnum>
15

> <i_i_glide_posenum>
1

> <r_i_glide_eff_state_penalty>
0

> <s_user_duplicate_titles>
373264

> <s_m_subgroup_title>
dock_pv

> <s_m_subgroupid>
dock_pv1

> <b_m_subgroup_collapsed>
0

$$$$
350764
                    3D
 Schrodinger Suite 2021-1.
 42 44  0  0  1  0            999 V2000
   28.9325    0.8317   26.4418 C   0  0  0  0  0  0
   30.0053    0.6814   27.5258 C   0  0  0  0  0  0
   31.1213   -0.0833   27.4112 C   0  0  0  0  0  0
   31.5972   -0.9164   26.2871 C   0  0  0  0  0  0
   31.2378   -0.9420   24.9331 C   0  0  0  0  0  0
   31.8110   -1.8749   24.0717 C   0  0  0  0  0  0
   32.6970   -2.8246   24.5709 C   0  0  0  0  0  0
   33.0178   -2.8307   25.9271 C   0  0  0  0  0  0
   32.5279   -1.8332   26.7727 C   0  0  0  0  0  0
   32.7851   -1.6176   28.2447 C   0  0  0  0  0  0
   32.1241   -0.2618   28.5679 C   0  0  2  0  0  0
   31.2887   -0.2907   29.8811 C   0  0  0  0  0  0
   30.4826    1.0246   30.0514 C   0  0  0  0  0  0
   29.6653    1.3469   28.7924 C   0  0  0  0  0  0
   28.8600    2.2580   28.8218 O   0  0  0  0  0  0
   33.1519    0.9250   28.6904 C   0  0  0  0  0  0
   34.2255    1.1918   27.6158 C   0  0  0  0  0  0
   35.2709    2.1779   28.1504 C   0  0  0  0  0  0
   33.6600    1.7540   26.2932 C   0  0  0  0  0  0
   33.2600   -3.7420   23.7280 O   0  0  0  0  0  0
   27.9268    0.9085   26.8604 H   0  0  0  0  0  0
   29.1116    1.7354   25.8640 H   0  0  0  0  0  0
   28.8861   -0.0262   25.7761 H   0  0  0  0  0  0
   30.5545   -0.2229   24.5119 H   0  0  0  0  0  0
   31.5527   -1.8650   23.0236 H   0  0  0  0  0  0
   33.6600   -3.6048   26.3060 H   0  0  0  0  0  0
   33.8432   -1.6190   28.5047 H   0  0  0  0  0  0
   32.3265   -2.4209   28.8197 H   0  0  0  0  0  0
   30.6092   -1.1458   29.8640 H   0  0  0  0  0  0
   31.9363   -0.4443   30.7459 H   0  0  0  0  0  0
   31.1710    1.8538   30.1957 H   0  0  0  0  0  0
   29.8336    1.0580   30.9258 H   0  0  0  0  0  0
   33.6723    0.7879   29.6405 H   0  0  0  0  0  0
   32.6225    1.8689   28.7942 H   0  0  0  0  0  0
   34.7578    0.2580   27.4640 H   0  0  0  0  0  0
   34.8600    3.1780   28.2640 H   0  0  0  0  0  0
   36.1129    2.2534   27.4640 H   0  0  0  0  0  0
   35.6600    1.8580   29.1165 H   0  0  0  0  0  0
   32.9213    2.5346   26.4751 H   0  0  0  0  0  0
   34.4407    2.2022   25.6778 H   0  0  0  0  0  0
   33.1889    0.9889   25.6875 H   0  0  0  0  0  0
   32.9218   -3.6883   22.8308 H   0  0  0  0  0  0
  1  2  1  0  0  0
  1 21  1  0  0  0
  1 22  1  0  0  0
  1 23  1  0  0  0
  2 14  1  0  0  0
  2  3  2  0  0  0
  3 11  1  0  0  0
  3  4  1  0  0  0
  4  9  2  0  0  0
  4  5  1  0  0  0
  5  6  2  0  0  0
  5 24  1  0  0  0
  6  7  1  0  0  0
  6 25  1  0  0  0
  7  8  2  0  0  0
  7 20  1  0  0  0
  8  9  1  0  0  0
  8 26  1  0  0  0
  9 10  1  0  0  0
 10 11  1  0  0  0
 10 27  1  0  0  0
 10 28  1  0  0  0
 11 12  1  0  0  0
 11 16  1  0  0  0
 12 13  1  0  0  0
 12 29  1  0  0  0
 12 30  1  0  0  0
 13 14  1  0  0  0
 13 31  1  0  0  0
 13 32  1  0  0  0
 14 15  2  0  0  0
 16 17  1  0  0  0
 16 33  1  0  0  0
 16 34  1  0  0  0
 17 18  1  0  0  0
 17 19  1  0  0  0
 17 35  1  0  0  0
 18 36  1  0  0  0
 18 37  1  0  0  0
 18 38  1  0  0  0
 19 39  1  0  0  0
 19 40  1  0  0  0
 19 41  1  0  0  0
 20 42  1  0  0  0
M  END
> <s_m_entry_id>
17395

> <s_m_entry_name>
ligand_docking-pose.322

> <s_m_Source_Path>
/home/csk/Desktop/cluster/DUD-E-result/esr1

> <s_m_Source_File>
ligand_docking-pose.sdf

> <i_m_Source_File_Index>
322

> <i_lp_mmshare_version>
53161

> <i_f3d_flags>
0

> <r_lp_tautomer_probability>
1

> <s_lp_Force_Field>
OPLS_2005

> <r_lp_Energy>
24.594059

> <b_lp_Chiralities_Consistent>
1

> <s_lp_Variant>
350764-2

> <s_i_glide_gridfile>
glide-grid_1sj0

> <i_i_glide_lignum>
869

> <i_i_glide_rotatable_bonds>
3

> <r_i_docking_score>
-8.5158069529055

> <r_i_glide_ligand_efficiency>
-0.425790347645275

> <r_i_glide_ligand_efficiency_sa>
-1.15577281947028

> <r_i_glide_ligand_efficiency_ln>
-2.13122561020114

> <r_i_glide_gscore>
-8.5158069529055

> <r_i_glide_lipo>
-4.29592192848673

> <r_i_glide_hbond>
0

> <r_i_glide_metal>
0

> <r_i_glide_rewards>
-2.7863580911959

> <r_i_glide_evdw>
-33.1518135070801

> <r_i_glide_ecoul>
-0.137382388114929

> <r_i_glide_erotb>
0.244671100348375

> <r_i_glide_esite>
0

> <r_i_glide_emodel>
-49.3046516549563

> <r_i_glide_energy>
-33.289195895195

> <r_i_glide_einternal>
0.348179548978806

> <i_i_glide_confnum>
1

> <i_i_glide_posenum>
317

> <r_i_glide_eff_state_penalty>
0

> <s_user_duplicate_titles>
350764

> <s_m_subgroup_title>
dock_pv

> <s_m_subgroupid>
dock_pv1

> <b_m_subgroup_collapsed>
0

$$$$
341323
                    3D
 Schrodinger Suite 2021-1.
 45 47  0  0  1  0            999 V2000
   34.4142   -1.1230   29.2141 C   0  0  0  0  0  0
   32.9951   -0.6093   29.2769 C   0  0  0  0  0  0
   32.6715    0.1304   30.3971 C   0  0  0  0  0  0
   31.4670    0.7866   30.4650 C   0  0  0  0  0  0
   30.5767    0.7634   29.3786 C   0  0  0  0  0  0
   30.8766    0.0216   28.2098 C   0  0  0  0  0  0
   32.0704   -0.7415   28.2194 C   0  0  0  0  0  0
   32.3210   -1.6092   27.0316 C   0  0  0  0  0  0
   32.9509   -2.8511   27.0705 C   0  0  0  0  0  0
   33.1956   -3.5535   25.8934 C   0  0  0  0  0  0
   32.8214   -3.0352   24.6596 C   0  0  0  0  0  0
   32.0897   -1.8452   24.6159 C   0  0  0  0  0  0
   31.7956   -1.1892   25.8125 C   0  0  0  0  0  0
   30.9081   -0.1418   25.7765 O   0  0  0  0  0  0
   30.0095   -0.0575   26.9020 C   0  0  2  0  0  0
   29.2608    1.2402   26.5106 C   0  0  0  0  0  0
   29.0897   -1.3222   26.8802 C   0  0  0  0  0  0
   27.9267   -1.3210   27.8527 C   0  0  0  0  0  0
   26.6312   -1.3001   27.5008 C   0  0  0  0  0  0
   31.5665   -1.2734   23.3189 C   0  0  0  0  0  0
   33.1449   -3.7404   23.5286 O   0  0  0  0  0  0
   29.2601    1.4878   29.5317 C   0  0  0  0  0  0
   31.2167    1.4580   31.6289 O   0  0  0  0  0  0
   35.0891   -0.5675   29.8639 H   0  0  0  0  0  0
   34.4602   -2.1791   29.4679 H   0  0  0  0  0  0
   34.7974   -0.9330   28.2215 H   0  0  0  0  0  0
   33.3676    0.2151   31.2193 H   0  0  0  0  0  0
   33.2627   -3.2838   28.0081 H   0  0  0  0  0  0
   33.6625   -4.5209   25.9445 H   0  0  0  0  0  0
   28.3436    1.4180   27.0629 H   0  0  0  0  0  0
   29.8958    2.1195   26.6045 H   0  0  0  0  0  0
   28.9192    1.1708   25.4768 H   0  0  0  0  0  0
   28.6951   -1.4450   25.8697 H   0  0  0  0  0  0
   29.6612   -2.2280   27.0820 H   0  0  0  0  0  0
   28.1927   -1.3421   28.8977 H   0  0  0  0  0  0
   25.8525   -1.2987   28.2487 H   0  0  0  0  0  0
   26.3260   -1.2878   26.4635 H   0  0  0  0  0  0
   32.0610   -0.3292   23.0749 H   0  0  0  0  0  0
   31.6581   -1.9574   22.4761 H   0  0  0  0  0  0
   30.5073   -1.0486   23.4641 H   0  0  0  0  0  0
   32.7667   -3.3761   22.7268 H   0  0  0  0  0  0
   28.9661    1.4982   30.5762 H   0  0  0  0  0  0
   29.2930    2.5002   29.1280 H   0  0  0  0  0  0
   28.4645    0.9345   29.0548 H   0  0  0  0  0  0
   30.4404    2.0180   31.5727 H   0  0  0  0  0  0
  1  2  1  0  0  0
  1 24  1  0  0  0
  1 25  1  0  0  0
  1 26  1  0  0  0
  2  7  1  0  0  0
  2  3  2  0  0  0
  3  4  1  0  0  0
  3 27  1  0  0  0
  4  5  2  0  0  0
  4 23  1  0  0  0
  5  6  1  0  0  0
  5 22  1  0  0  0
  6 15  1  0  0  0
  6  7  2  0  0  0
  7  8  1  0  0  0
  8 13  2  0  0  0
  8  9  1  0  0  0
  9 10  2  0  0  0
  9 28  1  0  0  0
 10 11  1  0  0  0
 10 29  1  0  0  0
 11 12  2  0  0  0
 11 21  1  0  0  0
 12 13  1  0  0  0
 12 20  1  0  0  0
 13 14  1  0  0  0
 14 15  1  0  0  0
 15 16  1  0  0  0
 15 17  1  0  0  0
 16 30  1  0  0  0
 16 31  1  0  0  0
 16 32  1  0  0  0
 17 18  1  0  0  0
 17 33  1  0  0  0
 17 34  1  0  0  0
 18 19  2  0  0  0
 18 35  1  0  0  0
 19 36  1  0  0  0
 19 37  1  0  0  0
 20 38  1  0  0  0
 20 39  1  0  0  0
 20 40  1  0  0  0
 21 41  1  0  0  0
 22 42  1  0  0  0
 22 43  1  0  0  0
 22 44  1  0  0  0
 23 45  1  0  0  0
M  END
> <s_m_entry_id>
17396

> <s_m_entry_name>
ligand_docking-pose.323

> <s_m_Source_Path>
/home/csk/Desktop/cluster/DUD-E-result/esr1

> <s_m_Source_File>
ligand_docking-pose.sdf

> <i_m_Source_File_Index>
323

> <i_lp_mmshare_version>
53161

> <i_f3d_flags>
0

> <r_lp_tautomer_probability>
0.999999999938865

> <s_lp_Force_Field>
OPLS_2005

> <r_lp_Energy>
31.675138

> <b_lp_Chiralities_Consistent>
1

> <s_lp_Variant>
341323-2

> <s_i_glide_gridfile>
glide-grid_1sj0

> <i_i_glide_lignum>
950

> <i_i_glide_rotatable_bonds>
4

> <r_i_docking_score>
-8.50609988094748

> <r_i_glide_ligand_efficiency>
-0.369830429606412

> <r_i_glide_ligand_efficiency_sa>
-1.05174854580274

> <r_i_glide_ligand_efficiency_ln>
-2.05685208026252

> <r_i_glide_gscore>
-8.50609988094748

> <r_i_glide_lipo>
-5.11899521507007

> <r_i_glide_hbond>
0

> <r_i_glide_metal>
0

> <r_i_glide_rewards>
-2.15048621116708

> <r_i_glide_evdw>
-31.8227233886719

> <r_i_glide_ecoul>
-0.201079830527306

> <r_i_glide_erotb>
0.384679689302353

> <r_i_glide_esite>
0

> <r_i_glide_emodel>
-36.1653252407637

> <r_i_glide_energy>
-32.0238032191992

> <r_i_glide_einternal>
3.16310834884644

> <i_i_glide_confnum>
3

> <i_i_glide_posenum>
222

> <r_i_glide_eff_state_penalty>
0

> <s_user_duplicate_titles>
341323

> <s_m_subgroup_title>
dock_pv

> <s_m_subgroupid>
dock_pv1

> <b_m_subgroup_collapsed>
0

$$$$
373317
                    3D
 Schrodinger Suite 2021-1.
 35 37  0  0  1  0            999 V2000
   34.7265    0.7920   29.1877 C   0  0  0  0  0  0
   33.4293    0.7502   30.0108 C   0  0  0  0  0  0
   32.6099   -0.5434   29.8273 C   0  0  0  0  0  0
   31.9569   -0.5904   28.5198 N   0  0  0  0  0  0
   30.8212    0.0660   28.0729 C   0  0  0  0  0  0
   30.6575   -0.3551   26.7206 C   0  0  0  0  0  0
   29.5346    0.1039   26.0061 C   0  0  0  0  0  0
   28.6607    1.0008   26.6172 C   0  0  0  0  0  0
   28.8595    1.4209   27.9226 C   0  0  0  0  0  0
   29.9241    0.9547   28.6871 C   0  0  0  0  0  0
   30.0795    1.4580   30.3259 Cl  0  0  0  0  0  0
   31.7902   -1.2068   26.4592 C   0  0  0  0  0  0
   32.5261   -1.3081   27.5422 N   0  0  0  0  0  0
   32.1898   -1.9327   25.2026 C   0  0  0  0  0  0
   31.6605   -1.6163   23.9444 C   0  0  0  0  0  0
   32.0225   -2.3576   22.8179 C   0  0  0  0  0  0
   32.9260   -3.4003   22.9331 C   0  0  0  0  0  0
   33.4703   -3.7073   24.1681 C   0  0  0  0  0  0
   33.1011   -2.9905   25.2971 C   0  0  0  0  0  0
   33.2734   -4.1421   21.8388 O   0  0  0  0  0  0
   35.2631    1.7253   29.3605 H   0  0  0  0  0  0
   35.3945   -0.0268   29.4584 H   0  0  0  0  0  0
   34.5274    0.7223   28.1182 H   0  0  0  0  0  0
   32.8202    1.6179   29.7583 H   0  0  0  0  0  0
   33.6608    0.8645   31.0685 H   0  0  0  0  0  0
   31.8448   -0.6405   30.5972 H   0  0  0  0  0  0
   33.2573   -1.4157   29.9407 H   0  0  0  0  0  0
   29.3393   -0.2102   24.9950 H   0  0  0  0  0  0
   27.8129    1.3867   26.0739 H   0  0  0  0  0  0
   28.1544    2.1092   28.3640 H   0  0  0  0  0  0
   30.9730   -0.7976   23.8241 H   0  0  0  0  0  0
   31.6012   -2.1420   21.8498 H   0  0  0  0  0  0
   34.1339   -4.5419   24.2640 H   0  0  0  0  0  0
   33.5187   -3.2812   26.2490 H   0  0  0  0  0  0
   32.6402   -4.1089   21.1151 H   0  0  0  0  0  0
  1  2  1  0  0  0
  1 21  1  0  0  0
  1 22  1  0  0  0
  1 23  1  0  0  0
  2  3  1  0  0  0
  2 24  1  0  0  0
  2 25  1  0  0  0
  3  4  1  0  0  0
  3 26  1  0  0  0
  3 27  1  0  0  0
  4 13  1  0  0  0
  4  5  1  0  0  0
  5 10  2  0  0  0
  5  6  1  0  0  0
  6  7  2  0  0  0
  6 12  1  0  0  0
  7  8  1  0  0  0
  7 28  1  0  0  0
  8  9  2  0  0  0
  8 29  1  0  0  0
  9 10  1  0  0  0
  9 30  1  0  0  0
 10 11  1  0  0  0
 12 13  2  0  0  0
 12 14  1  0  0  0
 14 19  1  0  0  0
 14 15  2  0  0  0
 15 16  1  0  0  0
 15 31  1  0  0  0
 16 17  2  0  0  0
 16 32  1  0  0  0
 17 18  1  0  0  0
 17 20  1  0  0  0
 18 19  2  0  0  0
 18 33  1  0  0  0
 19 34  1  0  0  0
 20 35  1  0  0  0
M  END
> <s_m_entry_id>
17397

> <s_m_entry_name>
ligand_docking-pose.324

> <s_m_Source_Path>
/home/csk/Desktop/cluster/DUD-E-result/esr1

> <s_m_Source_File>
ligand_docking-pose.sdf

> <i_m_Source_File_Index>
324

> <i_lp_mmshare_version>
53161

> <i_f3d_flags>
0

> <r_lp_tautomer_probability>
0.999999999997365

> <s_lp_Force_Field>
OPLS_2005

> <r_lp_Energy>
16.426491

> <b_lp_Chiralities_Consistent>
1

> <s_lp_Variant>
373317-1

> <s_i_glide_gridfile>
glide-grid_1sj0

> <i_i_glide_lignum>
1513

> <i_i_glide_rotatable_bonds>
4

> <r_i_docking_score>
-8.49800878852862

> <r_i_glide_ligand_efficiency>
-0.424900439426431

> <r_i_glide_ligand_efficiency_sa>
-1.1533572369263

> <r_i_glide_ligand_efficiency_ln>
-2.12677131668036

> <r_i_glide_gscore>
-8.49800878852862

> <r_i_glide_lipo>
-4.563524219362

> <r_i_glide_hbond>
0

> <r_i_glide_metal>
0

> <r_i_glide_rewards>
-2.50654513329798

> <r_i_glide_evdw>
-34.7083854675293

> <r_i_glide_ecoul>
-0.895612359046936

> <r_i_glide_erotb>
0.441821691364858

> <r_i_glide_esite>
0

> <r_i_glide_emodel>
-53.0023397509365

> <r_i_glide_energy>
-35.6039978265762

> <r_i_glide_einternal>
1.61237323284149

> <i_i_glide_confnum>
11

> <i_i_glide_posenum>
91

> <r_i_glide_eff_state_penalty>
0

> <s_user_duplicate_titles>
373317

> <s_m_subgroup_title>
dock_pv

> <s_m_subgroupid>
dock_pv1

> <b_m_subgroup_collapsed>
0

$$$$
341314
                    3D
 Schrodinger Suite 2021-1.
 41 43  0  0  1  0            999 V2000
   27.6792   -0.9625   27.4265 C   0  0  0  0  0  0
   28.9067   -1.1416   26.5200 C   0  0  0  0  0  0
   29.9941   -0.0319   26.6090 C   0  0  1  0  0  0
   30.7456   -0.0079   27.9617 C   0  0  0  0  0  0
   30.4202    0.8371   29.0468 C   0  0  0  0  0  0
   31.1661    0.7622   30.2376 C   0  0  0  0  0  0
   32.2891   -0.0295   30.3157 C   0  0  0  0  0  0
   32.6779   -0.7868   29.2288 C   0  0  0  0  0  0
   31.8688   -0.8508   28.0759 C   0  0  0  0  0  0
   32.1886   -1.7089   26.8950 C   0  0  0  0  0  0
   32.8600   -2.9262   26.9963 C   0  0  0  0  0  0
   33.2207   -3.6234   25.8577 C   0  0  0  0  0  0
   32.8926   -3.1557   24.5965 C   0  0  0  0  0  0
   32.1189   -2.0015   24.4710 C   0  0  0  0  0  0
   31.7484   -1.2935   25.6287 C   0  0  0  0  0  0
   30.9226   -0.1894   25.5147 O   0  0  0  0  0  0
   31.7095   -1.5565   23.0850 C   0  0  0  0  0  0
   33.3140   -3.8629   23.5000 O   0  0  0  0  0  0
   34.0629   -1.3772   29.2980 C   0  0  0  0  0  0
   30.8600    1.4580   31.3688 O   0  0  0  0  0  0
   29.2845    1.8451   28.9140 C   0  0  0  0  0  0
   26.9801   -1.7891   27.2917 H   0  0  0  0  0  0
   27.9577   -0.9420   28.4805 H   0  0  0  0  0  0
   27.1399   -0.0444   27.1914 H   0  0  0  0  0  0
   28.5593   -1.2008   25.4879 H   0  0  0  0  0  0
   29.3520   -2.1151   26.7301 H   0  0  0  0  0  0
   29.5175    0.9320   26.4310 H   0  0  0  0  0  0
   32.8941   -0.0105   31.2116 H   0  0  0  0  0  0
   33.1323   -3.3420   27.9521 H   0  0  0  0  0  0
   33.7505   -4.5420   25.9702 H   0  0  0  0  0  0
   31.4925   -0.4938   23.0640 H   0  0  0  0  0  0
   32.5197   -1.7420   22.3787 H   0  0  0  0  0  0
   30.8600   -2.1420   22.7417 H   0  0  0  0  0  0
   33.7679   -4.6752   23.7375 H   0  0  0  0  0  0
   34.7459   -0.7480   29.8648 H   0  0  0  0  0  0
   34.0670   -2.3887   29.7038 H   0  0  0  0  0  0
   34.4600   -1.3420   28.2964 H   0  0  0  0  0  0
   30.1208    2.0565   31.2496 H   0  0  0  0  0  0
   28.9593    2.2580   29.8640 H   0  0  0  0  0  0
   29.6073    2.6580   28.2662 H   0  0  0  0  0  0
   28.4031    1.4007   28.4622 H   0  0  0  0  0  0
  1  2  1  0  0  0
  1 22  1  0  0  0
  1 23  1  0  0  0
  1 24  1  0  0  0
  2  3  1  0  0  0
  2 25  1  0  0  0
  2 26  1  0  0  0
  3 16  1  0  0  0
  3  4  1  0  0  0
  3 27  1  0  0  0
  4  9  2  0  0  0
  4  5  1  0  0  0
  5  6  2  0  0  0
  5 21  1  0  0  0
  6  7  1  0  0  0
  6 20  1  0  0  0
  7  8  2  0  0  0
  7 28  1  0  0  0
  8  9  1  0  0  0
  8 19  1  0  0  0
  9 10  1  0  0  0
 10 15  2  0  0  0
 10 11  1  0  0  0
 11 12  2  0  0  0
 11 29  1  0  0  0
 12 13  1  0  0  0
 12 30  1  0  0  0
 13 14  2  0  0  0
 13 18  1  0  0  0
 14 15  1  0  0  0
 14 17  1  0  0  0
 15 16  1  0  0  0
 17 31  1  0  0  0
 17 32  1  0  0  0
 17 33  1  0  0  0
 18 34  1  0  0  0
 19 35  1  0  0  0
 19 36  1  0  0  0
 19 37  1  0  0  0
 20 38  1  0  0  0
 21 39  1  0  0  0
 21 40  1  0  0  0
 21 41  1  0  0  0
M  END
> <s_m_entry_id>
17398

> <s_m_entry_name>
ligand_docking-pose.325

> <s_m_Source_Path>
/home/csk/Desktop/cluster/DUD-E-result/esr1

> <s_m_Source_File>
ligand_docking-pose.sdf

> <i_m_Source_File_Index>
325

> <i_lp_mmshare_version>
53161

> <i_f3d_flags>
0

> <r_lp_tautomer_probability>
0.999999999938865

> <s_lp_Force_Field>
OPLS_2005

> <r_lp_Energy>
23.46045

> <b_lp_Chiralities_Consistent>
1

> <s_lp_Variant>
341314-2

> <s_i_glide_gridfile>
glide-grid_1sj0

> <i_i_glide_lignum>
1121

> <i_i_glide_rotatable_bonds>
3

> <r_i_docking_score>
-8.49623985362043

> <r_i_glide_ligand_efficiency>
-0.404582850172401

> <r_i_glide_ligand_efficiency_sa>
-1.11621340555704

> <r_i_glide_ligand_efficiency_ln>
-2.10067813553849

> <r_i_glide_gscore>
-8.49623985362043

> <r_i_glide_lipo>
-4.66445205989481

> <r_i_glide_hbond>
0

> <r_i_glide_metal>
0

> <r_i_glide_rewards>
-2.37034363636364

> <r_i_glide_evdw>
-27.6955375671387

> <r_i_glide_ecoul>
-0.511115193367004

> <r_i_glide_erotb>
0

> <r_i_glide_esite>
0

> <r_i_glide_emodel>
-41.8859871717343

> <r_i_glide_energy>
-28.2066527605057

> <r_i_glide_einternal>
1.63880813121796

> <i_i_glide_confnum>
1

> <i_i_glide_posenum>
101

> <r_i_glide_eff_state_penalty>
0

> <s_user_duplicate_titles>
341314

> <s_m_subgroup_title>
dock_pv

> <s_m_subgroupid>
dock_pv1

> <b_m_subgroup_collapsed>
0

$$$$
373316
                    3D
 Schrodinger Suite 2021-1.
 38 40  0  0  1  0            999 V2000
   33.8527    1.6133   27.8245 C   0  0  0  0  0  0
   33.2873    0.3529   28.5244 C   0  0  0  0  0  0
   34.4573   -0.5327   29.0025 C   0  0  0  0  0  0
   32.3493   -0.3357   27.6118 N   0  0  0  0  0  0
   30.9694   -0.1950   27.4306 C   0  0  0  0  0  0
   30.6732   -1.0163   26.3070 C   0  0  0  0  0  0
   29.3516   -1.1358   25.8640 C   0  0  0  0  0  0
   28.3429   -0.4886   26.5547 C   0  0  0  0  0  0
   28.6465    0.3369   27.6213 C   0  0  0  0  0  0
   29.9592    0.5502   28.0749 C   0  0  0  0  0  0
   30.1563    1.6042   29.1408 C   0  0  0  0  0  0
   29.1714    2.4947   29.0640 F   0  0  0  0  0  0
   30.2115    1.0593   30.3500 F   0  0  0  0  0  0
   31.2810    2.2580   28.9467 F   0  0  0  0  0  0
   31.9311   -1.5192   25.8659 C   0  0  0  0  0  0
   32.8600   -1.1873   26.7091 N   0  0  0  0  0  0
   32.2506   -2.2799   24.6300 C   0  0  0  0  0  0
   31.5580   -1.9785   23.4599 C   0  0  0  0  0  0
   31.7502   -2.7370   22.3031 C   0  0  0  0  0  0
   32.6726   -3.7716   22.3127 C   0  0  0  0  0  0
   33.3961   -4.0425   23.4640 C   0  0  0  0  0  0
   33.1892   -3.3102   24.6265 C   0  0  0  0  0  0
   32.8771   -4.5420   21.2019 O   0  0  0  0  0  0
   34.4611    2.2055   28.5083 H   0  0  0  0  0  0
   34.4923    1.3448   26.9824 H   0  0  0  0  0  0
   33.0761    2.2619   27.4216 H   0  0  0  0  0  0
   32.7407    0.6002   29.4315 H   0  0  0  0  0  0
   34.8999   -0.1251   29.9104 H   0  0  0  0  0  0
   34.1492   -1.5566   29.2189 H   0  0  0  0  0  0
   35.2579   -0.5420   28.2638 H   0  0  0  0  0  0
   29.1085   -1.7419   25.0107 H   0  0  0  0  0  0
   27.3145   -0.6040   26.2428 H   0  0  0  0  0  0
   27.8182    0.8508   28.0884 H   0  0  0  0  0  0
   30.8361   -1.1760   23.4640 H   0  0  0  0  0  0
   31.1833   -2.5420   21.4056 H   0  0  0  0  0  0
   34.0600   -4.8826   23.4817 H   0  0  0  0  0  0
   33.7237   -3.5707   25.5269 H   0  0  0  0  0  0
   32.0859   -4.8686   20.7431 H   0  0  0  0  0  0
  1  2  1  0  0  0
  1 24  1  0  0  0
  1 25  1  0  0  0
  1 26  1  0  0  0
  2  3  1  0  0  0
  2  4  1  0  0  0
  2 27  1  0  0  0
  3 28  1  0  0  0
  3 29  1  0  0  0
  3 30  1  0  0  0
  4 16  1  0  0  0
  4  5  1  0  0  0
  5 10  2  0  0  0
  5  6  1  0  0  0
  6  7  2  0  0  0
  6 15  1  0  0  0
  7  8  1  0  0  0
  7 31  1  0  0  0
  8  9  2  0  0  0
  8 32  1  0  0  0
  9 10  1  0  0  0
  9 33  1  0  0  0
 10 11  1  0  0  0
 11 12  1  0  0  0
 11 13  1  0  0  0
 11 14  1  0  0  0
 15 16  2  0  0  0
 15 17  1  0  0  0
 17 22  1  0  0  0
 17 18  2  0  0  0
 18 19  1  0  0  0
 18 34  1  0  0  0
 19 20  2  0  0  0
 19 35  1  0  0  0
 20 21  1  0  0  0
 20 23  1  0  0  0
 21 22  2  0  0  0
 21 36  1  0  0  0
 22 37  1  0  0  0
 23 38  1  0  0  0
M  END
> <s_m_entry_id>
17399

> <s_m_entry_name>
ligand_docking-pose.326

> <s_m_Source_Path>
/home/csk/Desktop/cluster/DUD-E-result/esr1

> <s_m_Source_File>
ligand_docking-pose.sdf

> <i_m_Source_File_Index>
326

> <i_lp_mmshare_version>
53161

> <i_f3d_flags>
0

> <r_lp_tautomer_probability>
0.999999999997365

> <s_lp_Force_Field>
OPLS_2005

> <r_lp_Energy>
20.099973

> <b_lp_Chiralities_Consistent>
1

> <s_lp_Variant>
373316-1

> <s_i_glide_gridfile>
glide-grid_1sj0

> <i_i_glide_lignum>
1511

> <i_i_glide_rotatable_bonds>
4

> <r_i_docking_score>
-8.49557984680666

> <r_i_glide_ligand_efficiency>
-0.369373036817681

> <r_i_glide_ligand_efficiency_sa>
-1.05044778155541

> <r_i_glide_ligand_efficiency_ln>
-2.05430824061687

> <r_i_glide_gscore>
-8.49557984680666

> <r_i_glide_lipo>
-3.98134194580032

> <r_i_glide_hbond>
-0.16

> <r_i_glide_metal>
0

> <r_i_glide_rewards>
-2.74927258985701

> <r_i_glide_evdw>
-23.6267566680908

> <r_i_glide_ecoul>
-4.03739595413208

> <r_i_glide_erotb>
0.181981915375025

> <r_i_glide_esite>
0

> <r_i_glide_emodel>
-36.3362237347801

> <r_i_glide_energy>
-27.6641526222229

> <r_i_glide_einternal>
3.33132576942444

> <i_i_glide_confnum>
4

> <i_i_glide_posenum>
64

> <r_i_glide_eff_state_penalty>
0

> <s_user_duplicate_titles>
373316

> <s_m_subgroup_title>
dock_pv

> <s_m_subgroupid>
dock_pv1

> <b_m_subgroup_collapsed>
0

$$$$
224192
                    3D
 Schrodinger Suite 2021-1.
 34 35  0  0  1  0            999 V2000
   34.6511   -0.1384   28.6889 C   0  0  0  0  0  0
   33.5094   -0.4837   28.4247 C   0  0  0  0  0  0
   32.1377   -0.9411   28.0746 C   0  0  2  0  0  0
   32.1617   -1.4518   26.6180 C   0  0  0  0  0  0
   32.7725   -2.6812   26.3278 C   0  0  0  0  0  0
   32.8519   -3.1391   25.0148 C   0  0  0  0  0  0
   32.2877   -2.3875   23.9855 C   0  0  0  0  0  0
   31.6598   -1.1807   24.2633 C   0  0  0  0  0  0
   31.6082   -0.7060   25.5688 C   0  0  0  0  0  0
   32.3434   -2.8313   22.6925 O   0  0  0  0  0  0
   30.9794    0.0816   28.4229 C   0  0  2  0  0  0
   30.9843    0.5921   29.8174 C   0  0  0  0  0  0
   31.0126    1.0557   30.9469 C   0  0  0  0  0  0
   29.5454   -0.3462   28.0304 C   0  0  0  0  0  0
   28.5746    0.6457   27.8265 C   0  0  0  0  0  0
   27.2761    0.3029   27.4625 C   0  0  0  0  0  0
   26.9363   -1.0331   27.2692 C   0  0  0  0  0  0
   27.8866   -2.0329   27.4630 C   0  0  0  0  0  0
   29.1829   -1.6920   27.8532 C   0  0  0  0  0  0
   25.6598   -1.3419   26.8818 O   0  0  0  0  0  0
   35.6571    0.1499   28.9041 H   0  0  0  0  0  0
   31.9835   -1.8140   28.7127 H   0  0  0  0  0  0
   33.2093   -3.2720   27.1208 H   0  0  0  0  0  0
   33.3486   -4.0745   24.8043 H   0  0  0  0  0  0
   31.2287   -0.5967   23.4641 H   0  0  0  0  0  0
   31.1341    0.2475   25.7433 H   0  0  0  0  0  0
   32.7284   -3.7059   22.5971 H   0  0  0  0  0  0
   31.1942    0.9830   27.8442 H   0  0  0  0  0  0
   31.0502    1.4567   31.9342 H   0  0  0  0  0  0
   28.8268    1.6880   27.9585 H   0  0  0  0  0  0
   26.5343    1.0735   27.3055 H   0  0  0  0  0  0
   27.6212   -3.0694   27.3125 H   0  0  0  0  0  0
   29.8997   -2.4847   28.0015 H   0  0  0  0  0  0
   25.5213   -2.2318   26.5155 H   0  0  0  0  0  0
  1  2  3  0  0  0
  1 21  1  0  0  0
  2  3  1  0  0  0
  3  4  1  0  0  0
  3 11  1  0  0  0
  3 22  1  0  0  0
  4  9  1  0  0  0
  4  5  2  0  0  0
  5  6  1  0  0  0
  5 23  1  0  0  0
  6  7  2  0  0  0
  6 24  1  0  0  0
  7  8  1  0  0  0
  7 10  1  0  0  0
  8  9  2  0  0  0
  8 25  1  0  0  0
  9 26  1  0  0  0
 10 27  1  0  0  0
 11 12  1  0  0  0
 11 14  1  0  0  0
 11 28  1  0  0  0
 12 13  3  0  0  0
 13 29  1  0  0  0
 14 19  1  0  0  0
 14 15  2  0  0  0
 15 16  1  0  0  0
 15 30  1  0  0  0
 16 17  2  0  0  0
 16 31  1  0  0  0
 17 18  1  0  0  0
 17 20  1  0  0  0
 18 19  2  0  0  0
 18 32  1  0  0  0
 19 33  1  0  0  0
 20 34  1  0  0  0
M  END
> <s_m_entry_id>
17400

> <s_m_entry_name>
ligand_docking-pose.327

> <s_m_Source_Path>
/home/csk/Desktop/cluster/DUD-E-result/esr1

> <s_m_Source_File>
ligand_docking-pose.sdf

> <i_m_Source_File_Index>
327

> <i_lp_mmshare_version>
53161

> <i_f3d_flags>
0

> <r_lp_tautomer_probability>
0.99999999999473

> <s_lp_Force_Field>
OPLS_2005

> <r_lp_Energy>
11.714182

> <b_lp_Chiralities_Consistent>
1

> <s_lp_Variant>
224192-1

> <s_i_glide_gridfile>
glide-grid_1sj0

> <i_i_glide_lignum>
1285

> <i_i_glide_rotatable_bonds>
7

> <r_i_docking_score>
-8.49532515385467

> <r_i_glide_ligand_efficiency>
-0.424766257692734

> <r_i_glide_ligand_efficiency_sa>
-1.1529930116649

> <r_i_glide_ligand_efficiency_ln>
-2.12609969143366

> <r_i_glide_gscore>
-8.49532515385467

> <r_i_glide_lipo>
-4.76203313355678

> <r_i_glide_hbond>
-0.16

> <r_i_glide_metal>
0

> <r_i_glide_rewards>
-2.33377122663149

> <r_i_glide_evdw>
-38.0866661071777

> <r_i_glide_ecoul>
-4.16143274307251

> <r_i_glide_erotb>
1.28902742315336

> <r_i_glide_esite>
0

> <r_i_glide_emodel>
-62.2624204436907

> <r_i_glide_energy>
-42.2480988502502

> <r_i_glide_einternal>
3.49700927734375

> <i_i_glide_confnum>
6

> <i_i_glide_posenum>
335

> <r_i_glide_eff_state_penalty>
0

> <s_user_duplicate_titles>
224192

> <s_m_subgroup_title>
dock_pv

> <s_m_subgroupid>
dock_pv1

> <b_m_subgroup_collapsed>
0

$$$$
350886
                    3D
 Schrodinger Suite 2021-1.
 39 41  0  0  1  0            999 V2000
   32.3678    1.1058   31.4640 C   0  0  0  0  0  0
   31.6977   -0.0872   30.7703 C   0  0  0  0  0  0
   32.6731   -0.8887   29.8867 C   0  0  0  0  0  0
   32.0153   -1.8918   28.9029 C   0  0  0  0  0  0
   31.4603   -1.4424   27.4989 C   0  0  2  0  0  0
   32.5660   -1.0392   26.4909 C   0  0  0  0  0  0
   33.2600    0.3076   26.8075 C   0  0  0  0  0  0
   32.3666    1.3476   27.4935 C   0  0  0  0  0  0
   32.8600    2.4080   27.8637 O   0  0  0  0  0  0
   30.9461    0.9973   27.6747 C   0  0  0  0  0  0
   30.4888   -0.2720   27.6073 C   0  0  0  0  0  0
   29.1127   -0.8317   27.6756 C   0  0  0  0  0  0
   27.8605   -0.2320   27.8641 C   0  0  0  0  0  0
   26.7067   -1.0098   27.9157 C   0  0  0  0  0  0
   26.7916   -2.3882   27.7532 C   0  0  0  0  0  0
   28.0189   -2.9833   27.4638 C   0  0  0  0  0  0
   29.1772   -2.2019   27.4335 C   0  0  0  0  0  0
   30.5559   -2.5478   26.9460 C   0  0  0  0  0  0
   25.6600   -3.1443   27.8640 O   0  0  0  0  0  0
   29.8146    2.2602   28.1150 Cl  0  0  0  0  0  0
   31.6692    1.6033   32.1375 H   0  0  0  0  0  0
   32.7020    1.8454   30.7356 H   0  0  0  0  0  0
   33.2397    0.7974   32.0414 H   0  0  0  0  0  0
   31.2602   -0.7549   31.5124 H   0  0  0  0  0  0
   30.8581    0.2872   30.1952 H   0  0  0  0  0  0
   33.3836   -0.2366   29.3922 H   0  0  0  0  0  0
   33.2991   -1.4561   30.5700 H   0  0  0  0  0  0
   32.7534   -2.6757   28.7230 H   0  0  0  0  0  0
   31.2043   -2.3609   29.4636 H   0  0  0  0  0  0
   33.3049   -1.8380   26.4279 H   0  0  0  0  0  0
   32.1433   -0.9607   25.4868 H   0  0  0  0  0  0
   33.6299    0.7551   25.8844 H   0  0  0  0  0  0
   34.1153    0.1449   27.4640 H   0  0  0  0  0  0
   27.7370    0.8283   28.0000 H   0  0  0  0  0  0
   25.7504   -0.5430   28.0987 H   0  0  0  0  0  0
   28.0593   -4.0429   27.2566 H   0  0  0  0  0  0
   30.5427   -2.5419   25.8580 H   0  0  0  0  0  0
   30.8927   -3.5443   27.1907 H   0  0  0  0  0  0
   25.2772   -3.3419   26.9774 H   0  0  0  0  0  0
  1  2  1  0  0  0
  1 21  1  0  0  0
  1 22  1  0  0  0
  1 23  1  0  0  0
  2  3  1  0  0  0
  2 24  1  0  0  0
  2 25  1  0  0  0
  3  4  1  0  0  0
  3 26  1  0  0  0
  3 27  1  0  0  0
  4  5  1  0  0  0
  4 28  1  0  0  0
  4 29  1  0  0  0
  5 11  1  0  0  0
  5 18  1  0  0  0
  5  6  1  0  0  0
  6  7  1  0  0  0
  6 30  1  0  0  0
  6 31  1  0  0  0
  7  8  1  0  0  0
  7 32  1  0  0  0
  7 33  1  0  0  0
  8  9  2  0  0  0
  8 10  1  0  0  0
 10 11  2  0  0  0
 10 20  1  0  0  0
 11 12  1  0  0  0
 12 17  1  0  0  0
 12 13  2  0  0  0
 13 14  1  0  0  0
 13 34  1  0  0  0
 14 15  2  0  0  0
 14 35  1  0  0  0
 15 16  1  0  0  0
 15 19  1  0  0  0
 16 17  2  0  0  0
 16 36  1  0  0  0
 17 18  1  0  0  0
 18 37  1  0  0  0
 18 38  1  0  0  0
 19 39  1  0  0  0
M  END
> <s_m_entry_id>
17401

> <s_m_entry_name>
ligand_docking-pose.328

> <s_m_Source_Path>
/home/csk/Desktop/cluster/DUD-E-result/esr1

> <s_m_Source_File>
ligand_docking-pose.sdf

> <i_m_Source_File_Index>
328

> <i_lp_mmshare_version>
53161

> <i_f3d_flags>
0

> <r_lp_tautomer_probability>
1

> <s_lp_Force_Field>
OPLS_2005

> <r_lp_Energy>
20.834573

> <b_lp_Chiralities_Consistent>
1

> <s_lp_Variant>
350886-2

> <s_i_glide_gridfile>
glide-grid_1sj0

> <i_i_glide_lignum>
1355

> <i_i_glide_rotatable_bonds>
4

> <r_i_docking_score>
-8.49436369195126

> <r_i_glide_ligand_efficiency>
-0.424718184597563

> <r_i_glide_ligand_efficiency_sa>
-1.15286252120861

> <r_i_glide_ligand_efficiency_ln>
-2.12585906923037

> <r_i_glide_gscore>
-8.49436369195126

> <r_i_glide_lipo>
-3.63680569722027

> <r_i_glide_hbond>
-0.16

> <r_i_glide_metal>
0

> <r_i_glide_rewards>
-2.66065692769403

> <r_i_glide_evdw>
-25.5914497375488

> <r_i_glide_ecoul>
-7.92358589172363

> <r_i_glide_erotb>
0.431209303599028

> <r_i_glide_esite>
0

> <r_i_glide_emodel>
-40.9787765202889

> <r_i_glide_energy>
-33.5150356292725

> <r_i_glide_einternal>
8.76904964447021

> <i_i_glide_confnum>
7

> <i_i_glide_posenum>
324

> <r_i_glide_eff_state_penalty>
0

> <s_user_duplicate_titles>
350886

> <s_m_subgroup_title>
dock_pv

> <s_m_subgroupid>
dock_pv1

> <b_m_subgroup_collapsed>
0

$$$$
312901
                    3D
 Schrodinger Suite 2021-1.
 35 37  0  0  1  0            999 V2000
   31.5262    1.1774   30.8407 C   0  0  0  0  0  0
   32.3675    0.5268   29.7316 C   0  0  0  0  0  0
   32.0609    1.0383   28.3069 C   0  0  0  0  0  0
   30.6956    0.6115   27.7651 C   0  0  0  0  0  0
   29.5873    1.4139   28.0443 C   0  0  0  0  0  0
   28.3286    1.0728   27.5597 C   0  0  0  0  0  0
   28.1522   -0.0618   26.7792 C   0  0  0  0  0  0
   29.2487   -0.8573   26.4757 C   0  0  0  0  0  0
   30.5183   -0.5409   26.9715 C   0  0  0  0  0  0
   31.6076   -1.4697   26.5779 C   0  0  0  0  0  0
   31.9197   -1.9315   25.2603 C   0  0  0  0  0  0
   31.4584   -1.7380   23.9492 C   0  0  0  0  0  0
   32.0616   -2.4635   22.9166 C   0  0  0  0  0  0
   33.1355   -3.3193   23.1638 C   0  0  0  0  0  0
   33.6420   -3.4769   24.4523 C   0  0  0  0  0  0
   32.9874   -2.8023   25.4784 C   0  0  0  0  0  0
   33.2599   -2.8884   26.8057 O   0  0  0  0  0  0
   32.3920   -2.0258   27.4787 N   0  0  0  0  0  0
   33.6889   -4.0242   22.1343 O   0  0  0  0  0  0
   27.2597    1.8574   27.8628 O   0  0  0  0  0  0
   31.8182    0.8078   31.8235 H   0  0  0  0  0  0
   30.4646    0.9706   30.7206 H   0  0  0  0  0  0
   31.6596    2.2574   30.8504 H   0  0  0  0  0  0
   33.4184    0.7188   29.9501 H   0  0  0  0  0  0
   32.2551   -0.5553   29.7789 H   0  0  0  0  0  0
   32.1302    2.1274   28.2861 H   0  0  0  0  0  0
   32.8402    0.7007   27.6213 H   0  0  0  0  0  0
   29.6999    2.3040   28.6477 H   0  0  0  0  0  0
   27.1761   -0.3383   26.4089 H   0  0  0  0  0  0
   29.0996   -1.7393   25.8657 H   0  0  0  0  0  0
   30.6343   -1.0730   23.7423 H   0  0  0  0  0  0
   31.6884   -2.3527   21.9089 H   0  0  0  0  0  0
   34.4599   -4.1407   24.6640 H   0  0  0  0  0  0
   33.1397   -4.0456   21.3470 H   0  0  0  0  0  0
   26.4409    1.5416   27.4679 H   0  0  0  0  0  0
  1  2  1  0  0  0
  1 21  1  0  0  0
  1 22  1  0  0  0
  1 23  1  0  0  0
  2  3  1  0  0  0
  2 24  1  0  0  0
  2 25  1  0  0  0
  3  4  1  0  0  0
  3 26  1  0  0  0
  3 27  1  0  0  0
  4  9  1  0  0  0
  4  5  2  0  0  0
  5  6  1  0  0  0
  5 28  1  0  0  0
  6  7  2  0  0  0
  6 20  1  0  0  0
  7  8  1  0  0  0
  7 29  1  0  0  0
  8  9  2  0  0  0
  8 30  1  0  0  0
  9 10  1  0  0  0
 10 18  2  0  0  0
 10 11  1  0  0  0
 11 16  2  0  0  0
 11 12  1  0  0  0
 12 13  2  0  0  0
 12 31  1  0  0  0
 13 14  1  0  0  0
 13 32  1  0  0  0
 14 15  2  0  0  0
 14 19  1  0  0  0
 15 16  1  0  0  0
 15 33  1  0  0  0
 16 17  1  0  0  0
 17 18  1  0  0  0
 19 34  1  0  0  0
 20 35  1  0  0  0
M  END
> <s_m_entry_id>
17402

> <s_m_entry_name>
ligand_docking-pose.329

> <s_m_Source_Path>
/home/csk/Desktop/cluster/DUD-E-result/esr1

> <s_m_Source_File>
ligand_docking-pose.sdf

> <i_m_Source_File_Index>
329

> <i_lp_mmshare_version>
53161

> <i_f3d_flags>
0

> <r_lp_tautomer_probability>
0.999999999997365

> <s_lp_Force_Field>
OPLS_2005

> <r_lp_Energy>
33.816693

> <b_lp_Chiralities_Consistent>
1

> <s_lp_Variant>
312901-1

> <s_i_glide_gridfile>
glide-grid_1sj0

> <i_i_glide_lignum>
1259

> <i_i_glide_rotatable_bonds>
5

> <r_i_docking_score>
-8.47863158542071

> <r_i_glide_ligand_efficiency>
-0.423931579271035

> <r_i_glide_ligand_efficiency_sa>
-1.15072734585511

> <r_i_glide_ligand_efficiency_ln>
-2.12192184184538

> <r_i_glide_gscore>
-8.47863158542071

> <r_i_glide_lipo>
-4.41426563560509

> <r_i_glide_hbond>
-0.0680441127247879

> <r_i_glide_metal>
0

> <r_i_glide_rewards>
-2.4339370474118

> <r_i_glide_evdw>
-33.7640113830566

> <r_i_glide_ecoul>
-2.44597983360291

> <r_i_glide_erotb>
0.492712754514241

> <r_i_glide_esite>
0

> <r_i_glide_emodel>
-51.8150484219297

> <r_i_glide_energy>
-36.2099912166595

> <r_i_glide_einternal>
2.6330623626709

> <i_i_glide_confnum>
1

> <i_i_glide_posenum>
312

> <r_i_glide_eff_state_penalty>
0

> <s_user_duplicate_titles>
312901

> <s_m_subgroup_title>
dock_pv

> <s_m_subgroupid>
dock_pv1

> <b_m_subgroup_collapsed>
0

$$$$
351093
                    3D
 Schrodinger Suite 2021-1.
 46 49  0  0  1  0            999 V2000
   26.1432   -3.2735   28.2674 C   0  0  0  0  0  0
   27.2599   -3.1637   27.2187 C   0  0  0  0  0  0
   28.5267   -2.4514   27.7382 C   0  0  0  0  0  0
   28.3578   -0.9215   27.9706 C   0  0  0  0  0  0
   29.2665    0.0488   27.1396 C   0  0  1  0  0  0
   28.9489    1.5340   27.4703 C   0  0  0  0  0  0
   29.3542    1.9332   28.9096 C   0  0  0  0  0  0
   30.7438    1.4340   29.3324 C   0  0  0  0  0  0
   31.2604    1.7970   30.3878 O   0  0  0  0  0  0
   31.4071    0.4778   28.4445 C   0  0  0  0  0  0
   30.7606   -0.1494   27.4303 C   0  0  0  0  0  0
   31.3110   -0.9944   26.3558 C   0  0  0  0  0  0
   32.5183   -1.6900   26.2442 C   0  0  0  0  0  0
   32.8736   -2.2827   25.0347 C   0  0  0  0  0  0
   32.0600   -2.1297   23.9194 C   0  0  0  0  0  0
   30.8604   -1.4288   24.0375 C   0  0  0  0  0  0
   30.4508   -0.9264   25.2683 C   0  0  0  0  0  0
   29.1586   -0.2454   25.6334 C   0  0  0  0  0  0
   32.4343   -2.6884   22.7275 O   0  0  0  0  0  0
   32.8464    0.4352   28.5323 C   0  0  0  0  0  0
   33.6545   -0.3870   29.3054 C   0  0  0  0  0  0
   35.0101   -0.1412   29.0905 C   0  0  0  0  0  0
   35.2262    0.8894   28.1906 C   0  0  0  0  0  0
   33.7674    1.5365   27.5509 S   0  0  0  0  0  0
   25.2475   -3.7424   27.8640 H   0  0  0  0  0  0
   26.4701   -3.8908   29.0998 H   0  0  0  0  0  0
   25.8491   -2.2983   28.6545 H   0  0  0  0  0  0
   26.8809   -2.6548   26.3311 H   0  0  0  0  0  0
   27.5256   -4.1685   26.8863 H   0  0  0  0  0  0
   29.3391   -2.6591   27.0462 H   0  0  0  0  0  0
   28.8468   -2.9287   28.6642 H   0  0  0  0  0  0
   28.4988   -0.7330   29.0316 H   0  0  0  0  0  0
   27.3190   -0.6428   27.7865 H   0  0  0  0  0  0
   29.4785    2.1893   26.7750 H   0  0  0  0  0  0
   27.8880    1.7371   27.3143 H   0  0  0  0  0  0
   28.6841    1.4486   29.5997 H   0  0  0  0  0  0
   29.2815    3.0084   29.0640 H   0  0  0  0  0  0
   33.2014   -1.7775   27.0737 H   0  0  0  0  0  0
   33.8026   -2.8273   24.9521 H   0  0  0  0  0  0
   30.2019   -1.3420   23.1934 H   0  0  0  0  0  0
   29.0130    0.6579   25.0496 H   0  0  0  0  0  0
   28.2958   -0.8860   25.4639 H   0  0  0  0  0  0
   31.7546   -2.6638   22.0504 H   0  0  0  0  0  0
   33.2779   -1.1388   29.9833 H   0  0  0  0  0  0
   35.8030   -0.6816   29.5868 H   0  0  0  0  0  0
   36.1651    1.2941   27.8590 H   0  0  0  0  0  0
  1  2  1  0  0  0
  1 25  1  0  0  0
  1 26  1  0  0  0
  1 27  1  0  0  0
  2  3  1  0  0  0
  2 28  1  0  0  0
  2 29  1  0  0  0
  3  4  1  0  0  0
  3 30  1  0  0  0
  3 31  1  0  0  0
  4  5  1  0  0  0
  4 32  1  0  0  0
  4 33  1  0  0  0
  5 11  1  0  0  0
  5 18  1  0  0  0
  5  6  1  0  0  0
  6  7  1  0  0  0
  6 34  1  0  0  0
  6 35  1  0  0  0
  7  8  1  0  0  0
  7 36  1  0  0  0
  7 37  1  0  0  0
  8  9  2  0  0  0
  8 10  1  0  0  0
 10 11  2  0  0  0
 10 20  1  0  0  0
 11 12  1  0  0  0
 12 17  1  0  0  0
 12 13  2  0  0  0
 13 14  1  0  0  0
 13 38  1  0  0  0
 14 15  2  0  0  0
 14 39  1  0  0  0
 15 16  1  0  0  0
 15 19  1  0  0  0
 16 17  2  0  0  0
 16 40  1  0  0  0
 17 18  1  0  0  0
 18 41  1  0  0  0
 18 42  1  0  0  0
 19 43  1  0  0  0
 20 24  1  0  0  0
 20 21  2  0  0  0
 21 22  1  0  0  0
 21 44  1  0  0  0
 22 23  2  0  0  0
 22 45  1  0  0  0
 23 24  1  0  0  0
 23 46  1  0  0  0
M  END
> <s_m_entry_id>
17403

> <s_m_entry_name>
ligand_docking-pose.330

> <s_m_Source_Path>
/home/csk/Desktop/cluster/DUD-E-result/esr1

> <s_m_Source_File>
ligand_docking-pose.sdf

> <i_m_Source_File_Index>
330

> <i_lp_mmshare_version>
53161

> <i_f3d_flags>
0

> <r_lp_tautomer_probability>
1

> <s_lp_Force_Field>
OPLS_2005

> <r_lp_Energy>
25.038549

> <b_lp_Chiralities_Consistent>
1

> <s_lp_Variant>
351093-1

> <s_i_glide_gridfile>
glide-grid_1sj0

> <i_i_glide_lignum>
1346

> <i_i_glide_rotatable_bonds>
5

> <r_i_docking_score>
-8.47820894650355

> <r_i_glide_ligand_efficiency>
-0.353258706104315

> <r_i_glide_ligand_efficiency_sa>
-1.01897443309315

> <r_i_glide_ligand_efficiency_ln>
-2.02922444055669

> <r_i_glide_gscore>
-8.47820894650355

> <r_i_glide_lipo>
-4.47444161584717

> <r_i_glide_hbond>
0

> <r_i_glide_metal>
0

> <r_i_glide_rewards>
-2.45138059090909

> <r_i_glide_evdw>
-36.9356918334961

> <r_i_glide_ecoul>
-1.33913612365723

> <r_i_glide_erotb>
0.495268270476102

> <r_i_glide_esite>
0

> <r_i_glide_emodel>
-47.5298170474843

> <r_i_glide_energy>
-38.2748279571533

> <r_i_glide_einternal>
4.25045394897461

> <i_i_glide_confnum>
5

> <i_i_glide_posenum>
323

> <r_i_glide_eff_state_penalty>
0

> <s_user_duplicate_titles>
351093

> <s_m_subgroup_title>
dock_pv

> <s_m_subgroupid>
dock_pv1

> <b_m_subgroup_collapsed>
0

$$$$
360307
                    3D
 Schrodinger Suite 2021-1.
 39 42  0  0  1  0            999 V2000
   31.6612   -1.8487   23.5157 C   0  0  0  0  0  0
   31.8913   -2.5420   22.3232 C   0  0  0  0  0  0
   32.7569   -3.6247   22.3017 C   0  0  0  0  0  0
   33.4086   -4.0007   23.4639 C   0  0  0  0  0  0
   33.1638   -3.3418   24.6599 C   0  0  0  0  0  0
   32.2553   -2.2835   24.7082 C   0  0  0  0  0  0
   31.9536   -1.6519   26.0731 C   0  0  2  0  0  0
   30.4612   -1.5901   26.4969 C   0  0  2  0  0  0
   29.5452   -0.6880   25.6652 C   0  0  0  0  0  0
   28.3474   -0.4500   26.5733 C   0  0  0  0  0  0
   28.9656   -0.2521   27.9553 C   0  0  0  0  0  0
   30.2824   -1.0637   27.9527 C   0  0  2  0  0  0
   31.5073   -0.2712   28.4258 C   0  0  0  0  0  0
   31.6453    0.1414   29.7536 C   0  0  0  0  0  0
   32.7846    0.8183   30.1788 C   0  0  0  0  0  0
   33.8300    1.0581   29.2912 C   0  0  0  0  0  0
   33.7030    0.6952   27.9539 C   0  0  0  0  0  0
   32.5520    0.0343   27.5294 C   0  0  0  0  0  0
   32.5114   -0.3498   26.2059 O   0  0  0  0  0  0
   32.8600    1.2694   31.4640 O   0  0  0  0  0  0
   32.9870   -4.3174   21.1431 O   0  0  0  0  0  0
   32.4452   -2.3158   26.7922 H   0  0  0  0  0  0
   30.0625   -2.6045   26.4688 H   0  0  0  0  0  0
   30.1843   -1.9519   28.5808 H   0  0  0  0  0  0
   31.0135   -0.9883   23.4980 H   0  0  0  0  0  0
   31.4136   -2.2401   21.4050 H   0  0  0  0  0  0
   34.0599   -4.8514   23.4648 H   0  0  0  0  0  0
   33.6601   -3.6928   25.5527 H   0  0  0  0  0  0
   30.0355    0.2584   25.4330 H   0  0  0  0  0  0
   29.2601   -1.1575   24.7276 H   0  0  0  0  0  0
   27.7543    0.4110   26.2644 H   0  0  0  0  0  0
   27.6907   -1.3226   26.5651 H   0  0  0  0  0  0
   28.2496   -0.6171   28.6908 H   0  0  0  0  0  0
   29.1484    0.8174   28.0792 H   0  0  0  0  0  0
   30.8596   -0.0688   30.4608 H   0  0  0  0  0  0
   34.7210    1.5685   29.6275 H   0  0  0  0  0  0
   34.4995    0.9117   27.2578 H   0  0  0  0  0  0
   32.0550    1.1108   31.9595 H   0  0  0  0  0  0
   32.2144   -4.7659   20.7652 H   0  0  0  0  0  0
  1  6  1  0  0  0
  1  2  2  0  0  0
  1 25  1  0  0  0
  2  3  1  0  0  0
  2 26  1  0  0  0
  3  4  2  0  0  0
  3 21  1  0  0  0
  4  5  1  0  0  0
  4 27  1  0  0  0
  5  6  2  0  0  0
  5 28  1  0  0  0
  6  7  1  0  0  0
  7 22  1  0  0  0
  7 19  1  0  0  0
  7  8  1  0  0  0
  8 23  1  0  0  0
  8 12  1  0  0  0
  8  9  1  0  0  0
  9 10  1  0  0  0
  9 29  1  0  0  0
  9 30  1  0  0  0
 10 11  1  0  0  0
 10 31  1  0  0  0
 10 32  1  0  0  0
 11 12  1  0  0  0
 11 33  1  0  0  0
 11 34  1  0  0  0
 12 24  1  0  0  0
 12 13  1  0  0  0
 13 18  2  0  0  0
 13 14  1  0  0  0
 14 15  2  0  0  0
 14 35  1  0  0  0
 15 16  1  0  0  0
 15 20  1  0  0  0
 16 17  2  0  0  0
 16 36  1  0  0  0
 17 18  1  0  0  0
 17 37  1  0  0  0
 18 19  1  0  0  0
 20 38  1  0  0  0
 21 39  1  0  0  0
M  END
> <s_m_entry_id>
17404

> <s_m_entry_name>
ligand_docking-pose.331

> <s_m_Source_Path>
/home/csk/Desktop/cluster/DUD-E-result/esr1

> <s_m_Source_File>
ligand_docking-pose.sdf

> <i_m_Source_File_Index>
331

> <i_lp_mmshare_version>
53161

> <i_f3d_flags>
0

> <r_lp_tautomer_probability>
0.999999999997365

> <s_lp_Force_Field>
OPLS_2005

> <r_lp_Energy>
32.676049

> <b_lp_Chiralities_Consistent>
1

> <s_lp_Variant>
360307-1

> <s_i_glide_gridfile>
glide-grid_1sj0

> <i_i_glide_lignum>
480

> <i_i_glide_rotatable_bonds>
3

> <r_i_docking_score>
-8.47771362373403

> <r_i_glide_ligand_efficiency>
-0.403700648749239

> <r_i_glide_ligand_efficiency_sa>
-1.11377947872471

> <r_i_glide_ligand_efficiency_ln>
-2.09609756263485

> <r_i_glide_gscore>
-8.47771362373403

> <r_i_glide_lipo>
-4.34244463736853

> <r_i_glide_hbond>
-0.16

> <r_i_glide_metal>
0

> <r_i_glide_rewards>
-2.1727671036512

> <r_i_glide_evdw>
-32.7713356018066

> <r_i_glide_ecoul>
-2.60600709915161

> <r_i_glide_erotb>
0.226965962248775

> <r_i_glide_esite>
0

> <r_i_glide_emodel>
-43.5597478949997

> <r_i_glide_energy>
-35.3773427009583

> <r_i_glide_einternal>
7.21921586990356

> <i_i_glide_confnum>
1

> <i_i_glide_posenum>
386

> <r_i_glide_eff_state_penalty>
0

> <s_user_duplicate_titles>
360307

> <s_m_subgroup_title>
dock_pv

> <s_m_subgroupid>
dock_pv1

> <b_m_subgroup_collapsed>
0

$$$$
357038
                    3D
 Schrodinger Suite 2021-1.
 43 46  0  0  1  0            999 V2000
   35.2072    1.4762   28.5100 C   0  0  0  0  0  0
   34.0884    0.4506   28.7534 C   0  0  0  0  0  0
   32.9662    0.4400   27.6787 C   0  0  2  0  0  0
   32.1593    1.7673   27.7403 C   0  0  0  0  0  0
   31.1915    1.7901   28.9437 C   0  0  0  0  0  0
   30.2869    0.5475   28.9935 C   0  0  2  0  0  0
   31.1464   -0.7468   29.0205 C   0  0  0  0  0  0
   31.9635   -0.7832   27.6951 C   0  0  2  0  0  0
   32.6671   -2.1252   27.4171 C   0  0  0  0  0  0
   32.6228   -2.2745   25.9169 C   0  0  0  0  0  0
   33.2863   -3.1715   25.0758 C   0  0  0  0  0  0
   33.0121   -3.1806   23.7081 C   0  0  0  0  0  0
   32.0598   -2.3153   23.1803 C   0  0  0  0  0  0
   31.3567   -1.4585   24.0251 C   0  0  0  0  0  0
   31.6317   -1.4483   25.3953 C   0  0  0  0  0  0
   30.9852   -0.7344   26.5111 C   0  0  0  0  0  0
   29.7624   -0.1468   26.5901 C   0  0  0  0  0  0
   29.3008    0.5540   27.8046 C   0  0  0  0  0  0
   28.2397    1.1783   27.8640 O   0  0  0  0  0  0
   28.7296   -0.2914   25.4934 C   0  0  0  0  0  0
   33.6596   -4.0533   22.8816 O   0  0  0  0  0  0
   33.4582    0.4261   26.7051 H   0  0  0  0  0  0
   29.6693    0.6580   29.8747 H   0  0  0  0  0  0
   35.6601    1.7304   29.4640 H   0  0  0  0  0  0
   35.9737    1.0769   27.8460 H   0  0  0  0  0  0
   34.8732    2.4170   28.0807 H   0  0  0  0  0  0
   34.5585   -0.5274   28.8412 H   0  0  0  0  0  0
   33.6571    0.6349   29.7368 H   0  0  0  0  0  0
   32.7966    2.6489   27.7602 H   0  0  0  0  0  0
   31.5945    1.8588   26.8154 H   0  0  0  0  0  0
   31.7536    1.8688   29.8747 H   0  0  0  0  0  0
   30.5498    2.6590   28.9335 H   0  0  0  0  0  0
   31.7966   -0.7701   29.8953 H   0  0  0  0  0  0
   30.5029   -1.6256   29.1066 H   0  0  0  0  0  0
   33.6599   -2.2035   27.8395 H   0  0  0  0  0  0
   32.1093   -2.9418   27.8624 H   0  0  0  0  0  0
   34.0128   -3.8675   25.4633 H   0  0  0  0  0  0
   31.8401   -2.3224   22.1230 H   0  0  0  0  0  0
   30.6039   -0.8144   23.5997 H   0  0  0  0  0  0
   27.7039   -0.2648   25.8643 H   0  0  0  0  0  0
   28.8597    0.4688   24.7254 H   0  0  0  0  0  0
   28.8597   -1.2818   25.0639 H   0  0  0  0  0  0
   33.2944   -4.0770   21.9938 H   0  0  0  0  0  0
  1  2  1  0  0  0
  1 24  1  0  0  0
  1 25  1  0  0  0
  1 26  1  0  0  0
  2  3  1  0  0  0
  2 27  1  0  0  0
  2 28  1  0  0  0
  3 22  1  0  0  0
  3  8  1  0  0  0
  3  4  1  0  0  0
  4  5  1  0  0  0
  4 29  1  0  0  0
  4 30  1  0  0  0
  5  6  1  0  0  0
  5 31  1  0  0  0
  5 32  1  0  0  0
  6 23  1  0  0  0
  6 18  1  0  0  0
  6  7  1  0  0  0
  7  8  1  0  0  0
  7 33  1  0  0  0
  7 34  1  0  0  0
  8 16  1  0  0  0
  8  9  1  0  0  0
  9 10  1  0  0  0
  9 35  1  0  0  0
  9 36  1  0  0  0
 10 15  2  0  0  0
 10 11  1  0  0  0
 11 12  2  0  0  0
 11 37  1  0  0  0
 12 13  1  0  0  0
 12 21  1  0  0  0
 13 14  2  0  0  0
 13 38  1  0  0  0
 14 15  1  0  0  0
 14 39  1  0  0  0
 15 16  1  0  0  0
 16 17  2  0  0  0
 17 18  1  0  0  0
 17 20  1  0  0  0
 18 19  2  0  0  0
 20 40  1  0  0  0
 20 41  1  0  0  0
 20 42  1  0  0  0
 21 43  1  0  0  0
M  END
> <s_m_entry_id>
17405

> <s_m_entry_name>
ligand_docking-pose.332

> <s_m_Source_Path>
/home/csk/Desktop/cluster/DUD-E-result/esr1

> <s_m_Source_File>
ligand_docking-pose.sdf

> <i_m_Source_File_Index>
332

> <i_lp_mmshare_version>
53161

> <i_f3d_flags>
0

> <r_lp_tautomer_probability>
1

> <s_lp_Force_Field>
OPLS_2005

> <r_lp_Energy>
34.840931

> <b_lp_Chiralities_Consistent>
1

> <s_lp_Variant>
357038-1

> <s_i_glide_gridfile>
glide-grid_1sj0

> <i_i_glide_lignum>
1494

> <i_i_glide_rotatable_bonds>
2

> <r_i_docking_score>
-8.47710140953315

> <r_i_glide_ligand_efficiency>
-0.403671495692055

> <r_i_glide_ligand_efficiency_sa>
-1.11369904765051

> <r_i_glide_ligand_efficiency_ln>
-2.09594619391078

> <r_i_glide_gscore>
-8.47710140953315

> <r_i_glide_lipo>
-4.20968682678447

> <r_i_glide_hbond>
0

> <r_i_glide_metal>
0

> <r_i_glide_rewards>
-2.67573825665262

> <r_i_glide_evdw>
-32.1845397949219

> <r_i_glide_ecoul>
0.117004424333572

> <r_i_glide_erotb>
0

> <r_i_glide_esite>
0

> <r_i_glide_emodel>
-43.166437024638

> <r_i_glide_energy>
-32.0675353705883

> <r_i_glide_einternal>
0.153265357017517

> <i_i_glide_confnum>
1

> <i_i_glide_posenum>
148

> <r_i_glide_eff_state_penalty>
0

> <s_user_duplicate_titles>
357038

> <s_m_subgroup_title>
dock_pv

> <s_m_subgroupid>
dock_pv1

> <b_m_subgroup_collapsed>
0

$$$$
3328
                    3D
 Schrodinger Suite 2021-1.
 32 35  0  0  1  0            999 V2000
   32.8056   -3.3716   22.3738 C   0  0  0  0  0  0
   33.6404   -3.7990   23.3812 C   0  0  0  0  0  0
   33.4830   -3.3431   24.6885 C   0  0  0  0  0  0
   32.4725   -2.3904   25.0191 C   0  0  0  0  0  0
   31.6596   -1.9126   23.9579 C   0  0  0  0  0  0
   31.8238   -2.4457   22.6559 C   0  0  0  0  0  0
   30.6823   -0.9448   24.2388 C   0  0  0  0  0  0
   30.4914   -0.4362   25.5020 C   0  0  0  0  0  0
   31.2981   -0.8539   26.5781 C   0  0  0  0  0  0
   32.2592   -1.8857   26.3365 C   0  0  0  0  0  0
   32.9898   -2.3744   27.4367 C   0  0  0  0  0  0
   32.9162   -1.7708   28.6748 C   0  0  0  0  0  0
   32.0381   -0.6927   28.9112 C   0  0  0  0  0  0
   31.1779   -0.2539   27.8637 C   0  0  0  0  0  0
   30.2477    0.7966   28.1489 C   0  0  0  0  0  0
   30.1800    1.3661   29.4129 C   0  0  0  0  0  0
   31.0358    0.9396   30.4180 C   0  0  0  0  0  0
   31.9802   -0.0481   30.1678 C   0  0  0  0  0  0
   32.8583   -0.3846   31.1540 O   0  0  0  0  0  0
   30.9196    1.4571   31.6794 O   0  0  0  0  0  0
   32.9131   -3.7675   21.3734 H   0  0  0  0  0  0
   34.3744   -4.5367   23.1135 H   0  0  0  0  0  0
   34.1315   -3.7497   25.4397 H   0  0  0  0  0  0
   31.1892   -2.1550   21.8453 H   0  0  0  0  0  0
   30.0594   -0.5616   23.4619 H   0  0  0  0  0  0
   29.7259    0.3125   25.6131 H   0  0  0  0  0  0
   33.6576   -3.2089   27.3344 H   0  0  0  0  0  0
   33.5433   -2.1504   29.4676 H   0  0  0  0  0  0
   29.5648    1.1735   27.4066 H   0  0  0  0  0  0
   29.4419    2.1307   29.6042 H   0  0  0  0  0  0
   33.5539   -0.9870   30.8857 H   0  0  0  0  0  0
   30.2658    2.1542   31.7400 H   0  0  0  0  0  0
  1  6  1  0  0  0
  1  2  2  0  0  0
  1 21  1  0  0  0
  2  3  1  0  0  0
  2 22  1  0  0  0
  3  4  2  0  0  0
  3 23  1  0  0  0
  4 10  1  0  0  0
  4  5  1  0  0  0
  5  6  2  0  0  0
  5  7  1  0  0  0
  6 24  1  0  0  0
  7  8  2  0  0  0
  7 25  1  0  0  0
  8  9  1  0  0  0
  8 26  1  0  0  0
  9 14  2  0  0  0
  9 10  1  0  0  0
 10 11  2  0  0  0
 11 12  1  0  0  0
 11 27  1  0  0  0
 12 13  2  0  0  0
 12 28  1  0  0  0
 13 18  1  0  0  0
 13 14  1  0  0  0
 14 15  1  0  0  0
 15 16  2  0  0  0
 15 29  1  0  0  0
 16 17  1  0  0  0
 16 30  1  0  0  0
 17 18  2  0  0  0
 17 20  1  0  0  0
 18 19  1  0  0  0
 19 31  1  0  0  0
 20 32  1  0  0  0
M  END
> <s_m_entry_id>
17406

> <s_m_entry_name>
ligand_docking-pose.333

> <s_m_Source_Path>
/home/csk/Desktop/cluster/DUD-E-result/esr1

> <s_m_Source_File>
ligand_docking-pose.sdf

> <i_m_Source_File_Index>
333

> <i_lp_mmshare_version>
53161

> <i_f3d_flags>
0

> <r_lp_tautomer_probability>
1

> <s_lp_Force_Field>
OPLS_2005

> <r_lp_Energy>
24.842107

> <b_lp_Chiralities_Consistent>
1

> <s_lp_Variant>
3328-1

> <s_i_glide_gridfile>
glide-grid_1sj0

> <i_i_glide_lignum>
81

> <i_i_glide_rotatable_bonds>
2

> <r_i_docking_score>
-8.47670403776157

> <r_i_glide_ligand_efficiency>
-0.423835201888078

> <r_i_glide_ligand_efficiency_sa>
-1.15046573738923

> <r_i_glide_ligand_efficiency_ln>
-2.12143944024107

> <r_i_glide_gscore>
-8.47670403776157

> <r_i_glide_lipo>
-4.71552923828659

> <r_i_glide_hbond>
0

> <r_i_glide_metal>
0

> <r_i_glide_rewards>
-2.34553850439479

> <r_i_glide_evdw>
-23.4215106964111

> <r_i_glide_ecoul>
-1.63040506839752

> <r_i_glide_erotb>
0

> <r_i_glide_esite>
0

> <r_i_glide_emodel>
-37.3947700410116

> <r_i_glide_energy>
-25.0519157648087

> <r_i_glide_einternal>
0.0370373800396919

> <i_i_glide_confnum>
1

> <i_i_glide_posenum>
352

> <r_i_glide_eff_state_penalty>
0

> <s_user_duplicate_titles>
3328

> <s_m_subgroup_title>
dock_pv

> <s_m_subgroupid>
dock_pv1

> <b_m_subgroup_collapsed>
0

$$$$
323215
                    3D
 Schrodinger Suite 2021-1.
 31 33  0  0  1  0            999 V2000
   33.2649   -0.7663   29.0790 C   0  0  0  0  0  0
   32.9858   -0.0398   30.2228 C   0  0  0  0  0  0
   31.8550    0.7487   30.3011 C   0  0  0  0  0  0
   30.9488    0.8170   29.2348 C   0  0  0  0  0  0
   31.1847    0.0485   28.0227 C   0  0  0  0  0  0
   32.3856   -0.7329   27.9719 C   0  0  0  0  0  0
   32.7072   -1.4760   26.8140 C   0  0  0  0  0  0
   31.8846   -1.5113   25.6850 C   0  0  0  0  0  0
   30.6936   -0.7860   25.7457 C   0  0  0  0  0  0
   30.3304   -0.0135   26.8556 C   0  0  0  0  0  0
   29.0622    0.6950   26.7430 C   0  0  0  0  0  0
   28.0600    1.2634   26.6640 N   0  0  0  0  0  0
   32.2625   -2.3225   24.4715 C   0  0  0  0  0  0
   33.2176   -3.3420   24.5631 C   0  0  0  0  0  0
   33.5402   -4.1265   23.4634 C   0  0  0  0  0  0
   32.9151   -3.9578   22.2404 C   0  0  0  0  0  0
   31.9470   -2.9734   22.1204 C   0  0  0  0  0  0
   31.6600   -2.1419   23.2113 C   0  0  0  0  0  0
   31.2603   -2.8651   20.9609 F   0  0  0  0  0  0
   33.2600   -4.7612   21.1825 O   0  0  0  0  0  0
   29.5791    1.8580   29.4640 Cl  0  0  0  0  0  0
   31.6583    1.4571   31.4610 O   0  0  0  0  0  0
   34.1634   -1.3666   29.0388 H   0  0  0  0  0  0
   33.6599   -0.0824   31.0640 H   0  0  0  0  0  0
   33.6403   -2.0156   26.8280 H   0  0  0  0  0  0
   30.0204   -0.8224   24.9009 H   0  0  0  0  0  0
   33.6988   -3.5905   25.4941 H   0  0  0  0  0  0
   34.2131   -4.9419   23.5914 H   0  0  0  0  0  0
   30.9147   -1.3811   23.0653 H   0  0  0  0  0  0
   32.5034   -5.0770   20.6647 H   0  0  0  0  0  0
   30.8616    1.9921   31.4265 H   0  0  0  0  0  0
  1  6  1  0  0  0
  1  2  2  0  0  0
  1 23  1  0  0  0
  2  3  1  0  0  0
  2 24  1  0  0  0
  3  4  2  0  0  0
  3 22  1  0  0  0
  4  5  1  0  0  0
  4 21  1  0  0  0
  5 10  2  0  0  0
  5  6  1  0  0  0
  6  7  2  0  0  0
  7  8  1  0  0  0
  7 25  1  0  0  0
  8  9  2  0  0  0
  8 13  1  0  0  0
  9 10  1  0  0  0
  9 26  1  0  0  0
 10 11  1  0  0  0
 11 12  3  0  0  0
 13 18  1  0  0  0
 13 14  2  0  0  0
 14 15  1  0  0  0
 14 27  1  0  0  0
 15 16  2  0  0  0
 15 28  1  0  0  0
 16 17  1  0  0  0
 16 20  1  0  0  0
 17 18  2  0  0  0
 17 19  1  0  0  0
 18 29  1  0  0  0
 20 30  1  0  0  0
 22 31  1  0  0  0
M  END
> <s_m_entry_id>
17407

> <s_m_entry_name>
ligand_docking-pose.334

> <s_m_Source_Path>
/home/csk/Desktop/cluster/DUD-E-result/esr1

> <s_m_Source_File>
ligand_docking-pose.sdf

> <i_m_Source_File_Index>
334

> <i_lp_mmshare_version>
53161

> <i_f3d_flags>
0

> <r_lp_tautomer_probability>
0.999999999997365

> <s_lp_Force_Field>
OPLS_2005

> <r_lp_Energy>
25.579468

> <b_lp_Chiralities_Consistent>
1

> <s_lp_Variant>
323215-1

> <s_i_glide_gridfile>
glide-grid_1sj0

> <i_i_glide_lignum>
122

> <i_i_glide_rotatable_bonds>
3

> <r_i_docking_score>
-8.46663517675054

> <r_i_glide_ligand_efficiency>
-0.384847053488661

> <r_i_glide_ligand_efficiency_sa>
-1.07835657905098

> <r_i_glide_ligand_efficiency_ln>
-2.06955446521957

> <r_i_glide_gscore>
-8.46663517675054

> <r_i_glide_lipo>
-3.89452877478709

> <r_i_glide_hbond>
-0.16

> <r_i_glide_metal>
0

> <r_i_glide_rewards>
-2.58690523571329

> <r_i_glide_evdw>
-31.2732086181641

> <r_i_glide_ecoul>
-2.69163393974304

> <r_i_glide_erotb>
0.188773832551845

> <r_i_glide_esite>
-0.0465694769323518

> <r_i_glide_emodel>
-48.8507487476411

> <r_i_glide_energy>
-33.9648425579071

> <r_i_glide_einternal>
3.05884838104248

> <i_i_glide_confnum>
3

> <i_i_glide_posenum>
114

> <r_i_glide_eff_state_penalty>
0

> <s_user_duplicate_titles>
323215

> <s_m_subgroup_title>
dock_pv

> <s_m_subgroupid>
dock_pv1

> <b_m_subgroup_collapsed>
0

$$$$
396499
                    3D
 Schrodinger Suite 2021-1.
 39 42  0  0  1  0            999 V2000
   26.7523    0.1036   27.4642 C   0  0  0  0  0  0
   28.1004   -0.1463   27.2522 C   0  0  0  0  0  0
   28.5941   -1.4516   27.3522 C   0  0  0  0  0  0
   27.7397   -2.4990   27.6977 C   0  0  0  0  0  0
   26.3933   -2.2458   27.9158 C   0  0  0  0  0  0
   25.9010   -0.9459   27.7965 C   0  0  0  0  0  0
   25.5715   -3.2819   28.2615 O   0  0  0  0  0  0
   30.0072   -1.7589   26.9210 C   0  0  2  0  0  0
   31.1241   -1.4962   27.9591 C   0  0  2  0  0  0
   31.1968   -0.0657   28.5181 C   0  0  0  0  0  0
   32.6382    0.0599   28.9863 C   0  0  0  0  0  0
   33.4246   -0.6188   27.8651 C   0  0  0  0  0  0
   32.5467   -1.7882   27.3574 C   0  0  2  0  0  0
   32.5122   -1.9554   25.8201 C   0  0  0  0  0  0
   33.5269   -2.5422   25.0471 C   0  0  0  0  0  0
   33.4447   -2.5687   23.6507 C   0  0  0  0  0  0
   32.2963   -2.1423   23.0038 C   0  0  0  0  0  0
   31.2598   -1.6159   23.7522 C   0  0  0  0  0  0
   31.3837   -1.5064   25.1223 C   0  0  0  0  0  0
   30.2939   -0.9994   25.7605 O   0  0  0  0  0  0
   34.5099   -2.9441   22.8902 O   0  0  0  0  0  0
   30.0125   -2.8252   26.6686 H   0  0  0  0  0  0
   30.9635   -2.1585   28.8097 H   0  0  0  0  0  0
   32.8775   -2.7300   27.7992 H   0  0  0  0  0  0
   26.3682    1.1078   27.3724 H   0  0  0  0  0  0
   28.7488    0.6661   26.9578 H   0  0  0  0  0  0
   28.1074   -3.5135   27.7608 H   0  0  0  0  0  0
   24.8598   -0.7345   27.9576 H   0  0  0  0  0  0
   25.2119   -3.6644   27.4406 H   0  0  0  0  0  0
   31.0043    0.6700   27.7350 H   0  0  0  0  0  0
   30.4781    0.1096   29.3202 H   0  0  0  0  0  0
   32.9396    1.0975   29.1383 H   0  0  0  0  0  0
   32.7822   -0.4693   29.9304 H   0  0  0  0  0  0
   34.3958   -0.9417   28.2404 H   0  0  0  0  0  0
   33.5611    0.1307   27.0828 H   0  0  0  0  0  0
   34.4307   -2.9105   25.5055 H   0  0  0  0  0  0
   32.2079   -2.1983   21.9288 H   0  0  0  0  0  0
   30.3335   -1.3187   23.2945 H   0  0  0  0  0  0
   34.2892   -3.0266   21.9591 H   0  0  0  0  0  0
  1  6  1  0  0  0
  1  2  2  0  0  0
  1 25  1  0  0  0
  2  3  1  0  0  0
  2 26  1  0  0  0
  3  4  2  0  0  0
  3  8  1  0  0  0
  4  5  1  0  0  0
  4 27  1  0  0  0
  5  6  2  0  0  0
  5  7  1  0  0  0
  6 28  1  0  0  0
  7 29  1  0  0  0
  8 22  1  0  0  0
  8 20  1  0  0  0
  8  9  1  0  0  0
  9 23  1  0  0  0
  9 13  1  0  0  0
  9 10  1  0  0  0
 10 11  1  0  0  0
 10 30  1  0  0  0
 10 31  1  0  0  0
 11 12  1  0  0  0
 11 32  1  0  0  0
 11 33  1  0  0  0
 12 13  1  0  0  0
 12 34  1  0  0  0
 12 35  1  0  0  0
 13 24  1  0  0  0
 13 14  1  0  0  0
 14 19  2  0  0  0
 14 15  1  0  0  0
 15 16  2  0  0  0
 15 36  1  0  0  0
 16 17  1  0  0  0
 16 21  1  0  0  0
 17 18  2  0  0  0
 17 37  1  0  0  0
 18 19  1  0  0  0
 18 38  1  0  0  0
 19 20  1  0  0  0
 21 39  1  0  0  0
M  END
> <s_m_entry_id>
17408

> <s_m_entry_name>
ligand_docking-pose.335

> <s_m_Source_Path>
/home/csk/Desktop/cluster/DUD-E-result/esr1

> <s_m_Source_File>
ligand_docking-pose.sdf

> <i_m_Source_File_Index>
335

> <i_lp_mmshare_version>
53161

> <i_f3d_flags>
0

> <r_lp_tautomer_probability>
0.999999999997365

> <s_lp_Force_Field>
OPLS_2005

> <r_lp_Energy>
33.623132

> <b_lp_Chiralities_Consistent>
1

> <s_lp_Variant>
396499-1

> <s_i_glide_gridfile>
glide-grid_1sj0

> <i_i_glide_lignum>
655

> <i_i_glide_rotatable_bonds>
3

> <r_i_docking_score>
-8.46508142902523

> <r_i_glide_ligand_efficiency>
-0.403099115667868

> <r_i_glide_ligand_efficiency_sa>
-1.11211989456531

> <r_i_glide_ligand_efficiency_ln>
-2.09297427801885

> <r_i_glide_gscore>
-8.46508142902523

> <r_i_glide_lipo>
-4.16446431886407

> <r_i_glide_hbond>
-0.16

> <r_i_glide_metal>
0

> <r_i_glide_rewards>
-2.31434564612896

> <r_i_glide_evdw>
-29.3729858398438

> <r_i_glide_ecoul>
-3.89725422859192

> <r_i_glide_erotb>
0.226965962248775

> <r_i_glide_esite>
0

> <r_i_glide_emodel>
-46.4215673919744

> <r_i_glide_energy>
-33.2702400684357

> <r_i_glide_einternal>
2.79252552986145

> <i_i_glide_confnum>
2

> <i_i_glide_posenum>
17

> <r_i_glide_eff_state_penalty>
0

> <s_user_duplicate_titles>
396499

> <s_m_subgroup_title>
dock_pv

> <s_m_subgroupid>
dock_pv1

> <b_m_subgroup_collapsed>
0

$$$$
313246
                    3D
 Schrodinger Suite 2021-1.
 26 28  0  0  1  0            999 V2000
   28.8952    0.1812   27.4962 C   0  0  0  0  0  0
   27.5610    0.0350   27.1100 C   0  0  0  0  0  0
   26.9701   -1.2293   27.0640 C   0  0  0  0  0  0
   27.7187   -2.3507   27.4330 C   0  0  0  0  0  0
   29.0498   -2.2017   27.8099 C   0  0  0  0  0  0
   29.6542   -0.9374   27.8591 C   0  0  0  0  0  0
   31.0878   -0.8262   28.2803 C   0  0  0  0  0  0
   32.0749    0.1672   27.9748 C   0  0  0  0  0  0
   32.1717    1.3443   27.2198 C   0  0  0  0  0  0
   33.3926    2.0231   27.1938 C   0  0  0  0  0  0
   34.4971    1.5547   27.9054 C   0  0  0  0  0  0
   34.4380    0.3914   28.6640 C   0  0  0  0  0  0
   33.2146   -0.2755   28.6719 C   0  0  0  0  0  0
   32.9415   -1.4244   29.3318 O   0  0  0  0  0  0
   31.6091   -1.7420   29.0640 N   0  0  0  0  0  0
   35.6600    2.2580   27.8640 O   0  0  0  0  0  0
   26.9678   -4.0985   27.4639 Br  0  0  0  0  0  0
   25.6600   -1.3420   26.6740 O   0  0  0  0  0  0
   29.3229    1.1713   27.5333 H   0  0  0  0  0  0
   26.9814    0.9077   26.8465 H   0  0  0  0  0  0
   29.6085   -3.0887   28.0734 H   0  0  0  0  0  0
   31.3278    1.7184   26.6641 H   0  0  0  0  0  0
   33.4841    2.9296   26.6141 H   0  0  0  0  0  0
   35.2885    0.0185   29.2151 H   0  0  0  0  0  0
   36.3962    1.8354   28.3259 H   0  0  0  0  0  0
   25.4127   -2.2224   26.3354 H   0  0  0  0  0  0
  1  6  1  0  0  0
  1  2  2  0  0  0
  1 19  1  0  0  0
  2  3  1  0  0  0
  2 20  1  0  0  0
  3  4  2  0  0  0
  3 18  1  0  0  0
  4  5  1  0  0  0
  4 17  1  0  0  0
  5  6  2  0  0  0
  5 21  1  0  0  0
  6  7  1  0  0  0
  7 15  2  0  0  0
  7  8  1  0  0  0
  8 13  2  0  0  0
  8  9  1  0  0  0
  9 10  2  0  0  0
  9 22  1  0  0  0
 10 11  1  0  0  0
 10 23  1  0  0  0
 11 12  2  0  0  0
 11 16  1  0  0  0
 12 13  1  0  0  0
 12 24  1  0  0  0
 13 14  1  0  0  0
 14 15  1  0  0  0
 16 25  1  0  0  0
 18 26  1  0  0  0
M  END
> <s_m_entry_id>
17409

> <s_m_entry_name>
ligand_docking-pose.336

> <s_m_Source_Path>
/home/csk/Desktop/cluster/DUD-E-result/esr1

> <s_m_Source_File>
ligand_docking-pose.sdf

> <i_m_Source_File_Index>
336

> <i_lp_mmshare_version>
53161

> <i_f3d_flags>
0

> <r_lp_tautomer_probability>
0.999999999997365

> <s_lp_Force_Field>
OPLS_2005

> <r_lp_Energy>
21.147644

> <b_lp_Chiralities_Consistent>
1

> <s_lp_Variant>
313246-1

> <s_i_glide_gridfile>
glide-grid_1sj0

> <i_i_glide_lignum>
191

> <i_i_glide_rotatable_bonds>
3

> <r_i_docking_score>
-8.46322658848793

> <r_i_glide_ligand_efficiency>
-0.470179254915996

> <r_i_glide_ligand_efficiency_sa>
-1.23221823486946

> <r_i_glide_ligand_efficiency_ln>
-2.17542875467117

> <r_i_glide_gscore>
-8.46322658848793

> <r_i_glide_lipo>
-3.19499437643491

> <r_i_glide_hbond>
-0.456

> <r_i_glide_metal>
0

> <r_i_glide_rewards>
-2.16290657143482

> <r_i_glide_evdw>
-33.2826461791992

> <r_i_glide_ecoul>
-7.88181781768799

> <r_i_glide_erotb>
0.19707934099495

> <r_i_glide_esite>
0

> <r_i_glide_emodel>
-60.7601529354008

> <r_i_glide_energy>
-41.1644639968872

> <r_i_glide_einternal>
0.525246918201447

> <i_i_glide_confnum>
3

> <i_i_glide_posenum>
375

> <r_i_glide_eff_state_penalty>
0

> <s_user_duplicate_titles>
313246

> <s_m_subgroup_title>
dock_pv

> <s_m_subgroupid>
dock_pv1

> <b_m_subgroup_collapsed>
0

$$$$
559210
                    3D
 Schrodinger Suite 2021-1.
 38 39  0  0  1  0            999 V2000
   34.1046    1.3477   28.0658 C   0  0  0  0  0  0
   32.6449    1.5952   27.6467 C   0  0  0  0  0  0
   31.7172    0.3549   27.7862 C   0  0  2  0  0  0
   32.1481   -0.7818   26.8429 C   0  0  0  0  0  0
   32.5660   -2.0194   27.3482 C   0  0  0  0  0  0
   32.8849   -3.0396   26.4512 C   0  0  0  0  0  0
   32.8408   -2.7876   25.0810 C   0  0  0  0  0  0
   32.3924   -1.5409   24.6513 C   0  0  0  0  0  0
   32.0459   -0.5427   25.5059 N   0  0  0  0  0  0
   33.2599   -3.7268   24.1760 O   0  0  0  0  0  0
   30.1954    0.7124   27.6351 C   0  0  2  0  0  0
   29.6679    1.6628   28.7353 C   0  0  0  0  0  0
   29.2672   -0.5082   27.5283 C   0  0  0  0  0  0
   28.1801   -0.4663   26.6530 C   0  0  0  0  0  0
   27.3531   -1.5784   26.5007 C   0  0  0  0  0  0
   27.6294   -2.7361   27.2213 C   0  0  0  0  0  0
   28.6943   -2.7844   28.1086 C   0  0  0  0  0  0
   29.4991   -1.6662   28.2765 C   0  0  0  0  0  0
   26.8600   -3.8524   27.0643 O   0  0  0  0  0  0
   31.8540   -0.0031   28.8082 H   0  0  0  0  0  0
   30.1083    1.2518   26.6894 H   0  0  0  0  0  0
   34.7033    2.2517   27.9471 H   0  0  0  0  0  0
   34.1718    1.0419   29.1101 H   0  0  0  0  0  0
   34.5716    0.5705   27.4640 H   0  0  0  0  0  0
   32.6219    1.9664   26.6221 H   0  0  0  0  0  0
   32.2741    2.4112   28.2644 H   0  0  0  0  0  0
   32.6295   -2.1957   28.4124 H   0  0  0  0  0  0
   33.2118   -3.9996   26.8241 H   0  0  0  0  0  0
   32.3380   -1.3132   23.5978 H   0  0  0  0  0  0
   33.6540   -4.5055   24.5827 H   0  0  0  0  0  0
   28.5890    1.7987   28.6569 H   0  0  0  0  0  0
   29.8778    1.2763   29.7329 H   0  0  0  0  0  0
   30.1047    2.6569   28.6619 H   0  0  0  0  0  0
   27.9974    0.4248   26.0738 H   0  0  0  0  0  0
   26.5192   -1.5484   25.8132 H   0  0  0  0  0  0
   28.8915   -3.6892   28.6632 H   0  0  0  0  0  0
   30.3134   -1.7178   28.9812 H   0  0  0  0  0  0
   26.1188   -3.7419   26.4437 H   0  0  0  0  0  0
  1  2  1  0  0  0
  1 22  1  0  0  0
  1 23  1  0  0  0
  1 24  1  0  0  0
  2  3  1  0  0  0
  2 25  1  0  0  0
  2 26  1  0  0  0
  3 20  1  0  0  0
  3  4  1  0  0  0
  3 11  1  0  0  0
  4  9  1  0  0  0
  4  5  2  0  0  0
  5  6  1  0  0  0
  5 27  1  0  0  0
  6  7  2  0  0  0
  6 28  1  0  0  0
  7  8  1  0  0  0
  7 10  1  0  0  0
  8  9  2  0  0  0
  8 29  1  0  0  0
 10 30  1  0  0  0
 11 21  1  0  0  0
 11 12  1  0  0  0
 11 13  1  0  0  0
 12 31  1  0  0  0
 12 32  1  0  0  0
 12 33  1  0  0  0
 13 18  1  0  0  0
 13 14  2  0  0  0
 14 15  1  0  0  0
 14 34  1  0  0  0
 15 16  2  0  0  0
 15 35  1  0  0  0
 16 17  1  0  0  0
 16 19  1  0  0  0
 17 18  2  0  0  0
 17 36  1  0  0  0
 18 37  1  0  0  0
 19 38  1  0  0  0
M  END
> <s_m_entry_id>
17410

> <s_m_entry_name>
ligand_docking-pose.337

> <s_m_Source_Path>
/home/csk/Desktop/cluster/DUD-E-result/esr1

> <s_m_Source_File>
ligand_docking-pose.sdf

> <i_m_Source_File_Index>
337

> <i_lp_mmshare_version>
53161

> <i_f3d_flags>
0

> <r_lp_tautomer_probability>
0.43657999999885

> <s_lp_Force_Field>
OPLS_2005

> <r_lp_Energy>
8.613844

> <b_lp_Chiralities_Consistent>
1

> <s_lp_Variant>
559210-2

> <s_i_glide_gridfile>
glide-grid_1sj0

> <i_i_glide_lignum>
1506

> <i_i_glide_rotatable_bonds>
6

> <r_i_docking_score>
-8.46076823692371

> <r_i_glide_ligand_efficiency>
-0.445303591417037

> <r_i_glide_ligand_efficiency_sa>
-1.18824883635278

> <r_i_glide_ligand_efficiency_ln>
-2.14498646869971

> <r_i_glide_gscore>
-8.46076823692371

> <r_i_glide_lipo>
-4.079163200975

> <r_i_glide_hbond>
-0.342810438177337

> <r_i_glide_metal>
0

> <r_i_glide_rewards>
-2.41461286037643

> <r_i_glide_evdw>
-33.8393058776855

> <r_i_glide_ecoul>
-4.87707948684692

> <r_i_glide_erotb>
0.799345479516379

> <r_i_glide_esite>
0

> <r_i_glide_emodel>
-58.4016015210166

> <r_i_glide_energy>
-38.7163853645325

> <r_i_glide_einternal>
2.79938387870789

> <i_i_glide_confnum>
3

> <i_i_glide_posenum>
20

> <r_i_glide_eff_state_penalty>
0

> <s_user_duplicate_titles>
559210

> <s_m_subgroup_title>
dock_pv

> <s_m_subgroupid>
dock_pv1

> <b_m_subgroup_collapsed>
0

$$$$
364518
                    3D
 Schrodinger Suite 2021-1.
 41 43  0  0  1  0            999 V2000
   34.9608    1.4867   27.8162 C   0  0  0  0  0  0
   35.1186    0.4013   28.8973 C   0  0  0  0  0  0
   33.9606   -0.6177   28.9766 C   0  0  0  0  0  0
   32.5709    0.0277   29.0187 C   0  0  0  0  0  0
   32.1223    0.6769   30.1720 C   0  0  0  0  0  0
   30.9099    1.3469   30.1664 C   0  0  0  0  0  0
   30.1116    1.3643   29.0286 C   0  0  0  0  0  0
   30.4771    0.6385   27.8860 C   0  0  0  0  0  0
   31.7302    0.0046   27.8943 C   0  0  0  0  0  0
   32.2131   -0.6183   26.7696 O   0  0  0  0  0  0
   31.2359   -1.3253   26.0126 C   0  0  1  0  0  0
   30.1192   -0.3656   25.5525 C   0  0  0  0  0  0
   29.5796    0.5013   26.6899 C   0  0  0  0  0  0
   28.4775    1.0484   26.6310 O   0  0  0  0  0  0
   31.9554   -2.0622   24.8913 C   0  0  0  0  0  0
   32.9703   -2.9427   25.2489 C   0  0  0  0  0  0
   33.6641   -3.6256   24.2645 C   0  0  0  0  0  0
   33.3512   -3.4522   22.9217 C   0  0  0  0  0  0
   32.3372   -2.5802   22.5528 C   0  0  0  0  0  0
   31.6574   -1.8732   23.5379 C   0  0  0  0  0  0
   34.0454   -4.1386   21.9646 O   0  0  0  0  0  0
   28.9666    2.1040   29.0631 O   0  0  0  0  0  0
   32.8601    0.6886   31.3219 O   0  0  0  0  0  0
   30.7968   -2.1118   26.6333 H   0  0  0  0  0  0
   35.8666    2.0878   27.7306 H   0  0  0  0  0  0
   34.7568    1.0582   26.8372 H   0  0  0  0  0  0
   34.1417    2.1661   28.0499 H   0  0  0  0  0  0
   35.2475    0.8935   29.8613 H   0  0  0  0  0  0
   36.0463   -0.1444   28.7187 H   0  0  0  0  0  0
   34.0890   -1.2551   29.8527 H   0  0  0  0  0  0
   34.0332   -1.3047   28.1352 H   0  0  0  0  0  0
   30.5903    1.8578   31.0602 H   0  0  0  0  0  0
   30.4053    0.2581   24.7139 H   0  0  0  0  0  0
   29.2770   -0.9630   25.2028 H   0  0  0  0  0  0
   33.2299   -3.0931   26.2874 H   0  0  0  0  0  0
   34.4586   -4.2820   24.5625 H   0  0  0  0  0  0
   32.0790   -2.4456   21.5126 H   0  0  0  0  0  0
   30.8700   -1.2060   23.2397 H   0  0  0  0  0  0
   33.6196   -4.1248   21.1037 H   0  0  0  0  0  0
   28.4813    1.9962   28.2376 H   0  0  0  0  0  0
   33.6656    0.1765   31.2263 H   0  0  0  0  0  0
  1  2  1  0  0  0
  1 25  1  0  0  0
  1 26  1  0  0  0
  1 27  1  0  0  0
  2  3  1  0  0  0
  2 28  1  0  0  0
  2 29  1  0  0  0
  3  4  1  0  0  0
  3 30  1  0  0  0
  3 31  1  0  0  0
  4  9  1  0  0  0
  4  5  2  0  0  0
  5  6  1  0  0  0
  5 23  1  0  0  0
  6  7  2  0  0  0
  6 32  1  0  0  0
  7  8  1  0  0  0
  7 22  1  0  0  0
  8 13  1  0  0  0
  8  9  2  0  0  0
  9 10  1  0  0  0
 10 11  1  0  0  0
 11 24  1  0  0  0
 11 12  1  0  0  0
 11 15  1  0  0  0
 12 13  1  0  0  0
 12 33  1  0  0  0
 12 34  1  0  0  0
 13 14  2  0  0  0
 15 20  1  0  0  0
 15 16  2  0  0  0
 16 17  1  0  0  0
 16 35  1  0  0  0
 17 18  2  0  0  0
 17 36  1  0  0  0
 18 19  1  0  0  0
 18 21  1  0  0  0
 19 20  2  0  0  0
 19 37  1  0  0  0
 20 38  1  0  0  0
 21 39  1  0  0  0
 22 40  1  0  0  0
 23 41  1  0  0  0
M  END
> <s_m_entry_id>
17411

> <s_m_entry_name>
ligand_docking-pose.338

> <s_m_Source_Path>
/home/csk/Desktop/cluster/DUD-E-result/esr1

> <s_m_Source_File>
ligand_docking-pose.sdf

> <i_m_Source_File_Index>
338

> <i_lp_mmshare_version>
53161

> <i_f3d_flags>
0

> <r_lp_tautomer_probability>
0.999949999997365

> <s_lp_Force_Field>
OPLS_2005

> <r_lp_Energy>
24.588763

> <b_lp_Chiralities_Consistent>
1

> <s_lp_Variant>
364518-1

> <s_i_glide_gridfile>
glide-grid_1sj0

> <i_i_glide_lignum>
1253

> <i_i_glide_rotatable_bonds>
6

> <r_i_docking_score>
-8.45560220437749

> <r_i_glide_ligand_efficiency>
-0.367634878451195

> <r_i_glide_ligand_efficiency_sa>
-1.04550469037637

> <r_i_glide_ligand_efficiency_ln>
-2.04464128418028

> <r_i_glide_gscore>
-8.45560220437749

> <r_i_glide_lipo>
-4.53521824695888

> <r_i_glide_hbond>
0

> <r_i_glide_metal>
0

> <r_i_glide_rewards>
-2.25259077821552

> <r_i_glide_evdw>
-35.6723365783691

> <r_i_glide_ecoul>
-1.73606729507446

> <r_i_glide_erotb>
0.376233743976536

> <r_i_glide_esite>
0

> <r_i_glide_emodel>
-52.0993195683353

> <r_i_glide_energy>
-37.4084038734436

> <r_i_glide_einternal>
4.5355429649353

> <i_i_glide_confnum>
1

> <i_i_glide_posenum>
275

> <r_i_glide_eff_state_penalty>
0

> <s_user_duplicate_titles>
364518

> <s_m_subgroup_title>
dock_pv

> <s_m_subgroupid>
dock_pv1

> <b_m_subgroup_collapsed>
0

$$$$
318790
                    3D
 Schrodinger Suite 2021-1.
 35 37  0  0  1  0            999 V2000
   28.0429   -1.7069   27.3900 C   0  0  0  0  0  0
   28.4455   -0.2755   27.0099 C   0  0  0  0  0  0
   29.4748   -0.1420   25.5155 S   0  0  0  0  0  0
   30.9457   -1.0955   25.8529 C   0  0  0  0  0  0
   31.5930   -1.3072   27.0104 C   0  0  0  0  0  0
   32.6249   -2.3204   26.8474 C   0  0  0  0  0  0
   33.2600   -2.8367   27.7604 O   0  0  0  0  0  0
   32.6888   -2.5553   25.4071 C   0  0  0  0  0  0
   31.6601   -1.8417   24.8268 C   0  0  0  0  0  0
   31.4482   -1.9326   23.4639 C   0  0  0  0  0  0
   32.2352   -2.7756   22.6781 C   0  0  0  0  0  0
   33.2962   -3.4687   23.2604 C   0  0  0  0  0  0
   33.5376   -3.3465   24.6309 C   0  0  0  0  0  0
   31.9380   -2.9477   21.3542 O   0  0  0  0  0  0
   31.4646   -0.5445   28.2600 C   0  0  0  0  0  0
   31.3708   -1.2190   29.4699 C   0  0  0  0  0  0
   31.4689   -0.5213   30.6640 C   0  0  0  0  0  0
   31.5777    0.8608   30.6497 C   0  0  0  0  0  0
   31.5945    1.5584   29.4454 C   0  0  0  0  0  0
   31.5516    0.8526   28.2465 C   0  0  0  0  0  0
   31.6599    1.5254   31.8372 O   0  0  0  0  0  0
   27.3876   -1.7084   28.2607 H   0  0  0  0  0  0
   27.5086   -2.1955   26.5739 H   0  0  0  0  0  0
   28.9129   -2.3184   27.6301 H   0  0  0  0  0  0
   28.9353    0.2155   27.8478 H   0  0  0  0  0  0
   27.5416    0.3051   26.8240 H   0  0  0  0  0  0
   30.6074   -1.4039   23.0648 H   0  0  0  0  0  0
   33.9192   -4.1171   22.6614 H   0  0  0  0  0  0
   34.3506   -3.9085   25.0640 H   0  0  0  0  0  0
   32.2889   -3.7639   20.9836 H   0  0  0  0  0  0
   31.2769   -2.2916   29.4753 H   0  0  0  0  0  0
   31.4291   -1.0544   31.6007 H   0  0  0  0  0  0
   31.6626    2.6357   29.4320 H   0  0  0  0  0  0
   31.6206    1.3869   27.3097 H   0  0  0  0  0  0
   31.7420    2.4735   31.7224 H   0  0  0  0  0  0
  1  2  1  0  0  0
  1 22  1  0  0  0
  1 23  1  0  0  0
  1 24  1  0  0  0
  2  3  1  0  0  0
  2 25  1  0  0  0
  2 26  1  0  0  0
  3  4  1  0  0  0
  4  9  1  0  0  0
  4  5  2  0  0  0
  5  6  1  0  0  0
  5 15  1  0  0  0
  6  7  2  0  0  0
  6  8  1  0  0  0
  8 13  2  0  0  0
  8  9  1  0  0  0
  9 10  2  0  0  0
 10 11  1  0  0  0
 10 27  1  0  0  0
 11 12  2  0  0  0
 11 14  1  0  0  0
 12 13  1  0  0  0
 12 28  1  0  0  0
 13 29  1  0  0  0
 14 30  1  0  0  0
 15 20  1  0  0  0
 15 16  2  0  0  0
 16 17  1  0  0  0
 16 31  1  0  0  0
 17 18  2  0  0  0
 17 32  1  0  0  0
 18 19  1  0  0  0
 18 21  1  0  0  0
 19 20  2  0  0  0
 19 33  1  0  0  0
 20 34  1  0  0  0
 21 35  1  0  0  0
M  END
> <s_m_entry_id>
17412

> <s_m_entry_name>
ligand_docking-pose.339

> <s_m_Source_Path>
/home/csk/Desktop/cluster/DUD-E-result/esr1

> <s_m_Source_File>
ligand_docking-pose.sdf

> <i_m_Source_File_Index>
339

> <i_lp_mmshare_version>
53161

> <i_f3d_flags>
0

> <r_lp_tautomer_probability>
1

> <s_lp_Force_Field>
OPLS_2005

> <r_lp_Energy>
27.173001

> <b_lp_Chiralities_Consistent>
1

> <s_lp_Variant>
318790-1

> <s_i_glide_gridfile>
glide-grid_1sj0

> <i_i_glide_lignum>
1665

> <i_i_glide_rotatable_bonds>
5

> <r_i_docking_score>
-8.45445966919114

> <r_i_glide_ligand_efficiency>
-0.40259331758053

> <r_i_glide_ligand_efficiency_sa>
-1.1107244359952

> <r_i_glide_ligand_efficiency_ln>
-2.09034806936316

> <r_i_glide_gscore>
-8.45445966919114

> <r_i_glide_lipo>
-4.47525648412935

> <r_i_glide_hbond>
0

> <r_i_glide_metal>
0

> <r_i_glide_rewards>
-2.67538530936157

> <r_i_glide_evdw>
-31.5450286865234

> <r_i_glide_ecoul>
-0.925607919692993

> <r_i_glide_erotb>
0.412274746579904

> <r_i_glide_esite>
0

> <r_i_glide_emodel>
-36.9295440938112

> <r_i_glide_energy>
-32.4706366062164

> <r_i_glide_einternal>
4.56512022018433

> <i_i_glide_confnum>
9

> <i_i_glide_posenum>
300

> <r_i_glide_eff_state_penalty>
0

> <s_user_duplicate_titles>
318790

> <s_m_subgroup_title>
dock_pv

> <s_m_subgroupid>
dock_pv1

> <b_m_subgroup_collapsed>
0

$$$$
357385
                    3D
 Schrodinger Suite 2021-1.
 40 43  0  0  1  0            999 V2000
   28.9796   -3.1050   28.1293 C   0  0  0  0  0  0
   28.0966   -2.1947   27.2780 C   0  0  0  0  0  0
   28.4699   -0.7018   27.3561 C   0  0  0  0  0  0
   29.8487   -0.1721   26.8084 C   0  0  1  0  0  0
   29.8998    1.3600   27.0644 C   0  0  0  0  0  0
   29.8626    1.7032   28.5766 C   0  0  0  0  0  0
   30.8693    0.8758   29.4022 C   0  0  0  0  0  0
   30.9931    1.0861   30.6090 O   0  0  0  0  0  0
   31.5249   -0.2703   28.7289 C   0  0  0  0  0  0
   31.0959   -0.7373   27.5222 C   0  0  0  0  0  0
   31.7279   -1.7229   26.6064 C   0  0  0  0  0  0
   32.7414   -2.6631   26.8152 C   0  0  0  0  0  0
   33.2600   -3.4045   25.7537 C   0  0  0  0  0  0
   32.8318   -3.1436   24.4645 C   0  0  0  0  0  0
   31.8149   -2.2021   24.2398 C   0  0  0  0  0  0
   31.2149   -1.5327   25.3250 C   0  0  0  0  0  0
   30.0707   -0.5694   25.3298 C   0  0  0  0  0  0
   31.5976   -2.1420   22.9022 N   0  0  0  0  0  0
   32.4593   -3.0586   22.4273 N   0  0  3  0  0  0
   33.2506   -3.7002   23.2973 N   0  0  0  0  0  0
   32.7970   -0.7671   29.4196 C   0  0  0  0  0  0
   32.5035   -3.2666   21.4390 H   0  0  0  0  0  0
   28.4824   -4.0493   28.3536 H   0  0  0  0  0  0
   29.2303   -2.6064   29.0640 H   0  0  0  0  0  0
   29.9068   -3.3420   27.6142 H   0  0  0  0  0  0
   28.0600   -2.5420   26.2526 H   0  0  0  0  0  0
   27.0712   -2.2977   27.6371 H   0  0  0  0  0  0
   27.6782   -0.1538   26.8418 H   0  0  0  0  0  0
   28.3533   -0.4343   28.4046 H   0  0  0  0  0  0
   30.8217    1.7779   26.6640 H   0  0  0  0  0  0
   29.0813    1.8580   26.5433 H   0  0  0  0  0  0
   28.8716    1.4973   28.9770 H   0  0  0  0  0  0
   30.0600    2.7588   28.7405 H   0  0  0  0  0  0
   33.1373   -2.8520   27.8003 H   0  0  0  0  0  0
   34.0309   -4.1420   25.8640 H   0  0  0  0  0  0
   29.1958   -1.0437   24.9006 H   0  0  0  0  0  0
   30.3011    0.2580   24.6784 H   0  0  0  0  0  0
   33.1671   -0.1059   30.2055 H   0  0  0  0  0  0
   32.6257   -1.7420   29.8640 H   0  0  0  0  0  0
   33.6129   -0.8542   28.7025 H   0  0  0  0  0  0
  1  2  1  0  0  0
  1 23  1  0  0  0
  1 24  1  0  0  0
  1 25  1  0  0  0
  2  3  1  0  0  0
  2 26  1  0  0  0
  2 27  1  0  0  0
  3  4  1  0  0  0
  3 28  1  0  0  0
  3 29  1  0  0  0
  4 10  1  0  0  0
  4 17  1  0  0  0
  4  5  1  0  0  0
  5  6  1  0  0  0
  5 30  1  0  0  0
  5 31  1  0  0  0
  6  7  1  0  0  0
  6 32  1  0  0  0
  6 33  1  0  0  0
  7  8  2  0  0  0
  7  9  1  0  0  0
  9 10  2  0  0  0
  9 21  1  0  0  0
 10 11  1  0  0  0
 11 16  2  0  0  0
 11 12  1  0  0  0
 12 13  2  0  0  0
 12 34  1  0  0  0
 13 14  1  0  0  0
 13 35  1  0  0  0
 14 15  1  0  0  0
 14 20  2  0  0  0
 15 16  1  0  0  0
 15 18  2  0  0  0
 16 17  1  0  0  0
 17 36  1  0  0  0
 17 37  1  0  0  0
 18 19  1  0  0  0
 19 22  1  0  0  0
 19 20  1  0  0  0
 21 38  1  0  0  0
 21 39  1  0  0  0
 21 40  1  0  0  0
M  END
> <s_m_entry_id>
17413

> <s_m_entry_name>
ligand_docking-pose.340

> <s_m_Source_Path>
/home/csk/Desktop/cluster/DUD-E-result/esr1

> <s_m_Source_File>
ligand_docking-pose.sdf

> <i_m_Source_File_Index>
340

> <i_lp_mmshare_version>
53161

> <i_f3d_flags>
0

> <r_lp_tautomer_probability>
0.5

> <s_lp_Force_Field>
OPLS_2005

> <r_lp_Energy>
30.680134

> <b_lp_Chiralities_Consistent>
1

> <s_lp_Variant>
357385-2

> <s_i_glide_gridfile>
glide-grid_1sj0

> <i_i_glide_lignum>
1214

> <i_i_glide_rotatable_bonds>
2

> <r_i_docking_score>
-8.45182379071028

> <r_i_glide_ligand_efficiency>
-0.402467799557632

> <r_i_glide_ligand_efficiency_sa>
-1.11037814128761

> <r_i_glide_ligand_efficiency_ln>
-2.08969635373506

> <r_i_glide_gscore>
-8.45182379071028

> <r_i_glide_lipo>
-4.26303871099438

> <r_i_glide_hbond>
0

> <r_i_glide_metal>
0

> <r_i_glide_rewards>
-2.71205779263543

> <r_i_glide_evdw>
-31.618839263916

> <r_i_glide_ecoul>
-0.827527940273285

> <r_i_glide_erotb>
0.228343867156325

> <r_i_glide_esite>
0

> <r_i_glide_emodel>
-48.9894098000752

> <r_i_glide_energy>
-32.4463672041893

> <r_i_glide_einternal>
0.60056746006012

> <i_i_glide_confnum>
1

> <i_i_glide_posenum>
143

> <r_i_glide_eff_state_penalty>
0

> <s_user_duplicate_titles>
357385

> <s_m_subgroup_title>
dock_pv

> <s_m_subgroupid>
dock_pv1

> <b_m_subgroup_collapsed>
0

$$$$
354010
                    3D
 Schrodinger Suite 2021-1.
 42 46  0  0  1  0            999 V2000
   29.2536    1.3080   27.4870 C   0  0  0  0  0  0
   27.8828    1.3378   27.2597 C   0  0  0  0  0  0
   27.2225    0.1149   27.2421 C   0  0  0  0  0  0
   27.8980   -1.1188   27.3668 C   0  0  0  0  0  0
   26.8564   -2.0872   27.3367 C   0  0  0  0  0  0
   25.6854   -1.5138   27.2295 N   0  0  0  0  0  0
   25.8922   -0.1986   27.1137 N   0  0  0  0  0  0
   29.2906   -1.1151   27.5024 C   0  0  0  0  0  0
   29.9476    0.1058   27.6177 C   0  0  0  0  0  0
   31.3444   -0.1722   27.9878 C   0  0  0  0  0  0
   32.2274    0.5939   28.6764 C   0  0  0  0  0  0
   33.5553    0.1599   29.0881 C   0  0  0  0  0  0
   34.3410    0.8952   29.6830 O   0  0  0  0  0  0
   33.9461   -1.2468   28.6616 C   0  0  0  0  0  0
   32.7130   -2.1747   28.4887 C   0  0  0  0  0  0
   31.6315   -1.6109   27.5334 C   0  0  1  0  0  0
   30.2389   -2.2588   27.7087 C   0  0  0  0  0  0
   32.0950   -1.6335   26.0418 C   0  0  0  0  0  0
   32.3921   -3.0275   25.4358 C   0  0  0  0  0  0
   33.2106   -2.9491   24.1371 C   0  0  0  0  0  0
   32.9026   -3.8667   22.9836 C   0  0  0  0  0  0
   32.6163   -2.3752   22.8827 C   0  0  0  0  0  0
   31.6089    2.2581   29.4645 Br  0  0  0  0  0  0
   25.1175    0.4420   26.9886 H   0  0  0  0  0  0
   29.7694    2.2505   27.5451 H   0  0  0  0  0  0
   27.3489    2.2580   27.1400 H   0  0  0  0  0  0
   26.9402   -3.1624   27.3981 H   0  0  0  0  0  0
   34.4133   -1.0360   27.7015 H   0  0  0  0  0  0
   34.7082   -1.6482   29.3293 H   0  0  0  0  0  0
   32.2601   -2.2914   29.4639 H   0  0  0  0  0  0
   32.9889   -3.1838   28.2034 H   0  0  0  0  0  0
   30.0676   -3.0871   27.0245 H   0  0  0  0  0  0
   30.0738   -2.6466   28.7112 H   0  0  0  0  0  0
   32.9767   -1.0065   25.9421 H   0  0  0  0  0  0
   31.3456   -1.1465   25.4152 H   0  0  0  0  0  0
   31.4554   -3.5557   25.2630 H   0  0  0  0  0  0
   32.9596   -3.6443   26.1280 H   0  0  0  0  0  0
   34.2729   -2.8108   24.3342 H   0  0  0  0  0  0
   32.0693   -4.5617   23.0628 H   0  0  0  0  0  0
   33.7325   -4.2859   22.4131 H   0  0  0  0  0  0
   33.2584   -1.7517   22.2636 H   0  0  0  0  0  0
   31.5828   -2.0286   22.9026 H   0  0  0  0  0  0
  1  9  1  0  0  0
  1  2  2  0  0  0
  1 25  1  0  0  0
  2  3  1  0  0  0
  2 26  1  0  0  0
  3  7  1  0  0  0
  3  4  2  0  0  0
  4  5  1  0  0  0
  4  8  1  0  0  0
  5  6  2  0  0  0
  5 27  1  0  0  0
  6  7  1  0  0  0
  7 24  1  0  0  0
  8 17  1  0  0  0
  8  9  2  0  0  0
  9 10  1  0  0  0
 10 16  1  0  0  0
 10 11  2  0  0  0
 11 12  1  0  0  0
 11 23  1  0  0  0
 12 13  2  0  0  0
 12 14  1  0  0  0
 14 15  1  0  0  0
 14 28  1  0  0  0
 14 29  1  0  0  0
 15 16  1  0  0  0
 15 30  1  0  0  0
 15 31  1  0  0  0
 16 17  1  0  0  0
 16 18  1  0  0  0
 17 32  1  0  0  0
 17 33  1  0  0  0
 18 19  1  0  0  0
 18 34  1  0  0  0
 18 35  1  0  0  0
 19 20  1  0  0  0
 19 36  1  0  0  0
 19 37  1  0  0  0
 20 22  1  0  0  0
 20 21  1  0  0  0
 20 38  1  0  0  0
 21 22  1  0  0  0
 21 39  1  0  0  0
 21 40  1  0  0  0
 22 41  1  0  0  0
 22 42  1  0  0  0
M  END
> <s_m_entry_id>
17414

> <s_m_entry_name>
ligand_docking-pose.341

> <s_m_Source_Path>
/home/csk/Desktop/cluster/DUD-E-result/esr1

> <s_m_Source_File>
ligand_docking-pose.sdf

> <i_m_Source_File_Index>
341

> <i_lp_mmshare_version>
53161

> <i_f3d_flags>
0

> <r_lp_tautomer_probability>
1

> <s_lp_Force_Field>
OPLS_2005

> <r_lp_Energy>
47.239695

> <b_lp_Chiralities_Consistent>
1

> <s_lp_Variant>
354010-1

> <s_i_glide_gridfile>
glide-grid_1sj0

> <i_i_glide_lignum>
56

> <i_i_glide_rotatable_bonds>
3

> <r_i_docking_score>
-8.44416882798319

> <r_i_glide_ligand_efficiency>
-0.367137775129704

> <r_i_glide_ligand_efficiency_sa>
-1.04409099465629

> <r_i_glide_ligand_efficiency_ln>
-2.04187659009601

> <r_i_glide_gscore>
-8.44416882798319

> <r_i_glide_lipo>
-4.23679415484698

> <r_i_glide_hbond>
-0.31371700987816

> <r_i_glide_metal>
0

> <r_i_glide_rewards>
-2.21285206143034

> <r_i_glide_evdw>
-34.8993644714355

> <r_i_glide_ecoul>
-1.5325939655304

> <r_i_glide_erotb>
0.294051716573632

> <r_i_glide_esite>
0

> <r_i_glide_emodel>
-50.520204146435

> <r_i_glide_energy>
-36.4319584369659

> <r_i_glide_einternal>
1.60552549362183

> <i_i_glide_confnum>
31

> <i_i_glide_posenum>
62

> <r_i_glide_eff_state_penalty>
0

> <s_user_duplicate_titles>
354010

> <s_m_subgroup_title>
dock_pv

> <s_m_subgroupid>
dock_pv1

> <b_m_subgroup_collapsed>
0

$$$$
223508
                    3D
 Schrodinger Suite 2021-1.
 35 36  0  0  1  0            999 V2000
   35.2599    1.7968   28.2055 C   0  0  0  0  0  0
   34.0103    1.1195   27.8359 C   0  0  0  0  0  0
   32.9816    0.5534   27.4998 C   0  0  0  0  0  0
   31.7407   -0.1158   27.0509 C   0  0  2  0  0  0
   30.8731   -0.6341   28.2279 C   0  0  0  0  0  0
   29.4175   -0.8545   27.8384 C   0  0  0  0  0  0
   28.9621   -2.1204   27.4577 C   0  0  0  0  0  0
   27.6350   -2.2904   27.0643 C   0  0  0  0  0  0
   26.7700   -1.1973   27.0655 C   0  0  0  0  0  0
   27.2151    0.0596   27.4639 C   0  0  0  0  0  0
   28.5400    0.2326   27.8488 C   0  0  0  0  0  0
   25.4714   -1.3420   26.6640 O   0  0  0  0  0  0
   32.0457   -1.1855   25.9920 C   0  0  0  0  0  0
   32.7695   -2.3366   26.3279 C   0  0  0  0  0  0
   33.1001   -3.2617   25.3433 C   0  0  0  0  0  0
   32.7090   -3.0499   24.0256 C   0  0  0  0  0  0
   31.9645   -1.9267   23.6868 C   0  0  0  0  0  0
   31.6199   -1.0038   24.6714 C   0  0  0  0  0  0
   33.0531   -3.9607   23.0640 O   0  0  0  0  0  0
   35.0984    2.8725   28.2637 H   0  0  0  0  0  0
   35.5982    1.4342   29.1753 H   0  0  0  0  0  0
   36.0296    1.5893   27.4606 H   0  0  0  0  0  0
   31.1890    0.6962   26.5748 H   0  0  0  0  0  0
   31.2914   -1.5468   28.6535 H   0  0  0  0  0  0
   30.8872    0.0753   29.0584 H   0  0  0  0  0  0
   29.6361   -2.9654   27.4401 H   0  0  0  0  0  0
   27.2843   -3.2631   26.7493 H   0  0  0  0  0  0
   26.5360    0.8997   27.4632 H   0  0  0  0  0  0
   28.8858    1.2134   28.1432 H   0  0  0  0  0  0
   25.2599   -2.2141   26.2717 H   0  0  0  0  0  0
   33.1008   -2.4993   27.3434 H   0  0  0  0  0  0
   33.6610   -4.1422   25.6025 H   0  0  0  0  0  0
   31.6571   -1.7654   22.6654 H   0  0  0  0  0  0
   31.0346   -0.1419   24.3983 H   0  0  0  0  0  0
   32.6452   -3.8055   22.2083 H   0  0  0  0  0  0
  1  2  1  0  0  0
  1 20  1  0  0  0
  1 21  1  0  0  0
  1 22  1  0  0  0
  2  3  3  0  0  0
  3  4  1  0  0  0
  4  5  1  0  0  0
  4 13  1  0  0  0
  4 23  1  0  0  0
  5  6  1  0  0  0
  5 24  1  0  0  0
  5 25  1  0  0  0
  6 11  1  0  0  0
  6  7  2  0  0  0
  7  8  1  0  0  0
  7 26  1  0  0  0
  8  9  2  0  0  0
  8 27  1  0  0  0
  9 10  1  0  0  0
  9 12  1  0  0  0
 10 11  2  0  0  0
 10 28  1  0  0  0
 11 29  1  0  0  0
 12 30  1  0  0  0
 13 18  1  0  0  0
 13 14  2  0  0  0
 14 15  1  0  0  0
 14 31  1  0  0  0
 15 16  2  0  0  0
 15 32  1  0  0  0
 16 17  1  0  0  0
 16 19  1  0  0  0
 17 18  2  0  0  0
 17 33  1  0  0  0
 18 34  1  0  0  0
 19 35  1  0  0  0
M  END
> <s_m_entry_id>
17415

> <s_m_entry_name>
ligand_docking-pose.342

> <s_m_Source_Path>
/home/csk/Desktop/cluster/DUD-E-result/esr1

> <s_m_Source_File>
ligand_docking-pose.sdf

> <i_m_Source_File_Index>
342

> <i_lp_mmshare_version>
53161

> <i_f3d_flags>
0

> <r_lp_tautomer_probability>
0.99999999999473

> <s_lp_Force_Field>
OPLS_2005

> <r_lp_Energy>
10.493124

> <b_lp_Chiralities_Consistent>
1

> <s_lp_Variant>
223508-1

> <s_i_glide_gridfile>
glide-grid_1sj0

> <i_i_glide_lignum>
1425

> <i_i_glide_rotatable_bonds>
6

> <r_i_docking_score>
-8.43795062362991

> <r_i_glide_ligand_efficiency>
-0.444102664401574

> <r_i_glide_ligand_efficiency_sa>
-1.18504428072787

> <r_i_glide_ligand_efficiency_ln>
-2.13920171365233

> <r_i_glide_gscore>
-8.43795062362991

> <r_i_glide_lipo>
-4.02861586006935

> <r_i_glide_hbond>
-0.16

> <r_i_glide_metal>
0

> <r_i_glide_rewards>
-2.40006881985767

> <r_i_glide_evdw>
-34.5855369567871

> <r_i_glide_ecoul>
-5.94486474990845

> <r_i_glide_erotb>
0.771740616622732

> <r_i_glide_esite>
0

> <r_i_glide_emodel>
-61.724580107116

> <r_i_glide_energy>
-40.5304017066956

> <r_i_glide_einternal>
1.8095760345459

> <i_i_glide_confnum>
5

> <i_i_glide_posenum>
89

> <r_i_glide_eff_state_penalty>
0

> <s_user_duplicate_titles>
223508

> <s_m_subgroup_title>
dock_pv

> <s_m_subgroupid>
dock_pv1

> <b_m_subgroup_collapsed>
0

$$$$
322875
                    3D
 Schrodinger Suite 2021-1.
 31 33  0  0  1  0            999 V2000
   33.1343   -3.3420   24.5943 C   0  0  0  0  0  0
   33.4602   -4.0720   23.4640 C   0  0  0  0  0  0
   32.9523   -3.7420   22.2207 C   0  0  0  0  0  0
   32.1407   -2.6254   22.0968 C   0  0  0  0  0  0
   31.8514   -1.8554   23.2240 C   0  0  0  0  0  0
   32.3050   -2.2260   24.4956 C   0  0  0  0  0  0
   31.9034   -1.4702   25.7163 C   0  0  0  0  0  0
   32.7215   -1.4419   26.8420 C   0  0  0  0  0  0
   32.3818   -0.7105   27.9960 C   0  0  0  0  0  0
   33.2687   -0.7131   29.0957 C   0  0  0  0  0  0
   32.9733    0.0138   30.2332 C   0  0  0  0  0  0
   31.8109    0.7544   30.3123 C   0  0  0  0  0  0
   30.8960    0.7851   29.2548 C   0  0  0  0  0  0
   31.1559    0.0336   28.0451 C   0  0  0  0  0  0
   30.3035   -0.0421   26.8785 C   0  0  0  0  0  0
   30.6922   -0.7887   25.7679 C   0  0  0  0  0  0
   29.0199    0.6296   26.7518 C   0  0  0  0  0  0
   28.0041    1.1703   26.6640 N   0  0  0  0  0  0
   29.3376    1.8580   29.5159 Br  0  0  0  0  0  0
   31.5856    1.4580   31.4640 O   0  0  0  0  0  0
   33.2600   -4.5252   21.1393 O   0  0  0  0  0  0
   33.5067   -3.6891   25.5457 H   0  0  0  0  0  0
   34.0600   -4.9420   23.5815 H   0  0  0  0  0  0
   31.7520   -2.3502   21.1280 H   0  0  0  0  0  0
   31.2600   -0.9651   23.0995 H   0  0  0  0  0  0
   33.6600   -1.9718   26.8410 H   0  0  0  0  0  0
   34.1877   -1.2815   29.0501 H   0  0  0  0  0  0
   33.6600    0.0071   31.0641 H   0  0  0  0  0  0
   30.0331   -0.8417   24.9112 H   0  0  0  0  0  0
   30.7725    1.9670   31.4221 H   0  0  0  0  0  0
   32.4886   -4.8657   20.6640 H   0  0  0  0  0  0
  1  6  1  0  0  0
  1  2  2  0  0  0
  1 22  1  0  0  0
  2  3  1  0  0  0
  2 23  1  0  0  0
  3  4  2  0  0  0
  3 21  1  0  0  0
  4  5  1  0  0  0
  4 24  1  0  0  0
  5  6  2  0  0  0
  5 25  1  0  0  0
  6  7  1  0  0  0
  7 16  1  0  0  0
  7  8  2  0  0  0
  8  9  1  0  0  0
  8 26  1  0  0  0
  9 14  2  0  0  0
  9 10  1  0  0  0
 10 11  2  0  0  0
 10 27  1  0  0  0
 11 12  1  0  0  0
 11 28  1  0  0  0
 12 13  2  0  0  0
 12 20  1  0  0  0
 13 14  1  0  0  0
 13 19  1  0  0  0
 14 15  1  0  0  0
 15 16  2  0  0  0
 15 17  1  0  0  0
 16 29  1  0  0  0
 17 18  3  0  0  0
 20 30  1  0  0  0
 21 31  1  0  0  0
M  END
> <s_m_entry_id>
17416

> <s_m_entry_name>
ligand_docking-pose.343

> <s_m_Source_Path>
/home/csk/Desktop/cluster/DUD-E-result/esr1

> <s_m_Source_File>
ligand_docking-pose.sdf

> <i_m_Source_File_Index>
343

> <i_lp_mmshare_version>
53161

> <i_f3d_flags>
0

> <r_lp_tautomer_probability>
0.999999999997365

> <s_lp_Force_Field>
OPLS_2005

> <r_lp_Energy>
25.111528

> <b_lp_Chiralities_Consistent>
1

> <s_lp_Variant>
322875-1

> <s_i_glide_gridfile>
glide-grid_1sj0

> <i_i_glide_lignum>
231

> <i_i_glide_rotatable_bonds>
3

> <r_i_docking_score>
-8.42695012021422

> <r_i_glide_ligand_efficiency>
-0.40128333905782

> <r_i_glide_ligand_efficiency_sa>
-1.10711030458202

> <r_i_glide_ligand_efficiency_ln>
-2.0835463889669

> <r_i_glide_gscore>
-8.42695012021422

> <r_i_glide_lipo>
-3.96109295357308

> <r_i_glide_hbond>
-0.14606822434075

> <r_i_glide_metal>
0

> <r_i_glide_rewards>
-2.4259177401566

> <r_i_glide_evdw>
-32.346363067627

> <r_i_glide_ecoul>
-2.93451571464539

> <r_i_glide_erotb>
0.163624308434359

> <r_i_glide_esite>
0

> <r_i_glide_emodel>
-51.2648606431678

> <r_i_glide_energy>
-35.2808787822723

> <r_i_glide_einternal>
3.01253819465637

> <i_i_glide_confnum>
3

> <i_i_glide_posenum>
192

> <r_i_glide_eff_state_penalty>
0

> <s_user_duplicate_titles>
322875

> <s_m_subgroup_title>
dock_pv

> <s_m_subgroupid>
dock_pv1

> <b_m_subgroup_collapsed>
0

$$$$
517342
                    3D
 Schrodinger Suite 2021-1.
 53 56  0  0  1  0            999 V2000
   35.6574   -1.3770   20.2120 C   0  0  0  0  0  0
   34.4928   -2.1769   20.5880 N   0  0  0  0  0  0
   34.0004   -2.8817   19.4024 C   0  0  0  0  0  0
   34.8476   -3.0988   21.6745 C   0  0  0  0  0  0
   33.6545   -3.9288   22.2037 C   0  0  0  0  0  0
   33.6600   -3.9983   23.6331 O   0  0  0  0  0  0
   32.9892   -3.0461   24.3782 C   0  0  0  0  0  0
   32.4200   -1.8883   23.8377 C   0  0  0  0  0  0
   31.7337   -1.0000   24.6563 C   0  0  0  0  0  0
   31.6117   -1.2366   26.0264 C   0  0  0  0  0  0
   32.1806   -2.3909   26.5686 C   0  0  0  0  0  0
   32.8661   -3.2840   25.7484 C   0  0  0  0  0  0
   30.8081   -0.3072   26.8730 C   0  0  0  0  0  0
   31.4962    0.6240   27.6126 C   0  0  0  0  0  0
   30.9168    1.7114   28.5145 C   0  0  0  0  0  0
   29.4326    1.9378   28.4202 C   0  0  0  0  0  0
   28.8600    0.7391   28.8544 O   0  0  0  0  0  0
   28.4344   -0.0905   27.8634 C   0  0  0  0  0  0
   29.3137   -0.5535   26.8671 C   0  0  0  0  0  0
   28.7323   -1.3420   25.8640 C   0  0  0  0  0  0
   27.3952   -1.7420   25.8907 C   0  0  0  0  0  0
   26.5637   -1.3054   26.9009 C   0  0  0  0  0  0
   27.0857   -0.4680   27.8693 C   0  0  0  0  0  0
   32.9402    0.7051   27.6321 C   0  0  0  0  0  0
   33.8153   -0.0730   28.3792 C   0  0  0  0  0  0
   35.1342    0.3641   28.2775 C   0  0  0  0  0  0
   35.2604    1.4802   27.4641 C   0  0  0  0  0  0
   33.7544    1.9748   26.7788 S   0  0  0  0  0  0
   36.0597   -0.8280   21.0640 H   0  0  0  0  0  0
   36.4605   -1.9977   19.8099 H   0  0  0  0  0  0
   35.3888   -0.6404   19.4530 H   0  0  0  0  0  0
   33.0906   -3.4436   19.6157 H   0  0  0  0  0  0
   33.7538   -2.1750   18.6082 H   0  0  0  0  0  0
   34.7422   -3.5822   19.0139 H   0  0  0  0  0  0
   35.6378   -3.7682   21.3329 H   0  0  0  0  0  0
   35.2770   -2.5419   22.5072 H   0  0  0  0  0  0
   32.6863   -3.5988   21.8228 H   0  0  0  0  0  0
   33.7589   -4.9420   21.8219 H   0  0  0  0  0  0
   32.4941   -1.6639   22.7854 H   0  0  0  0  0  0
   31.2659   -0.1420   24.2109 H   0  0  0  0  0  0
   32.0806   -2.5983   27.6233 H   0  0  0  0  0  0
   33.2902   -4.1796   26.1742 H   0  0  0  0  0  0
   31.1721    1.4578   29.5453 H   0  0  0  0  0  0
   31.4188    2.6578   28.3202 H   0  0  0  0  0  0
   29.1212    2.7193   29.1075 H   0  0  0  0  0  0
   29.1000    2.2580   27.4296 H   0  0  0  0  0  0
   29.3268   -1.7393   25.0590 H   0  0  0  0  0  0
   26.9977   -2.3988   25.1305 H   0  0  0  0  0  0
   25.5291   -1.6158   26.9250 H   0  0  0  0  0  0
   26.4353   -0.1420   28.6638 H   0  0  0  0  0  0
   33.5067   -0.9078   28.9911 H   0  0  0  0  0  0
   35.9642   -0.1109   28.7810 H   0  0  0  0  0  0
   36.1699    2.0082   27.2163 H   0  0  0  0  0  0
  1  2  1  0  0  0
  1 29  1  0  0  0
  1 30  1  0  0  0
  1 31  1  0  0  0
  2  3  1  0  0  0
  2  4  1  0  0  0
  3 32  1  0  0  0
  3 33  1  0  0  0
  3 34  1  0  0  0
  4  5  1  0  0  0
  4 35  1  0  0  0
  4 36  1  0  0  0
  5  6  1  0  0  0
  5 37  1  0  0  0
  5 38  1  0  0  0
  6  7  1  0  0  0
  7 12  1  0  0  0
  7  8  2  0  0  0
  8  9  1  0  0  0
  8 39  1  0  0  0
  9 10  2  0  0  0
  9 40  1  0  0  0
 10 11  1  0  0  0
 10 13  1  0  0  0
 11 12  2  0  0  0
 11 41  1  0  0  0
 12 42  1  0  0  0
 13 19  1  0  0  0
 13 14  2  0  0  0
 14 15  1  0  0  0
 14 24  1  0  0  0
 15 16  1  0  0  0
 15 43  1  0  0  0
 15 44  1  0  0  0
 16 17  1  0  0  0
 16 45  1  0  0  0
 16 46  1  0  0  0
 17 18  1  0  0  0
 18 23  2  0  0  0
 18 19  1  0  0  0
 19 20  2  0  0  0
 20 21  1  0  0  0
 20 47  1  0  0  0
 21 22  2  0  0  0
 21 48  1  0  0  0
 22 23  1  0  0  0
 22 49  1  0  0  0
 23 50  1  0  0  0
 24 28  1  0  0  0
 24 25  2  0  0  0
 25 26  1  0  0  0
 25 51  1  0  0  0
 26 27  2  0  0  0
 26 52  1  0  0  0
 27 28  1  0  0  0
 27 53  1  0  0  0
M  END
> <s_m_entry_id>
17417

> <s_m_entry_name>
ligand_docking-pose.344

> <s_m_Source_Path>
/home/csk/Desktop/cluster/DUD-E-result/esr1

> <s_m_Source_File>
ligand_docking-pose.sdf

> <i_m_Source_File_Index>
344

> <i_lp_mmshare_version>
53161

> <i_f3d_flags>
0

> <r_lp_tautomer_probability>
1

> <s_lp_Force_Field>
OPLS_2005

> <r_lp_Energy>
46.230258

> <b_lp_Chiralities_Consistent>
1

> <s_lp_Variant>
517342-1

> <s_i_glide_gridfile>
glide-grid_1sj0

> <i_i_glide_lignum>
1720

> <i_i_glide_rotatable_bonds>
6

> <r_i_docking_score>
-8.42651373507855

> <r_i_glide_ligand_efficiency>
-0.300946919109948

> <r_i_glide_ligand_efficiency_sa>
-0.913852094674178

> <r_i_glide_ligand_efficiency_ln>
-1.94508678325017

> <r_i_glide_gscore>
-8.42651373507855

> <r_i_glide_lipo>
-5.11152236346616

> <r_i_glide_hbond>
0

> <r_i_glide_metal>
0

> <r_i_glide_rewards>
-1.63838174064482

> <r_i_glide_evdw>
-39.5870590209961

> <r_i_glide_ecoul>
-2.22532773017883

> <r_i_glide_erotb>
0.636542479609064

> <r_i_glide_esite>
0

> <r_i_glide_emodel>
-52.5452530320383

> <r_i_glide_energy>
-41.8123867511749

> <r_i_glide_einternal>
9.45258235931396

> <i_i_glide_confnum>
22

> <i_i_glide_posenum>
71

> <r_i_glide_eff_state_penalty>
0

> <s_user_duplicate_titles>
517342

> <s_m_subgroup_title>
dock_pv

> <s_m_subgroupid>
dock_pv1

> <b_m_subgroup_collapsed>
0

$$$$
357535
                    3D
 Schrodinger Suite 2021-1.
 37 40  0  0  1  0            999 V2000
   30.8564    1.4318   30.4633 C   0  0  0  0  0  0
   31.9160    0.3386   30.6579 C   0  0  0  0  0  0
   32.2875   -0.5297   29.4092 C   0  0  2  0  0  0
   33.7838   -0.9549   29.4175 C   0  0  0  0  0  0
   34.7410    0.2535   29.3367 C   0  0  0  0  0  0
   34.3622    1.2006   28.1897 C   0  0  0  0  0  0
   35.0682    2.1798   27.9461 O   0  0  0  0  0  0
   33.0424    0.9902   27.5388 C   0  0  0  0  0  0
   32.0752    0.1771   28.0618 C   0  0  0  0  0  0
   30.7315   -0.2758   27.5655 C   0  0  0  0  0  0
   29.8859    0.1841   26.5581 C   0  0  0  0  0  0
   28.6815   -0.4301   26.2230 C   0  0  0  0  0  0
   28.3649   -1.6178   26.8689 C   0  0  0  0  0  0
   29.2084   -2.1405   27.8657 C   0  0  0  0  0  0
   30.3568   -1.4218   28.2588 C   0  0  0  0  0  0
   31.3609   -1.7420   29.3032 C   0  0  0  0  0  0
   28.6988   -3.3398   28.2640 N   0  0  0  0  0  0
   27.5211   -3.5562   27.5877 N   0  0  0  0  0  0
   27.3156   -2.5188   26.7621 N   0  0  0  0  0  0
   32.9617    1.6449   26.1743 C   0  0  0  0  0  0
   26.5027   -2.5080   26.1556 H   0  0  0  0  0  0
   30.5973    1.8580   31.4301 H   0  0  0  0  0  0
   31.2394    2.2357   29.8327 H   0  0  0  0  0  0
   29.9394    1.0580   30.0107 H   0  0  0  0  0  0
   31.5962   -0.3190   31.4640 H   0  0  0  0  0  0
   32.7917    0.8386   31.0660 H   0  0  0  0  0  0
   33.9905   -1.5998   28.5617 H   0  0  0  0  0  0
   34.0042   -1.5862   30.2640 H   0  0  0  0  0  0
   34.6927    0.8362   30.2536 H   0  0  0  0  0  0
   35.7732   -0.0682   29.1983 H   0  0  0  0  0  0
   30.1062    1.0580   26.0091 H   0  0  0  0  0  0
   28.0600   -0.0160   25.4640 H   0  0  0  0  0  0
   31.9763   -2.5420   28.9424 H   0  0  0  0  0  0
   30.8600   -2.0316   30.2296 H   0  0  0  0  0  0
   33.9361    1.8394   25.7205 H   0  0  0  0  0  0
   32.4600    0.9863   25.4711 H   0  0  0  0  0  0
   32.4600    2.6016   26.2640 H   0  0  0  0  0  0
  1  2  1  0  0  0
  1 22  1  0  0  0
  1 23  1  0  0  0
  1 24  1  0  0  0
  2  3  1  0  0  0
  2 25  1  0  0  0
  2 26  1  0  0  0
  3  9  1  0  0  0
  3 16  1  0  0  0
  3  4  1  0  0  0
  4  5  1  0  0  0
  4 27  1  0  0  0
  4 28  1  0  0  0
  5  6  1  0  0  0
  5 29  1  0  0  0
  5 30  1  0  0  0
  6  7  2  0  0  0
  6  8  1  0  0  0
  8  9  2  0  0  0
  8 20  1  0  0  0
  9 10  1  0  0  0
 10 15  1  0  0  0
 10 11  2  0  0  0
 11 12  1  0  0  0
 11 31  1  0  0  0
 12 13  2  0  0  0
 12 32  1  0  0  0
 13 19  1  0  0  0
 13 14  1  0  0  0
 14 15  2  0  0  0
 14 17  1  0  0  0
 15 16  1  0  0  0
 16 33  1  0  0  0
 16 34  1  0  0  0
 17 18  2  0  0  0
 18 19  1  0  0  0
 19 21  1  0  0  0
 20 35  1  0  0  0
 20 36  1  0  0  0
 20 37  1  0  0  0
M  END
> <s_m_entry_id>
17418

> <s_m_entry_name>
ligand_docking-pose.345

> <s_m_Source_Path>
/home/csk/Desktop/cluster/DUD-E-result/esr1

> <s_m_Source_File>
ligand_docking-pose.sdf

> <i_m_Source_File_Index>
345

> <i_lp_mmshare_version>
53161

> <i_f3d_flags>
0

> <r_lp_tautomer_probability>
0.25

> <s_lp_Force_Field>
OPLS_2005

> <r_lp_Energy>
45.633821

> <b_lp_Chiralities_Consistent>
1

> <s_lp_Variant>
357535-3

> <s_i_glide_gridfile>
glide-grid_1sj0

> <i_i_glide_lignum>
1080

> <i_i_glide_rotatable_bonds>
1

> <r_i_docking_score>
-8.42482927319235

> <r_i_glide_ligand_efficiency>
-0.421241463659617

> <r_i_glide_ligand_efficiency_sa>
-1.14342524865609

> <r_i_glide_ligand_efficiency_ln>
-2.10845689761364

> <r_i_glide_gscore>
-8.42482927319235

> <r_i_glide_lipo>
-3.84274654930795

> <r_i_glide_hbond>
-0.0515786608935578

> <r_i_glide_metal>
0

> <r_i_glide_rewards>
-2.85355961790763

> <r_i_glide_evdw>
-30.1524963378906

> <r_i_glide_ecoul>
-0.847251832485199

> <r_i_glide_erotb>
0

> <r_i_glide_esite>
-0.0422318533159051

> <r_i_glide_emodel>
-43.0774092684729

> <r_i_glide_energy>
-30.9997481703758

> <r_i_glide_einternal>
1.2536985874176

> <i_i_glide_confnum>
1

> <i_i_glide_posenum>
210

> <r_i_glide_eff_state_penalty>
0

> <s_user_duplicate_titles>
357535

> <s_m_subgroup_title>
dock_pv

> <s_m_subgroupid>
dock_pv1

> <b_m_subgroup_collapsed>
0

$$$$
396496
                    3D
 Schrodinger Suite 2021-1.
 42 45  0  0  1  0            999 V2000
   28.7601   -2.8855   27.4640 C   0  0  0  0  0  0
   27.4043   -2.9347   27.0873 C   0  0  0  0  0  0
   26.5505   -1.8902   27.4640 C   0  0  0  0  0  0
   27.0030   -0.8767   28.2549 C   0  0  0  0  0  0
   28.3344   -0.8338   28.5721 C   0  0  0  0  0  0
   29.2589   -1.7813   28.1674 C   0  0  0  0  0  0
   30.7583   -1.4823   28.4587 C   0  0  2  0  0  0
   31.3018   -0.0646   28.0588 C   0  0  2  0  0  0
   30.8044    1.1489   28.8905 C   0  0  0  0  0  0
   29.6602    2.0249   28.3145 C   0  0  0  0  0  0
   29.2438    1.8115   26.8373 C   0  0  0  0  0  0
   29.6804    0.5149   26.1375 C   0  0  0  0  0  0
   31.1131    0.1238   26.5319 C   0  0  2  0  0  0
   31.6354   -1.1007   25.7865 C   0  0  0  0  0  0
   31.8896   -1.1049   24.4090 C   0  0  0  0  0  0
   32.4695   -2.2131   23.7893 C   0  0  0  0  0  0
   32.8394   -3.3189   24.5429 C   0  0  0  0  0  0
   32.5613   -3.3422   25.9048 C   0  0  0  0  0  0
   31.9200   -2.2692   26.5066 C   0  0  0  0  0  0
   31.6952   -2.3900   27.8605 O   0  0  0  0  0  0
   32.6971   -2.2205   22.4445 O   0  0  0  0  0  0
   25.2601   -1.7420   27.0640 O   0  0  0  0  0  0
   30.8700   -1.6121   29.5362 H   0  0  0  0  0  0
   32.3802   -0.0920   28.2399 H   0  0  0  0  0  0
   31.7761    0.9476   26.2640 H   0  0  0  0  0  0
   29.4280   -3.6629   27.1448 H   0  0  0  0  0  0
   27.0356   -3.7474   26.4775 H   0  0  0  0  0  0
   26.3342   -0.0870   28.5478 H   0  0  0  0  0  0
   28.6547    0.0288   29.0642 H   0  0  0  0  0  0
   30.6571    0.8871   29.9393 H   0  0  0  0  0  0
   31.6626    1.8221   28.9502 H   0  0  0  0  0  0
   28.7799    2.0023   28.9549 H   0  0  0  0  0  0
   29.9487    3.0580   28.4487 H   0  0  0  0  0  0
   28.1618    1.9177   26.7416 H   0  0  0  0  0  0
   29.6600    2.6318   26.2641 H   0  0  0  0  0  0
   29.6485    0.6580   25.0640 H   0  0  0  0  0  0
   28.9513   -0.2735   26.2527 H   0  0  0  0  0  0
   31.6600   -0.2329   23.8174 H   0  0  0  0  0  0
   33.3290   -4.1590   24.0755 H   0  0  0  0  0  0
   32.8338   -4.2037   26.4946 H   0  0  0  0  0  0
   32.9482   -3.0851   22.1094 H   0  0  0  0  0  0
   24.9784   -2.4452   26.4346 H   0  0  0  0  0  0
  1  6  1  0  0  0
  1  2  2  0  0  0
  1 26  1  0  0  0
  2  3  1  0  0  0
  2 27  1  0  0  0
  3  4  2  0  0  0
  3 22  1  0  0  0
  4  5  1  0  0  0
  4 28  1  0  0  0
  5  6  2  0  0  0
  5 29  1  0  0  0
  6  7  1  0  0  0
  7 23  1  0  0  0
  7 20  1  0  0  0
  7  8  1  0  0  0
  8 24  1  0  0  0
  8 13  1  0  0  0
  8  9  1  0  0  0
  9 10  1  0  0  0
  9 30  1  0  0  0
  9 31  1  0  0  0
 10 11  1  0  0  0
 10 32  1  0  0  0
 10 33  1  0  0  0
 11 12  1  0  0  0
 11 34  1  0  0  0
 11 35  1  0  0  0
 12 13  1  0  0  0
 12 36  1  0  0  0
 12 37  1  0  0  0
 13 25  1  0  0  0
 13 14  1  0  0  0
 14 19  2  0  0  0
 14 15  1  0  0  0
 15 16  2  0  0  0
 15 38  1  0  0  0
 16 17  1  0  0  0
 16 21  1  0  0  0
 17 18  2  0  0  0
 17 39  1  0  0  0
 18 19  1  0  0  0
 18 40  1  0  0  0
 19 20  1  0  0  0
 21 41  1  0  0  0
 22 42  1  0  0  0
M  END
> <s_m_entry_id>
17419

> <s_m_entry_name>
ligand_docking-pose.346

> <s_m_Source_Path>
/home/csk/Desktop/cluster/DUD-E-result/esr1

> <s_m_Source_File>
ligand_docking-pose.sdf

> <i_m_Source_File_Index>
346

> <i_lp_mmshare_version>
53161

> <i_f3d_flags>
0

> <r_lp_tautomer_probability>
0.999999999997365

> <s_lp_Force_Field>
OPLS_2005

> <r_lp_Energy>
25.517026

> <b_lp_Chiralities_Consistent>
1

> <s_lp_Variant>
396496-1

> <s_i_glide_gridfile>
glide-grid_1sj0

> <i_i_glide_lignum>
476

> <i_i_glide_rotatable_bonds>
3

> <r_i_docking_score>
-8.41681610821617

> <r_i_glide_ligand_efficiency>
-0.382582550373462

> <r_i_glide_ligand_efficiency_sa>
-1.07201135226434

> <r_i_glide_ligand_efficiency_ln>
-2.0573768676751

> <r_i_glide_gscore>
-8.41681610821617

> <r_i_glide_lipo>
-4.23529337635584

> <r_i_glide_hbond>
-0.215571492414039

> <r_i_glide_metal>
0

> <r_i_glide_rewards>
-2.2884525

> <r_i_glide_evdw>
-11.6794414520264

> <r_i_glide_ecoul>
-8.26351356506348

> <r_i_glide_erotb>
0.14600036791455

> <r_i_glide_esite>
0

> <r_i_glide_emodel>
-19.428281912516

> <r_i_glide_energy>
-19.9429550170898

> <r_i_glide_einternal>
3.24684047698975

> <i_i_glide_confnum>
2

> <i_i_glide_posenum>
2

> <r_i_glide_eff_state_penalty>
0

> <s_user_duplicate_titles>
396496

> <s_m_subgroup_title>
dock_pv

> <s_m_subgroupid>
dock_pv1

> <b_m_subgroup_collapsed>
0

$$$$
313455
                    3D
 Schrodinger Suite 2021-1.
 26 28  0  0  1  0            999 V2000
   32.3133    1.4029   27.2359 C   0  0  0  0  0  0
   33.5078    2.0865   27.3576 C   0  0  0  0  0  0
   34.5323    1.5245   28.0993 C   0  0  0  0  0  0
   34.4054    0.2705   28.6917 C   0  0  0  0  0  0
   33.2020   -0.4184   28.5655 C   0  0  0  0  0  0
   32.1466    0.1612   27.8533 C   0  0  0  0  0  0
   30.8158   -0.4847   27.7554 C   0  0  0  0  0  0
   30.4952   -1.7268   28.0597 N   0  0  0  0  0  0
   29.1526   -1.7687   27.8151 C   0  0  0  0  0  0
   28.2234   -2.8044   27.9415 C   0  0  0  0  0  0
   26.8881   -2.5240   27.6392 C   0  0  0  0  0  0
   26.4841   -1.2589   27.1683 C   0  0  0  0  0  0
   27.3954   -0.2106   27.0640 C   0  0  0  0  0  0
   28.7147   -0.5080   27.3859 C   0  0  0  0  0  0
   29.7837    0.3125   27.3448 O   0  0  0  0  0  0
   24.8600   -0.9420   26.6686 Cl  0  0  0  0  0  0
   25.9817   -3.5166   27.8640 O   0  0  0  0  0  0
   35.6600    2.2580   28.2528 O   0  0  0  0  0  0
   31.5130    1.8571   26.6726 H   0  0  0  0  0  0
   33.6325    3.0565   26.8997 H   0  0  0  0  0  0
   35.2178   -0.1562   29.2620 H   0  0  0  0  0  0
   33.0827   -1.3813   29.0418 H   0  0  0  0  0  0
   28.5222   -3.7832   28.2846 H   0  0  0  0  0  0
   27.1035    0.7715   26.7231 H   0  0  0  0  0  0
   25.3448   -3.5761   27.1302 H   0  0  0  0  0  0
   36.3968    1.7826   28.6640 H   0  0  0  0  0  0
  1  6  1  0  0  0
  1  2  2  0  0  0
  1 19  1  0  0  0
  2  3  1  0  0  0
  2 20  1  0  0  0
  3  4  2  0  0  0
  3 18  1  0  0  0
  4  5  1  0  0  0
  4 21  1  0  0  0
  5  6  2  0  0  0
  5 22  1  0  0  0
  6  7  1  0  0  0
  7 15  1  0  0  0
  7  8  2  0  0  0
  8  9  1  0  0  0
  9 14  2  0  0  0
  9 10  1  0  0  0
 10 11  2  0  0  0
 10 23  1  0  0  0
 11 12  1  0  0  0
 11 17  1  0  0  0
 12 13  2  0  0  0
 12 16  1  0  0  0
 13 14  1  0  0  0
 13 24  1  0  0  0
 14 15  1  0  0  0
 17 25  1  0  0  0
 18 26  1  0  0  0
M  END
> <s_m_entry_id>
17420

> <s_m_entry_name>
ligand_docking-pose.347

> <s_m_Source_Path>
/home/csk/Desktop/cluster/DUD-E-result/esr1

> <s_m_Source_File>
ligand_docking-pose.sdf

> <i_m_Source_File_Index>
347

> <i_lp_mmshare_version>
53161

> <i_f3d_flags>
0

> <r_lp_tautomer_probability>
0.999999999997365

> <s_lp_Force_Field>
OPLS_2005

> <r_lp_Energy>
11.179879

> <b_lp_Chiralities_Consistent>
1

> <s_lp_Variant>
313455-1

> <s_i_glide_gridfile>
glide-grid_1sj0

> <i_i_glide_lignum>
384

> <i_i_glide_rotatable_bonds>
3

> <r_i_docking_score>
-8.41503483249374

> <r_i_glide_ligand_efficiency>
-0.467501935138541

> <r_i_glide_ligand_efficiency_sa>
-1.22520167210991

> <r_i_glide_ligand_efficiency_ln>
-2.1630413122895

> <r_i_glide_gscore>
-8.41503483249374

> <r_i_glide_lipo>
-2.80080393629648

> <r_i_glide_hbond>
-0.456

> <r_i_glide_metal>
0

> <r_i_glide_rewards>
-2.52504395454545

> <r_i_glide_evdw>
-29.8914260864258

> <r_i_glide_ecoul>
-9.31675338745117

> <r_i_glide_erotb>
0.258897370787162

> <r_i_glide_esite>
0

> <r_i_glide_emodel>
-56.0525599046698

> <r_i_glide_energy>
-39.208179473877

> <r_i_glide_einternal>
1.13720285892487

> <i_i_glide_confnum>
2

> <i_i_glide_posenum>
194

> <r_i_glide_eff_state_penalty>
0

> <s_user_duplicate_titles>
313455

> <s_m_subgroup_title>
dock_pv

> <s_m_subgroupid>
dock_pv1

> <b_m_subgroup_collapsed>
0

$$$$
353945
                    3D
 Schrodinger Suite 2021-1.
 45 49  0  0  1  0            999 V2000
   29.2508   -2.9425   27.6154 C   0  0  0  0  0  0
   28.5439   -1.6698   27.1331 C   0  0  0  0  0  0
   29.4333   -0.6132   26.3813 C   0  0  1  0  0  0
   28.8178    0.8046   26.5703 C   0  0  0  0  0  0
   28.8906    1.3133   28.0301 C   0  0  0  0  0  0
   30.2321    1.0224   28.7192 C   0  0  0  0  0  0
   30.4610    1.4584   29.8454 O   0  0  0  0  0  0
   31.1982    0.1774   27.9974 C   0  0  0  0  0  0
   30.8639   -0.5748   26.9152 C   0  0  0  0  0  0
   31.6746   -1.4924   26.0515 C   0  0  0  0  0  0
   32.8920   -2.1417   26.2628 C   0  0  0  0  0  0
   33.5227   -2.9092   25.2859 C   0  0  0  0  0  0
   32.9283   -2.9553   24.0383 C   0  0  0  0  0  0
   31.6853   -2.3392   23.7740 C   0  0  0  0  0  0
   31.0300   -1.6445   24.8305 C   0  0  0  0  0  0
   29.6692   -1.0023   24.9106 C   0  0  0  0  0  0
   31.4590   -2.7015   22.3990 C   0  0  0  0  0  0
   32.4358   -3.3986   21.8883 N   0  0  0  0  0  0
   33.3285   -3.5657   22.8679 N   0  0  0  0  0  0
   32.5776    0.1755   28.4666 C   0  0  0  0  0  0
   33.4754    1.1517   28.0215 C   0  0  0  0  0  0
   34.8315    1.0012   28.2833 C   0  0  0  0  0  0
   35.2596   -0.1326   28.9635 C   0  0  0  0  0  0
   34.3533   -1.0569   29.4631 C   0  0  0  0  0  0
   32.9987   -0.8813   29.2644 C   0  0  0  0  0  0
   34.1638   -4.1052   22.7012 H   0  0  0  0  0  0
   28.5370   -3.7178   27.8954 H   0  0  0  0  0  0
   29.8963   -3.3419   26.8389 H   0  0  0  0  0  0
   29.8757   -2.7343   28.4831 H   0  0  0  0  0  0
   28.0862   -1.2346   28.0197 H   0  0  0  0  0  0
   27.6943   -1.9459   26.5066 H   0  0  0  0  0  0
   27.7729    0.8025   26.2638 H   0  0  0  0  0  0
   29.3205    1.5294   25.9327 H   0  0  0  0  0  0
   28.1309    0.8064   28.6188 H   0  0  0  0  0  0
   28.6968    2.3820   28.0853 H   0  0  0  0  0  0
   33.4037   -2.0841   27.2005 H   0  0  0  0  0  0
   34.4607   -3.3991   25.4638 H   0  0  0  0  0  0
   28.9120   -1.7342   24.6638 H   0  0  0  0  0  0
   29.6162   -0.1416   24.2508 H   0  0  0  0  0  0
   30.5828   -2.5425   21.7916 H   0  0  0  0  0  0
   33.1368    1.9807   27.4166 H   0  0  0  0  0  0
   35.5505    1.7144   27.9070 H   0  0  0  0  0  0
   36.3141   -0.3311   29.0646 H   0  0  0  0  0  0
   34.7098   -1.9732   29.8921 H   0  0  0  0  0  0
   32.2990   -1.6404   29.5822 H   0  0  0  0  0  0
  1  2  1  0  0  0
  1 27  1  0  0  0
  1 28  1  0  0  0
  1 29  1  0  0  0
  2  3  1  0  0  0
  2 30  1  0  0  0
  2 31  1  0  0  0
  3  9  1  0  0  0
  3 16  1  0  0  0
  3  4  1  0  0  0
  4  5  1  0  0  0
  4 32  1  0  0  0
  4 33  1  0  0  0
  5  6  1  0  0  0
  5 34  1  0  0  0
  5 35  1  0  0  0
  6  7  2  0  0  0
  6  8  1  0  0  0
  8  9  2  0  0  0
  8 20  1  0  0  0
  9 10  1  0  0  0
 10 15  1  0  0  0
 10 11  2  0  0  0
 11 12  1  0  0  0
 11 36  1  0  0  0
 12 13  2  0  0  0
 12 37  1  0  0  0
 13 19  1  0  0  0
 13 14  1  0  0  0
 14 15  2  0  0  0
 14 17  1  0  0  0
 15 16  1  0  0  0
 16 38  1  0  0  0
 16 39  1  0  0  0
 17 18  2  0  0  0
 17 40  1  0  0  0
 18 19  1  0  0  0
 19 26  1  0  0  0
 20 25  1  0  0  0
 20 21  2  0  0  0
 21 22  1  0  0  0
 21 41  1  0  0  0
 22 23  2  0  0  0
 22 42  1  0  0  0
 23 24  1  0  0  0
 23 43  1  0  0  0
 24 25  2  0  0  0
 24 44  1  0  0  0
 25 45  1  0  0  0
M  END
> <s_m_entry_id>
17421

> <s_m_entry_name>
ligand_docking-pose.348

> <s_m_Source_Path>
/home/csk/Desktop/cluster/DUD-E-result/esr1

> <s_m_Source_File>
ligand_docking-pose.sdf

> <i_m_Source_File_Index>
348

> <i_lp_mmshare_version>
53161

> <i_f3d_flags>
0

> <r_lp_tautomer_probability>
1

> <s_lp_Force_Field>
OPLS_2005

> <r_lp_Energy>
45.978642

> <b_lp_Chiralities_Consistent>
1

> <s_lp_Variant>
353945-1

> <s_i_glide_gridfile>
glide-grid_1sj0

> <i_i_glide_lignum>
1071

> <i_i_glide_rotatable_bonds>
2

> <r_i_docking_score>
-8.41377156475727

> <r_i_glide_ligand_efficiency>
-0.336550862590291

> <r_i_glide_ligand_efficiency_sa>
-0.984080690968973

> <r_i_glide_ligand_efficiency_ln>
-1.99431600123479

> <r_i_glide_gscore>
-8.41377156475727

> <r_i_glide_lipo>
-4.74105230411787

> <r_i_glide_hbond>
0

> <r_i_glide_metal>
0

> <r_i_glide_rewards>
-2.45423217336297

> <r_i_glide_evdw>
-26.6220397949219

> <r_i_glide_ecoul>
-0.410163521766663

> <r_i_glide_erotb>
0.174139430734669

> <r_i_glide_esite>
0

> <r_i_glide_emodel>
-30.8395042762661

> <r_i_glide_energy>
-27.0322033166885

> <r_i_glide_einternal>
5.20590400695801

> <i_i_glide_confnum>
2

> <i_i_glide_posenum>
16

> <r_i_glide_eff_state_penalty>
0

> <s_user_duplicate_titles>
353945

> <s_m_subgroup_title>
dock_pv

> <s_m_subgroupid>
dock_pv1

> <b_m_subgroup_collapsed>
0

$$$$
330365
                    3D
 Schrodinger Suite 2021-1.
 33 35  0  0  1  0            999 V2000
   28.1345    1.4580   26.5156 C   0  0  0  0  0  0
   28.8563    0.9932   27.5438 C   0  0  0  0  0  0
   30.1439    0.2779   27.4458 C   0  0  0  0  0  0
   30.4738   -0.4480   26.2954 C   0  0  0  0  0  0
   31.6875   -1.1392   26.2097 C   0  0  0  0  0  0
   32.5678   -1.1509   27.2459 N   0  0  0  0  0  0
   32.2879   -0.4487   28.3737 C   0  0  0  0  0  0
   31.0855    0.3113   28.5162 C   0  0  0  0  0  0
   30.8926    1.0580   29.7127 C   0  0  0  0  0  0
   31.8400    1.0139   30.7230 C   0  0  0  0  0  0
   32.9780    0.2434   30.5924 C   0  0  0  0  0  0
   33.2250   -0.4813   29.4323 C   0  0  0  0  0  0
   31.6600    1.7338   31.8640 O   0  0  0  0  0  0
   32.0712   -1.9480   25.0051 C   0  0  0  0  0  0
   33.0432   -2.9542   25.0890 C   0  0  0  0  0  0
   33.3555   -3.7403   23.9859 C   0  0  0  0  0  0
   32.7018   -3.5516   22.7803 C   0  0  0  0  0  0
   31.7602   -2.5424   22.6617 C   0  0  0  0  0  0
   31.4576   -1.7388   23.7621 C   0  0  0  0  0  0
   32.9777   -4.3794   21.7266 O   0  0  0  0  0  0
   27.1943    1.9552   26.6896 H   0  0  0  0  0  0
   28.4602    1.3570   25.4878 H   0  0  0  0  0  0
   28.4508    1.1336   28.5336 H   0  0  0  0  0  0
   29.7657   -0.4961   25.4835 H   0  0  0  0  0  0
   30.0138    1.6691   29.8422 H   0  0  0  0  0  0
   33.6603    0.2128   31.4219 H   0  0  0  0  0  0
   34.1281   -1.0685   29.3368 H   0  0  0  0  0  0
   30.8537    2.2537   31.8503 H   0  0  0  0  0  0
   33.5472   -3.1617   26.0209 H   0  0  0  0  0  0
   34.0602   -4.5421   24.0867 H   0  0  0  0  0  0
   31.2598   -2.3993   21.7174 H   0  0  0  0  0  0
   30.7233   -0.9593   23.6299 H   0  0  0  0  0  0
   32.2690   -4.4778   21.0793 H   0  0  0  0  0  0
  1  2  2  0  0  0
  1 21  1  0  0  0
  1 22  1  0  0  0
  2  3  1  0  0  0
  2 23  1  0  0  0
  3  8  1  0  0  0
  3  4  2  0  0  0
  4  5  1  0  0  0
  4 24  1  0  0  0
  5  6  2  0  0  0
  5 14  1  0  0  0
  6  7  1  0  0  0
  7 12  2  0  0  0
  7  8  1  0  0  0
  8  9  2  0  0  0
  9 10  1  0  0  0
  9 25  1  0  0  0
 10 11  2  0  0  0
 10 13  1  0  0  0
 11 12  1  0  0  0
 11 26  1  0  0  0
 12 27  1  0  0  0
 13 28  1  0  0  0
 14 19  1  0  0  0
 14 15  2  0  0  0
 15 16  1  0  0  0
 15 29  1  0  0  0
 16 17  2  0  0  0
 16 30  1  0  0  0
 17 18  1  0  0  0
 17 20  1  0  0  0
 18 19  2  0  0  0
 18 31  1  0  0  0
 19 32  1  0  0  0
 20 33  1  0  0  0
M  END
> <s_m_entry_id>
17422

> <s_m_entry_name>
ligand_docking-pose.349

> <s_m_Source_Path>
/home/csk/Desktop/cluster/DUD-E-result/esr1

> <s_m_Source_File>
ligand_docking-pose.sdf

> <i_m_Source_File_Index>
349

> <i_lp_mmshare_version>
53161

> <i_f3d_flags>
0

> <r_lp_tautomer_probability>
0.999999999997365

> <s_lp_Force_Field>
OPLS_2005

> <r_lp_Energy>
17.822024

> <b_lp_Chiralities_Consistent>
1

> <s_lp_Variant>
330365-1

> <s_i_glide_gridfile>
glide-grid_1sj0

> <i_i_glide_lignum>
1169

> <i_i_glide_rotatable_bonds>
4

> <r_i_docking_score>
-8.41130796528938

> <r_i_glide_ligand_efficiency>
-0.420565398264469

> <r_i_glide_ligand_efficiency_sa>
-1.14159012483936

> <r_i_glide_ligand_efficiency_ln>
-2.10507296020811

> <r_i_glide_gscore>
-8.41130796528938

> <r_i_glide_lipo>
-4.62371530378145

> <r_i_glide_hbond>
-0.0192973859649206

> <r_i_glide_metal>
0

> <r_i_glide_rewards>
-2.42966976970088

> <r_i_glide_evdw>
-31.8990345001221

> <r_i_glide_ecoul>
-1.70635151863098

> <r_i_glide_erotb>
0.512278946958619

> <r_i_glide_esite>
0

> <r_i_glide_emodel>
-50.6096649783812

> <r_i_glide_energy>
-33.6053860187531

> <r_i_glide_einternal>
0.751326262950897

> <i_i_glide_confnum>
11

> <i_i_glide_posenum>
284

> <r_i_glide_eff_state_penalty>
0

> <s_user_duplicate_titles>
330365

> <s_m_subgroup_title>
dock_pv

> <s_m_subgroupid>
dock_pv1

> <b_m_subgroup_collapsed>
0

$$$$
300878
                    3D
 Schrodinger Suite 2021-1.
 42 44  0  0  1  0            999 V2000
   31.4374   -1.2547   25.6260 C   0  0  0  0  0  0
   32.0674   -0.5519   26.8185 C   0  0  0  0  0  0
   32.8740    0.5182   26.6645 C   0  0  0  0  0  0
   33.6074    1.2866   27.7864 C   0  0  0  0  0  0
   33.1415    0.7527   29.2236 C   0  0  2  0  0  0
   32.9745   -0.7905   29.1454 C   0  0  0  0  0  0
   31.7775   -1.1076   28.2106 C   0  0  1  0  0  0
   30.5145   -0.4661   28.8397 C   0  0  1  0  0  0
   30.7085    0.9452   28.9726 O   0  0  0  0  0  0
   31.8061    1.3230   29.7783 C   0  0  0  0  0  0
   29.1715   -0.7361   28.1456 C   0  0  0  0  0  0
   28.7414   -2.0401   27.8640 C   0  0  0  0  0  0
   27.4632   -2.2562   27.3431 C   0  0  0  0  0  0
   26.6156   -1.1699   27.1241 C   0  0  0  0  0  0
   27.0431    0.1237   27.3791 C   0  0  0  0  0  0
   28.3208    0.3418   27.8640 C   0  0  0  0  0  0
   25.3419   -1.3420   26.6640 O   0  0  0  0  0  0
   34.0600    1.0580   30.2442 O   0  0  0  0  0  0
   33.3316    2.7705   27.4960 C   0  0  0  0  0  0
   35.1303    1.0579   27.6431 C   0  0  0  0  0  0
   31.6651   -2.1888   28.1512 H   0  0  0  0  0  0
   30.4600   -0.8945   29.8412 H   0  0  0  0  0  0
   30.3537   -1.1440   25.6402 H   0  0  0  0  0  0
   31.7915   -0.8438   24.6795 H   0  0  0  0  0  0
   31.6792   -2.3178   25.6367 H   0  0  0  0  0  0
   33.0458    0.8469   25.6503 H   0  0  0  0  0  0
   33.8789   -1.2795   28.7826 H   0  0  0  0  0  0
   32.8048   -1.2109   30.1385 H   0  0  0  0  0  0
   31.6155    0.9617   30.7923 H   0  0  0  0  0  0
   31.8073    2.4063   29.8584 H   0  0  0  0  0  0
   29.3793   -2.8874   28.0693 H   0  0  0  0  0  0
   27.1250   -3.2613   27.1344 H   0  0  0  0  0  0
   26.3849    0.9606   27.1999 H   0  0  0  0  0  0
   28.6143    1.3615   28.0643 H   0  0  0  0  0  0
   25.1597   -2.2294   26.2883 H   0  0  0  0  0  0
   34.9281    0.7613   29.9576 H   0  0  0  0  0  0
   34.1083    3.4339   27.8640 H   0  0  0  0  0  0
   33.2600    2.9959   26.4305 H   0  0  0  0  0  0
   32.4115    3.0580   27.9602 H   0  0  0  0  0  0
   35.6667    1.6975   28.3420 H   0  0  0  0  0  0
   35.4398    0.0361   27.8640 H   0  0  0  0  0  0
   35.4940    1.3472   26.6640 H   0  0  0  0  0  0
  1  2  1  0  0  0
  1 23  1  0  0  0
  1 24  1  0  0  0
  1 25  1  0  0  0
  2  7  1  0  0  0
  2  3  2  0  0  0
  3  4  1  0  0  0
  3 26  1  0  0  0
  4  5  1  0  0  0
  4 19  1  0  0  0
  4 20  1  0  0  0
  5 10  1  0  0  0
  5  6  1  0  0  0
  5 18  1  0  0  0
  6  7  1  0  0  0
  6 27  1  0  0  0
  6 28  1  0  0  0
  7 21  1  0  0  0
  7  8  1  0  0  0
  8 22  1  0  0  0
  8  9  1  0  0  0
  8 11  1  0  0  0
  9 10  1  0  0  0
 10 29  1  0  0  0
 10 30  1  0  0  0
 11 16  1  0  0  0
 11 12  2  0  0  0
 12 13  1  0  0  0
 12 31  1  0  0  0
 13 14  2  0  0  0
 13 32  1  0  0  0
 14 15  1  0  0  0
 14 17  1  0  0  0
 15 16  2  0  0  0
 15 33  1  0  0  0
 16 34  1  0  0  0
 17 35  1  0  0  0
 18 36  1  0  0  0
 19 37  1  0  0  0
 19 38  1  0  0  0
 19 39  1  0  0  0
 20 40  1  0  0  0
 20 41  1  0  0  0
 20 42  1  0  0  0
M  END
> <s_m_entry_id>
17423

> <s_m_entry_name>
ligand_docking-pose.350

> <s_m_Source_Path>
/home/csk/Desktop/cluster/DUD-E-result/esr1

> <s_m_Source_File>
ligand_docking-pose.sdf

> <i_m_Source_File_Index>
350

> <i_lp_mmshare_version>
53161

> <i_f3d_flags>
0

> <r_lp_tautomer_probability>
0.999999999997365

> <s_lp_Force_Field>
OPLS_2005

> <r_lp_Energy>
27.766433

> <b_lp_Chiralities_Consistent>
1

> <s_lp_Variant>
300878-1

> <s_i_glide_gridfile>
glide-grid_1sj0

> <i_i_glide_lignum>
933

> <i_i_glide_rotatable_bonds>
3

> <r_i_docking_score>
-8.40826164616506

> <r_i_glide_ligand_efficiency>
-0.420413082308253

> <r_i_glide_ligand_efficiency_sa>
-1.14117667572493

> <r_i_glide_ligand_efficiency_ln>
-2.10431056700562

> <r_i_glide_gscore>
-8.40826164616506

> <r_i_glide_lipo>
-3.85093142349881

> <r_i_glide_hbond>
-0.17837297593232

> <r_i_glide_metal>
0

> <r_i_glide_rewards>
-2.26289237285829

> <r_i_glide_evdw>
-26.3838329315186

> <r_i_glide_ecoul>
-6.42569780349731

> <r_i_glide_erotb>
0.166981443224883

> <r_i_glide_esite>
0

> <r_i_glide_emodel>
-41.9476208235235

> <r_i_glide_energy>
-32.8095307350159

> <r_i_glide_einternal>
0.594640552997589

> <i_i_glide_confnum>
1

> <i_i_glide_posenum>
261

> <r_i_glide_eff_state_penalty>
0

> <s_user_duplicate_titles>
300878

> <s_m_subgroup_title>
dock_pv

> <s_m_subgroupid>
dock_pv1

> <b_m_subgroup_collapsed>
0

$$$$
410169
                    3D
 Schrodinger Suite 2021-1.
 55 58  0  0  1  0            999 V2000
   31.3333   -3.1788   21.6945 C   0  0  0  0  0  0
   32.5624   -2.7627   22.5391 C   0  0  2  0  0  0
   33.8120   -3.6219   22.2620 C   0  0  0  0  0  0
   34.0953   -3.9938   20.7888 C   0  0  0  0  0  0
   34.6217   -2.8561   19.9312 C   0  0  0  0  0  0
   33.8694   -2.3769   18.8559 C   0  0  0  0  0  0
   34.3907   -1.3789   18.0374 C   0  0  0  0  0  0
   35.6594   -0.8659   18.2970 C   0  0  0  0  0  0
   36.4136   -1.3420   19.3679 C   0  0  0  0  0  0
   35.8924   -2.3358   20.1882 C   0  0  0  0  0  0
   32.2830   -2.7816   23.9823 N   0  0  0  0  0  0
   31.5176   -1.8937   24.6369 C   0  0  0  0  0  0
   30.9910   -0.9422   24.0622 O   0  0  0  0  0  0
   31.2783   -2.1485   26.1398 C   0  0  0  0  0  0
   30.4733   -1.0345   26.8006 C   0  0  0  0  0  0
   29.0385   -0.9326   26.9225 C   0  0  0  0  0  0
   27.9533   -1.7882   26.6547 C   0  0  0  0  0  0
   26.6575   -1.3422   26.8785 C   0  0  0  0  0  0
   26.4174   -0.0534   27.3250 C   0  0  0  0  0  0
   27.4474    0.8547   27.5575 C   0  0  0  0  0  0
   28.7505    0.3805   27.4020 C   0  0  0  0  0  0
   29.9571    0.9808   27.6590 N   0  0  0  0  0  0
   30.9850    0.1199   27.3752 C   0  0  0  0  0  0
   32.3917    0.4780   27.6493 C   0  0  0  0  0  0
   33.1207   -0.2917   28.5596 C   0  0  0  0  0  0
   34.4482    0.0266   28.8202 C   0  0  0  0  0  0
   35.0300    1.0988   28.1511 C   0  0  0  0  0  0
   34.3182    1.8583   27.2361 C   0  0  0  0  0  0
   32.9907    1.5518   26.9909 C   0  0  0  0  0  0
   30.1168    1.8993   28.0433 H   0  0  0  0  0  0
   31.5383   -3.0922   20.6293 H   0  0  0  0  0  0
   31.0518   -4.2189   21.8633 H   0  0  0  0  0  0
   30.4694   -2.5422   21.8649 H   0  0  0  0  0  0
   32.8270   -1.7422   22.2663 H   0  0  0  0  0  0
   34.6881   -3.1346   22.6933 H   0  0  0  0  0  0
   33.7076   -4.5423   22.8255 H   0  0  0  0  0  0
   34.8600   -4.7589   20.7645 H   0  0  0  0  0  0
   33.2404   -4.4825   20.3196 H   0  0  0  0  0  0
   32.8909   -2.7844   18.6453 H   0  0  0  0  0  0
   33.8139   -1.0081   17.2034 H   0  0  0  0  0  0
   36.0631   -0.0923   17.6599 H   0  0  0  0  0  0
   37.3986   -0.9431   19.5616 H   0  0  0  0  0  0
   36.4804   -2.7117   21.0122 H   0  0  0  0  0  0
   32.7034   -3.5312   24.5087 H   0  0  0  0  0  0
   32.2560   -2.2436   26.6120 H   0  0  0  0  0  0
   30.7925   -3.1151   26.2683 H   0  0  0  0  0  0
   28.0821   -2.7898   26.2825 H   0  0  0  0  0  0
   25.8250   -2.0019   26.6800 H   0  0  0  0  0  0
   25.3934    0.2586   27.4629 H   0  0  0  0  0  0
   27.2368    1.8568   27.9002 H   0  0  0  0  0  0
   32.6610   -1.1297   29.0633 H   0  0  0  0  0  0
   35.0267   -0.5594   29.5201 H   0  0  0  0  0  0
   36.0599    1.3433   28.3097 H   0  0  0  0  0  0
   34.8058    2.6580   26.7031 H   0  0  0  0  0  0
   32.4577    2.1350   26.2640 H   0  0  0  0  0  0
  1  2  1  0  0  0
  1 31  1  0  0  0
  1 32  1  0  0  0
  1 33  1  0  0  0
  2  3  1  0  0  0
  2 11  1  0  0  0
  2 34  1  0  0  0
  3  4  1  0  0  0
  3 35  1  0  0  0
  3 36  1  0  0  0
  4  5  1  0  0  0
  4 37  1  0  0  0
  4 38  1  0  0  0
  5 10  1  0  0  0
  5  6  2  0  0  0
  6  7  1  0  0  0
  6 39  1  0  0  0
  7  8  2  0  0  0
  7 40  1  0  0  0
  8  9  1  0  0  0
  8 41  1  0  0  0
  9 10  2  0  0  0
  9 42  1  0  0  0
 10 43  1  0  0  0
 11 12  1  0  0  0
 11 44  1  0  0  0
 12 13  2  0  0  0
 12 14  1  0  0  0
 14 15  1  0  0  0
 14 45  1  0  0  0
 14 46  1  0  0  0
 15 23  2  0  0  0
 15 16  1  0  0  0
 16 21  2  0  0  0
 16 17  1  0  0  0
 17 18  2  0  0  0
 17 47  1  0  0  0
 18 19  1  0  0  0
 18 48  1  0  0  0
 19 20  2  0  0  0
 19 49  1  0  0  0
 20 21  1  0  0  0
 20 50  1  0  0  0
 21 22  1  0  0  0
 22 30  1  0  0  0
 22 23  1  0  0  0
 23 24  1  0  0  0
 24 29  1  0  0  0
 24 25  2  0  0  0
 25 26  1  0  0  0
 25 51  1  0  0  0
 26 27  2  0  0  0
 26 52  1  0  0  0
 27 28  1  0  0  0
 27 53  1  0  0  0
 28 29  2  0  0  0
 28 54  1  0  0  0
 29 55  1  0  0  0
M  END
> <s_m_entry_id>
17424

> <s_m_entry_name>
ligand_docking-pose.351

> <s_m_Source_Path>
/home/csk/Desktop/cluster/DUD-E-result/esr1

> <s_m_Source_File>
ligand_docking-pose.sdf

> <i_m_Source_File_Index>
351

> <i_lp_mmshare_version>
53161

> <i_f3d_flags>
0

> <r_lp_tautomer_probability>
1

> <s_lp_Force_Field>
OPLS_2005

> <r_lp_Energy>
14.569379

> <b_lp_Chiralities_Consistent>
1

> <s_lp_Variant>
410169-1

> <s_i_glide_gridfile>
glide-grid_1sj0

> <i_i_glide_lignum>
1391

> <i_i_glide_rotatable_bonds>
8

> <r_i_docking_score>
-8.40662303135604

> <r_i_glide_ligand_efficiency>
-0.289883552805381

> <r_i_glide_ligand_efficiency_sa>
-0.890614115773909

> <r_i_glide_ligand_efficiency_ln>
-1.92490350061358

> <r_i_glide_gscore>
-8.40662303135604

> <r_i_glide_lipo>
-4.56476226928037

> <r_i_glide_hbond>
0

> <r_i_glide_metal>
0

> <r_i_glide_rewards>
-2.1124767720738

> <r_i_glide_evdw>
-45.2064361572266

> <r_i_glide_ecoul>
-2.65552878379822

> <r_i_glide_erotb>
0.929267135429196

> <r_i_glide_esite>
0

> <r_i_glide_emodel>
-65.3793098844765

> <r_i_glide_energy>
-47.8619649410248

> <r_i_glide_einternal>
7.23912000656128

> <i_i_glide_confnum>
9

> <i_i_glide_posenum>
197

> <r_i_glide_eff_state_penalty>
0

> <s_user_duplicate_titles>
410169

> <s_m_subgroup_title>
dock_pv

> <s_m_subgroupid>
dock_pv1

> <b_m_subgroup_collapsed>
0

$$$$
338336
                    3D
 Schrodinger Suite 2021-1.
 62 64  0  0  1  0            999 V2000
   34.6910   -3.0456   18.1939 C   0  0  0  0  0  0
   33.8502   -3.1534   19.3843 N   0  0  0  0  0  0
   32.5603   -3.7400   19.0264 C   0  0  0  0  0  0
   34.5442   -3.9326   20.4210 C   0  0  0  0  0  0
   33.8003   -4.0224   21.7738 C   0  0  0  0  0  0
   33.4378   -2.7100   22.1880 O   0  0  0  0  0  0
   32.8499   -2.5053   23.4136 C   0  0  0  0  0  0
   32.0594   -1.3686   23.5056 C   0  0  0  0  0  0
   31.4472   -1.0095   24.6819 C   0  0  0  0  0  0
   31.6449   -1.7816   25.8133 C   0  0  0  0  0  0
   32.4322   -2.9398   25.7532 C   0  0  0  0  0  0
   33.0351   -3.3059   24.5479 C   0  0  0  0  0  0
   30.9672   -1.3391   27.0348 C   0  0  0  0  0  0
   31.5777   -0.5351   27.9488 C   0  0  0  0  0  0
   30.9047   -0.0362   29.2357 C   0  0  0  0  0  0
   30.4596    1.4570   29.2471 C   0  0  0  0  0  0
   29.8239    1.8578   28.0253 N   0  5  0  0  0  0
   28.4212    1.8194   28.2635 N   0  0  2  0  0  0
   27.6598    1.7746   27.0648 N   0  5  0  0  0  0
   32.9332    0.0169   27.7729 C   0  0  0  0  0  0
   33.9564   -0.3521   28.6475 C   0  0  0  0  0  0
   35.1291    0.3895   28.6747 C   0  0  0  0  0  0
   35.2604    1.4986   27.8402 C   0  0  0  0  0  0
   34.2553    1.8575   26.9530 C   0  0  0  0  0  0
   33.0937    1.1028   26.9055 C   0  0  0  0  0  0
   29.5767   -1.8331   27.1611 C   0  0  0  0  0  0
   28.5468   -1.4437   26.2959 C   0  0  0  0  0  0
   27.2537   -1.9328   26.4999 C   0  0  0  0  0  0
   27.0159   -2.8482   27.5304 C   0  0  0  0  0  0
   28.0605   -3.3276   28.2939 C   0  0  0  0  0  0
   29.3053   -2.7449   28.1668 C   0  0  0  0  0  0
   25.7513   -3.2536   27.8639 O   0  0  0  0  0  0
   34.2003   -2.4312   17.4387 H   0  0  0  0  0  0
   35.6411   -2.5691   18.4337 H   0  0  0  0  0  0
   34.9048   -4.0201   17.7523 H   0  0  0  0  0  0
   32.0742   -3.1469   18.2489 H   0  0  0  0  0  0
   32.6750   -4.7647   18.6676 H   0  0  0  0  0  0
   31.8825   -3.7480   19.8821 H   0  0  0  0  0  0
   35.5119   -3.4671   20.6076 H   0  0  0  0  0  0
   34.7580   -4.9357   20.0480 H   0  0  0  0  0  0
   34.4589   -4.5031   22.4949 H   0  0  0  0  0  0
   32.9132   -4.6532   21.6808 H   0  0  0  0  0  0
   31.9092   -0.7322   22.6641 H   0  0  0  0  0  0
   30.8262   -0.1254   24.7121 H   0  0  0  0  0  0
   32.5806   -3.5451   26.6348 H   0  0  0  0  0  0
   33.6608   -4.1830   24.5145 H   0  0  0  0  0  0
   30.0594   -0.6642   29.4629 H   0  0  0  0  0  0
   31.5795   -0.2070   30.0769 H   0  0  0  0  0  0
   29.8790    1.6418   30.1555 H   0  0  0  0  0  0
   31.3537    2.0684   29.3931 H   0  0  0  0  0  0
   28.1517    2.6388   28.7875 H   0  0  0  0  0  0
   27.3918    0.7953   26.8710 H   0  0  0  0  0  0
   33.8184   -1.1692   29.3413 H   0  0  0  0  0  0
   35.9224    0.1087   29.3490 H   0  0  0  0  0  0
   36.1648    2.0863   27.8520 H   0  0  0  0  0  0
   34.3801    2.7126   26.3080 H   0  0  0  0  0  0
   32.2804    1.4164   26.2652 H   0  0  0  0  0  0
   28.7319   -0.7211   25.5141 H   0  0  0  0  0  0
   26.4399   -1.5819   25.8813 H   0  0  0  0  0  0
   27.8751   -4.0272   29.0933 H   0  0  0  0  0  0
   30.0696   -2.9410   28.8867 H   0  0  0  0  0  0
   25.2596   -3.3402   27.0130 H   0  0  0  0  0  0
  1  2  1  0  0  0
  1 33  1  0  0  0
  1 34  1  0  0  0
  1 35  1  0  0  0
  2  3  1  0  0  0
  2  4  1  0  0  0
  3 36  1  0  0  0
  3 37  1  0  0  0
  3 38  1  0  0  0
  4  5  1  0  0  0
  4 39  1  0  0  0
  4 40  1  0  0  0
  5  6  1  0  0  0
  5 41  1  0  0  0
  5 42  1  0  0  0
  6  7  1  0  0  0
  7 12  2  0  0  0
  7  8  1  0  0  0
  8  9  2  0  0  0
  8 43  1  0  0  0
  9 10  1  0  0  0
  9 44  1  0  0  0
 10 11  2  0  0  0
 10 13  1  0  0  0
 11 12  1  0  0  0
 11 45  1  0  0  0
 12 46  1  0  0  0
 13 14  2  0  0  0
 13 26  1  0  0  0
 14 15  1  0  0  0
 14 20  1  0  0  0
 15 16  1  0  0  0
 15 47  1  0  0  0
 15 48  1  0  0  0
 16 17  1  0  0  0
 16 49  1  0  0  0
 16 50  1  0  0  0
 17 18  1  0  0  0
 18 19  1  0  0  0
 18 51  1  0  0  0
 19 52  1  0  0  0
 20 25  2  0  0  0
 20 21  1  0  0  0
 21 22  2  0  0  0
 21 53  1  0  0  0
 22 23  1  0  0  0
 22 54  1  0  0  0
 23 24  2  0  0  0
 23 55  1  0  0  0
 24 25  1  0  0  0
 24 56  1  0  0  0
 25 57  1  0  0  0
 26 31  2  0  0  0
 26 27  1  0  0  0
 27 28  2  0  0  0
 27 58  1  0  0  0
 28 29  1  0  0  0
 28 59  1  0  0  0
 29 30  2  0  0  0
 29 32  1  0  0  0
 30 31  1  0  0  0
 30 60  1  0  0  0
 31 61  1  0  0  0
 32 62  1  0  0  0
M  CHG  2  17  -1  19  -1
M  END
> <s_m_entry_id>
17425

> <s_m_entry_name>
ligand_docking-pose.352

> <s_m_Source_Path>
/home/csk/Desktop/cluster/DUD-E-result/esr1

> <s_m_Source_File>
ligand_docking-pose.sdf

> <i_m_Source_File_Index>
352

> <i_lp_mmshare_version>
53161

> <i_f3d_flags>
0

> <r_lp_tautomer_probability>
1

> <s_lp_Force_Field>
OPLS_2005

> <r_lp_Energy>
34.892713

> <b_lp_Chiralities_Consistent>
1

> <s_lp_Variant>
338336-1

> <s_i_glide_gridfile>
glide-grid_1sj0

> <i_i_glide_lignum>
1730

> <i_i_glide_rotatable_bonds>
12

> <r_i_docking_score>
-8.40551171212077

> <r_i_glide_ligand_efficiency>
-0.262672241003774

> <r_i_glide_ligand_efficiency_sa>
-0.833932382421075

> <r_i_glide_ligand_efficiency_ln>
-1.88222319793946

> <r_i_glide_gscore>
-8.40551171212077

> <r_i_glide_lipo>
-4.86066043428769

> <r_i_glide_hbond>
-0.16

> <r_i_glide_metal>
0

> <r_i_glide_rewards>
-1.28465287552657

> <r_i_glide_evdw>
-40.3806419372559

> <r_i_glide_ecoul>
-6.97660493850708

> <r_i_glide_erotb>
0.96532443533234

> <r_i_glide_esite>
0

> <r_i_glide_emodel>
-57.6039458514535

> <r_i_glide_energy>
-47.3572468757629

> <r_i_glide_einternal>
11.1286401748657

> <i_i_glide_confnum>
21

> <i_i_glide_posenum>
13

> <r_i_glide_eff_state_penalty>
0

> <s_user_duplicate_titles>
338336

> <s_m_subgroup_title>
dock_pv

> <s_m_subgroupid>
dock_pv1

> <b_m_subgroup_collapsed>
0

$$$$
354459
                    3D
 Schrodinger Suite 2021-1.
 41 44  0  0  1  0            999 V2000
   28.5713   -3.2334   27.8661 C   0  0  0  0  0  0
   27.8783   -2.1497   27.0308 C   0  0  0  0  0  0
   28.2820   -0.6884   27.3418 C   0  0  0  0  0  0
   29.6694   -0.1033   26.8810 C   0  0  1  0  0  0
   29.6371    1.4392   27.0471 C   0  0  0  0  0  0
   29.4871    1.8754   28.5271 C   0  0  0  0  0  0
   30.4722    1.1563   29.4643 C   0  0  0  0  0  0
   30.5314    1.4580   30.6536 O   0  0  0  0  0  0
   31.1888   -0.0122   28.9389 C   0  0  0  0  0  0
   30.8510   -0.5743   27.7476 C   0  0  0  0  0  0
   31.5412   -1.6261   26.9943 C   0  0  0  0  0  0
   32.4927   -2.5423   27.4190 C   0  0  0  0  0  0
   33.0645   -3.4457   26.5383 C   0  0  0  0  0  0
   32.8612   -3.2200   25.1816 C   0  0  0  0  0  0
   31.8835   -2.3231   24.7126 C   0  0  0  0  0  0
   31.1618   -1.5654   25.6560 C   0  0  0  0  0  0
   30.0853   -0.5454   25.4546 C   0  0  0  0  0  0
   31.9168   -2.5220   23.2954 C   0  0  0  0  0  0
   32.8685   -3.3357   22.9307 N   0  0  0  0  0  0
   33.4597   -3.7420   24.0585 N   0  0  0  0  0  0
   32.4057   -0.4301   29.7717 C   0  0  0  0  0  0
   34.1917   -4.4363   24.0273 H   0  0  0  0  0  0
   28.1249   -4.2081   27.6674 H   0  0  0  0  0  0
   28.4639   -3.0366   28.9312 H   0  0  0  0  0  0
   29.6310   -3.3174   27.6382 H   0  0  0  0  0  0
   27.9771   -2.3641   25.9718 H   0  0  0  0  0  0
   26.8074   -2.2414   27.2218 H   0  0  0  0  0  0
   27.5062   -0.0709   26.8849 H   0  0  0  0  0  0
   28.1560   -0.5373   28.4145 H   0  0  0  0  0  0
   30.5659    1.8581   26.6640 H   0  0  0  0  0  0
   28.8343    1.8610   26.4418 H   0  0  0  0  0  0
   28.4847    1.6259   28.8674 H   0  0  0  0  0  0
   29.6320    2.9468   28.6560 H   0  0  0  0  0  0
   32.7773   -2.6130   28.4553 H   0  0  0  0  0  0
   33.6598   -4.2586   26.9070 H   0  0  0  0  0  0
   29.2591   -0.9199   24.8578 H   0  0  0  0  0  0
   30.5235    0.2579   24.8837 H   0  0  0  0  0  0
   31.2604   -2.1418   22.5401 H   0  0  0  0  0  0
   32.7299    0.3187   30.4975 H   0  0  0  0  0  0
   32.1838   -1.3415   30.3206 H   0  0  0  0  0  0
   33.2731   -0.6004   29.1342 H   0  0  0  0  0  0
  1  2  1  0  0  0
  1 23  1  0  0  0
  1 24  1  0  0  0
  1 25  1  0  0  0
  2  3  1  0  0  0
  2 26  1  0  0  0
  2 27  1  0  0  0
  3  4  1  0  0  0
  3 28  1  0  0  0
  3 29  1  0  0  0
  4 10  1  0  0  0
  4 17  1  0  0  0
  4  5  1  0  0  0
  5  6  1  0  0  0
  5 30  1  0  0  0
  5 31  1  0  0  0
  6  7  1  0  0  0
  6 32  1  0  0  0
  6 33  1  0  0  0
  7  8  2  0  0  0
  7  9  1  0  0  0
  9 10  2  0  0  0
  9 21  1  0  0  0
 10 11  1  0  0  0
 11 16  1  0  0  0
 11 12  2  0  0  0
 12 13  1  0  0  0
 12 34  1  0  0  0
 13 14  2  0  0  0
 13 35  1  0  0  0
 14 20  1  0  0  0
 14 15  1  0  0  0
 15 16  2  0  0  0
 15 18  1  0  0  0
 16 17  1  0  0  0
 17 36  1  0  0  0
 17 37  1  0  0  0
 18 19  2  0  0  0
 18 38  1  0  0  0
 19 20  1  0  0  0
 20 22  1  0  0  0
 21 39  1  0  0  0
 21 40  1  0  0  0
 21 41  1  0  0  0
M  END
> <s_m_entry_id>
17426

> <s_m_entry_name>
ligand_docking-pose.353

> <s_m_Source_Path>
/home/csk/Desktop/cluster/DUD-E-result/esr1

> <s_m_Source_File>
ligand_docking-pose.sdf

> <i_m_Source_File_Index>
353

> <i_lp_mmshare_version>
53161

> <i_f3d_flags>
0

> <r_lp_tautomer_probability>
1

> <s_lp_Force_Field>
OPLS_2005

> <r_lp_Energy>
37.4619

> <b_lp_Chiralities_Consistent>
1

> <s_lp_Variant>
354459-1

> <s_i_glide_gridfile>
glide-grid_1sj0

> <i_i_glide_lignum>
1205

> <i_i_glide_rotatable_bonds>
2

> <r_i_docking_score>
-8.4018031211415

> <r_i_glide_ligand_efficiency>
-0.4000858629115

> <r_i_glide_ligand_efficiency_sa>
-1.10380655869465

> <r_i_glide_ligand_efficiency_ln>
-2.07732884426046

> <r_i_glide_gscore>
-8.4018031211415

> <r_i_glide_lipo>
-4.40247759413157

> <r_i_glide_hbond>
-0.0409989809634974

> <r_i_glide_metal>
0

> <r_i_glide_rewards>
-2.81773650745035

> <r_i_glide_evdw>
-27.8478908538818

> <r_i_glide_ecoul>
0.147071033716202

> <r_i_glide_erotb>
0.229743849040578

> <r_i_glide_esite>
0

> <r_i_glide_emodel>
-40.8888592157333

> <r_i_glide_energy>
-27.7008198201656

> <r_i_glide_einternal>
0.395595848560333

> <i_i_glide_confnum>
1

> <i_i_glide_posenum>
65

> <r_i_glide_eff_state_penalty>
0

> <s_user_duplicate_titles>
354459

> <s_m_subgroup_title>
dock_pv

> <s_m_subgroupid>
dock_pv1

> <b_m_subgroup_collapsed>
0

$$$$
240428
                    3D
 Schrodinger Suite 2021-1.
 43 47  0  0  1  0            999 V2000
   33.2083   -0.2188   30.2672 C   0  0  0  0  0  0
   33.4340    1.0580   29.7645 C   0  0  0  0  0  0
   33.3278    1.2935   28.3923 C   0  0  0  0  0  0
   32.9342    0.2501   27.5545 C   0  0  0  0  0  0
   32.7200   -1.0216   28.0612 C   0  0  0  0  0  0
   32.9296   -1.2640   29.3951 C   0  0  0  0  0  0
   32.3476   -2.0125   27.0003 C   0  0  0  0  0  0
   32.0836   -1.1497   25.7640 C   0  0  0  0  0  0
   32.7290    0.2349   26.0761 C   0  0  0  0  0  0
   32.4888   -1.8729   24.4644 C   0  0  0  0  0  0
   33.6600   -2.5164   24.0717 C   0  0  0  0  0  0
   33.8208   -2.9895   22.7604 C   0  0  0  0  0  0
   32.7390   -3.0522   21.9010 C   0  0  0  0  0  0
   31.5288   -2.5420   22.3262 C   0  0  0  0  0  0
   31.4443   -1.9030   23.5702 C   0  0  0  0  0  0
   30.3327   -1.2809   24.2281 C   0  0  0  0  0  0
   30.5995   -0.9412   25.4828 C   0  0  0  0  0  0
   29.4886   -0.4773   26.3519 C   0  0  0  0  0  0
   29.5291    0.7497   27.0271 C   0  0  0  0  0  0
   28.3717    1.2871   27.5806 C   0  0  0  0  0  0
   27.1633    0.6034   27.4746 C   0  0  0  0  0  0
   27.1174   -0.6618   26.9107 C   0  0  0  0  0  0
   28.2753   -1.1900   26.3505 C   0  0  0  0  0  0
   25.9251   -1.3411   26.8682 O   0  0  0  0  0  0
   35.0341   -3.3420   22.2579 O   0  0  0  0  0  0
   33.2673   -0.4042   31.3273 H   0  0  0  0  0  0
   33.7090    1.8518   30.4437 H   0  0  0  0  0  0
   33.5236    2.2796   27.9983 H   0  0  0  0  0  0
   32.8666   -2.2854   29.6850 H   0  0  0  0  0  0
   33.1809   -2.6978   26.8352 H   0  0  0  0  0  0
   31.4779   -2.6150   27.2661 H   0  0  0  0  0  0
   32.0706    1.0511   25.8486 H   0  0  0  0  0  0
   33.6586    0.4475   25.5577 H   0  0  0  0  0  0
   34.4599   -2.5635   24.7758 H   0  0  0  0  0  0
   32.8288   -3.4676   20.9062 H   0  0  0  0  0  0
   30.6784   -2.5986   21.6634 H   0  0  0  0  0  0
   29.3715   -1.2190   23.7758 H   0  0  0  0  0  0
   30.4236    1.3455   27.0780 H   0  0  0  0  0  0
   28.4062    2.2468   28.0685 H   0  0  0  0  0  0
   26.2580    1.0394   27.8628 H   0  0  0  0  0  0
   28.1999   -2.1420   25.8614 H   0  0  0  0  0  0
   25.9024   -2.1660   26.3656 H   0  0  0  0  0  0
   34.9632   -3.7568   21.3939 H   0  0  0  0  0  0
  1  6  1  0  0  0
  1  2  2  0  0  0
  1 26  1  0  0  0
  2  3  1  0  0  0
  2 27  1  0  0  0
  3  4  2  0  0  0
  3 28  1  0  0  0
  4  9  1  0  0  0
  4  5  1  0  0  0
  5  6  2  0  0  0
  5  7  1  0  0  0
  6 29  1  0  0  0
  7  8  1  0  0  0
  7 30  1  0  0  0
  7 31  1  0  0  0
  8 17  1  0  0  0
  8  9  1  0  0  0
  8 10  1  0  0  0
  9 32  1  0  0  0
  9 33  1  0  0  0
 10 15  2  0  0  0
 10 11  1  0  0  0
 11 12  2  0  0  0
 11 34  1  0  0  0
 12 13  1  0  0  0
 12 25  1  0  0  0
 13 14  2  0  0  0
 13 35  1  0  0  0
 14 15  1  0  0  0
 14 36  1  0  0  0
 15 16  1  0  0  0
 16 17  2  0  0  0
 16 37  1  0  0  0
 17 18  1  0  0  0
 18 23  1  0  0  0
 18 19  2  0  0  0
 19 20  1  0  0  0
 19 38  1  0  0  0
 20 21  2  0  0  0
 20 39  1  0  0  0
 21 22  1  0  0  0
 21 40  1  0  0  0
 22 23  2  0  0  0
 22 24  1  0  0  0
 23 41  1  0  0  0
 24 42  1  0  0  0
 25 43  1  0  0  0
M  END
> <s_m_entry_id>
17428

> <s_m_entry_name>
ligand_docking-pose.355

> <s_m_Source_Path>
/home/csk/Desktop/cluster/DUD-E-result/esr1

> <s_m_Source_File>
ligand_docking-pose.sdf

> <i_m_Source_File_Index>
355

> <i_lp_mmshare_version>
53161

> <i_f3d_flags>
0

> <r_lp_tautomer_probability>
1

> <s_lp_Force_Field>
OPLS_2005

> <r_lp_Energy>
46.442878

> <b_lp_Chiralities_Consistent>
1

> <s_lp_Variant>
240428-1

> <s_i_glide_gridfile>
glide-grid_1sj0

> <i_i_glide_lignum>
70

> <i_i_glide_rotatable_bonds>
3

> <r_i_docking_score>
-8.39123123944851

> <r_i_glide_ligand_efficiency>
-0.33564924957794

> <r_i_glide_ligand_efficiency_sa>
-0.981444358530686

> <r_i_glide_ligand_efficiency_ln>
-1.98897326865757

> <r_i_glide_gscore>
-8.39123123944851

> <r_i_glide_lipo>
-5.48481710717886

> <r_i_glide_hbond>
-0.108464711189557

> <r_i_glide_metal>
0

> <r_i_glide_rewards>
-1.94843404570519

> <r_i_glide_evdw>
-12.3770341873169

> <r_i_glide_ecoul>
-2.71140098571777

> <r_i_glide_erotb>
0.176046481848605

> <r_i_glide_esite>
0

> <r_i_glide_emodel>
-45.5080718803101

> <r_i_glide_energy>
-15.0884351730347

> <r_i_glide_einternal>
10.6906080245972

> <i_i_glide_confnum>
1

> <i_i_glide_posenum>
392

> <r_i_glide_eff_state_penalty>
0

> <s_user_duplicate_titles>
240428

> <s_m_subgroup_title>
dock_pv

> <s_m_subgroupid>
dock_pv1

> <b_m_subgroup_collapsed>
0

$$$$
90992
                    3D
 Schrodinger Suite 2021-1.
 49 51  0  0  1  0            999 V2000
   32.4143    1.4807   31.8412 C   0  0  0  0  0  0
   32.5497    1.0190   30.3976 C   0  0  0  0  0  0
   31.5311    1.7042   29.4666 C   0  0  0  0  0  0
   32.4614   -0.5207   30.4123 C   0  0  0  0  0  0
   32.9164   -1.1379   29.1722 N   0  0  0  0  0  0
   34.3420   -1.3422   29.0624 C   0  0  0  0  0  0
   32.0663   -1.3882   28.0680 C   0  0  0  0  0  0
   30.6934   -1.2065   28.2180 C   0  0  0  0  0  0
   29.8631   -1.3395   27.1258 C   0  0  0  0  0  0
   30.4065   -1.6677   25.8966 C   0  0  0  0  0  0
   31.7752   -1.8963   25.7729 C   0  0  0  0  0  0
   32.5958   -1.7691   26.8610 N   0  0  0  0  0  0
   32.3700   -2.2842   24.4491 C   0  0  0  0  0  0
   33.6603   -2.7974   24.3455 C   0  0  0  0  0  0
   34.2207   -3.0849   23.1014 C   0  0  0  0  0  0
   33.4595   -3.0073   21.9485 C   0  0  0  0  0  0
   32.1570   -2.5556   22.0276 C   0  0  0  0  0  0
   31.6503   -2.1432   23.2542 C   0  0  0  0  0  0
   33.9947   -3.3582   20.7386 O   0  0  0  0  0  0
   28.4433   -1.0445   27.2695 C   0  0  0  0  0  0
   27.4993   -2.0697   27.3160 C   0  0  0  0  0  0
   26.1549   -1.7513   27.4380 C   0  0  0  0  0  0
   25.7698   -0.4200   27.4629 C   0  0  0  0  0  0
   26.7185    0.6011   27.4638 C   0  0  0  0  0  0
   28.0598    0.2893   27.3711 C   0  0  0  0  0  0
   31.4753    1.1271   32.2655 H   0  0  0  0  0  0
   32.4427    2.5559   31.9754 H   0  0  0  0  0  0
   33.2586    1.0584   32.3861 H   0  0  0  0  0  0
   33.5494    1.3067   30.0611 H   0  0  0  0  0  0
   30.5040    1.4908   29.7665 H   0  0  0  0  0  0
   31.6598    2.7835   29.4676 H   0  0  0  0  0  0
   31.6572    1.3876   28.4320 H   0  0  0  0  0  0
   33.0895   -0.9207   31.2082 H   0  0  0  0  0  0
   31.4676   -0.8517   30.7074 H   0  0  0  0  0  0
   34.4602   -2.4218   29.0657 H   0  0  0  0  0  0
   34.7097   -0.9077   28.1364 H   0  0  0  0  0  0
   34.9228   -0.8980   29.8660 H   0  0  0  0  0  0
   30.2399   -0.9160   29.1486 H   0  0  0  0  0  0
   29.7327   -1.7398   25.0615 H   0  0  0  0  0  0
   34.2688   -2.9180   25.2282 H   0  0  0  0  0  0
   35.2596   -3.3413   23.0206 H   0  0  0  0  0  0
   31.5558   -2.4964   21.1333 H   0  0  0  0  0  0
   30.6536   -1.7400   23.2442 H   0  0  0  0  0  0
   34.7880   -3.8923   20.8136 H   0  0  0  0  0  0
   27.8014   -3.1054   27.2496 H   0  0  0  0  0  0
   25.4135   -2.5351   27.4644 H   0  0  0  0  0  0
   24.7218   -0.1615   27.4681 H   0  0  0  0  0  0
   26.4208    1.6369   27.5066 H   0  0  0  0  0  0
   28.7970    1.0794   27.3494 H   0  0  0  0  0  0
  1  2  1  0  0  0
  1 26  1  0  0  0
  1 27  1  0  0  0
  1 28  1  0  0  0
  2  3  1  0  0  0
  2  4  1  0  0  0
  2 29  1  0  0  0
  3 30  1  0  0  0
  3 31  1  0  0  0
  3 32  1  0  0  0
  4  5  1  0  0  0
  4 33  1  0  0  0
  4 34  1  0  0  0
  5  6  1  0  0  0
  5  7  1  0  0  0
  6 35  1  0  0  0
  6 36  1  0  0  0
  6 37  1  0  0  0
  7 12  1  0  0  0
  7  8  2  0  0  0
  8  9  1  0  0  0
  8 38  1  0  0  0
  9 10  2  0  0  0
  9 20  1  0  0  0
 10 11  1  0  0  0
 10 39  1  0  0  0
 11 12  2  0  0  0
 11 13  1  0  0  0
 13 18  1  0  0  0
 13 14  2  0  0  0
 14 15  1  0  0  0
 14 40  1  0  0  0
 15 16  2  0  0  0
 15 41  1  0  0  0
 16 17  1  0  0  0
 16 19  1  0  0  0
 17 18  2  0  0  0
 17 42  1  0  0  0
 18 43  1  0  0  0
 19 44  1  0  0  0
 20 25  1  0  0  0
 20 21  2  0  0  0
 21 22  1  0  0  0
 21 45  1  0  0  0
 22 23  2  0  0  0
 22 46  1  0  0  0
 23 24  1  0  0  0
 23 47  1  0  0  0
 24 25  2  0  0  0
 24 48  1  0  0  0
 25 49  1  0  0  0
M  END
> <s_m_entry_id>
17429

> <s_m_entry_name>
ligand_docking-pose.356

> <s_m_Source_Path>
/home/csk/Desktop/cluster/DUD-E-result/esr1

> <s_m_Source_File>
ligand_docking-pose.sdf

> <i_m_Source_File_Index>
356

> <i_lp_mmshare_version>
53161

> <i_f3d_flags>
0

> <r_lp_tautomer_probability>
0.999999999997365

> <s_lp_Force_Field>
OPLS_2005

> <r_lp_Energy>
23.302649

> <b_lp_Chiralities_Consistent>
1

> <s_lp_Variant>
90992-1

> <s_i_glide_gridfile>
glide-grid_1sj0

> <i_i_glide_lignum>
1472

> <i_i_glide_rotatable_bonds>
6

> <r_i_docking_score>
-8.38487168842363

> <r_i_glide_ligand_efficiency>
-0.335394867536945

> <r_i_glide_ligand_efficiency_sa>
-0.980700540931331

> <r_i_glide_ligand_efficiency_ln>
-1.98746586448431

> <r_i_glide_gscore>
-8.38487168842363

> <r_i_glide_lipo>
-5.17537217619013

> <r_i_glide_hbond>
0

> <r_i_glide_metal>
0

> <r_i_glide_rewards>
-2.34134164033167

> <r_i_glide_evdw>
-29.673267364502

> <r_i_glide_ecoul>
-0.4412602186203

> <r_i_glide_erotb>
0.681694529116308

> <r_i_glide_esite>
0

> <r_i_glide_emodel>
-40.8452523655031

> <r_i_glide_energy>
-30.1145275831223

> <r_i_glide_einternal>
6.40924692153931

> <i_i_glide_confnum>
43

> <i_i_glide_posenum>
61

> <r_i_glide_eff_state_penalty>
0

> <s_user_duplicate_titles>
90992

> <s_m_subgroup_title>
dock_pv

> <s_m_subgroupid>
dock_pv1

> <b_m_subgroup_collapsed>
0

$$$$
313023
                    3D
 Schrodinger Suite 2021-1.
 30 32  0  0  1  0            999 V2000
   32.1359   -2.3162   22.9694 C   0  0  0  0  0  0
   31.5233   -1.6332   24.0242 C   0  0  0  0  0  0
   31.9594   -1.8961   25.3320 C   0  0  0  0  0  0
   33.0061   -2.8003   25.5282 C   0  0  0  0  0  0
   33.6577   -3.4493   24.4802 C   0  0  0  0  0  0
   33.1865   -3.2066   23.1928 C   0  0  0  0  0  0
   33.7591   -3.8630   22.1394 O   0  0  0  0  0  0
   33.2599   -2.9303   26.8584 O   0  0  0  0  0  0
   32.3895   -2.0823   27.5514 N   0  0  0  0  0  0
   31.6264   -1.4859   26.6588 C   0  0  0  0  0  0
   30.5292   -0.5649   27.0477 C   0  0  0  0  0  0
   29.2672   -0.8709   26.5254 C   0  0  0  0  0  0
   28.1690   -0.0690   26.8067 C   0  0  0  0  0  0
   28.3319    1.0627   27.5950 C   0  0  0  0  0  0
   29.5811    1.3875   28.1170 C   0  0  0  0  0  0
   30.6912    0.5789   27.8538 C   0  0  0  0  0  0
   32.0431    1.0027   28.4190 C   0  0  0  0  0  0
   32.0500    1.0225   29.8917 C   0  0  0  0  0  0
   32.0541    1.0416   31.0492 N   0  0  0  0  0  0
   27.2602    1.8580   27.8622 O   0  0  0  0  0  0
   31.7894   -2.1432   21.9614 H   0  0  0  0  0  0
   30.7163   -0.9397   23.8369 H   0  0  0  0  0  0
   34.4598   -4.1416   24.6641 H   0  0  0  0  0  0
   33.2400   -3.8156   21.3323 H   0  0  0  0  0  0
   29.1266   -1.7417   25.9019 H   0  0  0  0  0  0
   27.2018   -0.3349   26.4078 H   0  0  0  0  0  0
   29.6853    2.2734   28.7263 H   0  0  0  0  0  0
   32.8628    0.3718   28.0808 H   0  0  0  0  0  0
   32.2698    2.0124   28.0766 H   0  0  0  0  0  0
   26.4426    1.5427   27.4652 H   0  0  0  0  0  0
  1  6  1  0  0  0
  1  2  2  0  0  0
  1 21  1  0  0  0
  2  3  1  0  0  0
  2 22  1  0  0  0
  3 10  1  0  0  0
  3  4  2  0  0  0
  4  5  1  0  0  0
  4  8  1  0  0  0
  5  6  2  0  0  0
  5 23  1  0  0  0
  6  7  1  0  0  0
  7 24  1  0  0  0
  8  9  1  0  0  0
  9 10  2  0  0  0
 10 11  1  0  0  0
 11 16  1  0  0  0
 11 12  2  0  0  0
 12 13  1  0  0  0
 12 25  1  0  0  0
 13 14  2  0  0  0
 13 26  1  0  0  0
 14 15  1  0  0  0
 14 20  1  0  0  0
 15 16  2  0  0  0
 15 27  1  0  0  0
 16 17  1  0  0  0
 17 18  1  0  0  0
 17 28  1  0  0  0
 17 29  1  0  0  0
 18 19  3  0  0  0
 20 30  1  0  0  0
M  END
> <s_m_entry_id>
17430

> <s_m_entry_name>
ligand_docking-pose.357

> <s_m_Source_Path>
/home/csk/Desktop/cluster/DUD-E-result/esr1

> <s_m_Source_File>
ligand_docking-pose.sdf

> <i_m_Source_File_Index>
357

> <i_lp_mmshare_version>
53161

> <i_f3d_flags>
0

> <r_lp_tautomer_probability>
0.999999999997365

> <s_lp_Force_Field>
OPLS_2005

> <r_lp_Energy>
31.141031

> <b_lp_Chiralities_Consistent>
1

> <s_lp_Variant>
313023-1

> <s_i_glide_gridfile>
glide-grid_1sj0

> <i_i_glide_lignum>
39

> <i_i_glide_rotatable_bonds>
4

> <r_i_docking_score>
-8.38120653013542

> <r_i_glide_ligand_efficiency>
-0.419060326506771

> <r_i_glide_ligand_efficiency_sa>
-1.13750473155011

> <r_i_glide_ligand_efficiency_ln>
-2.09753956380085

> <r_i_glide_gscore>
-8.38120653013542

> <r_i_glide_lipo>
-3.8266108601834

> <r_i_glide_hbond>
-0.0682486221265775

> <r_i_glide_metal>
0

> <r_i_glide_rewards>
-2.86927778889805

> <r_i_glide_evdw>
-33.5813407897949

> <r_i_glide_ecoul>
-2.9365930557251

> <r_i_glide_erotb>
0.502486738921125

> <r_i_glide_esite>
0

> <r_i_glide_emodel>
-51.8508492497241

> <r_i_glide_energy>
-36.51793384552

> <r_i_glide_einternal>
2.76787066459656

> <i_i_glide_confnum>
2

> <i_i_glide_posenum>
269

> <r_i_glide_eff_state_penalty>
0

> <s_user_duplicate_titles>
313023

> <s_m_subgroup_title>
dock_pv

> <s_m_subgroupid>
dock_pv1

> <b_m_subgroup_collapsed>
0

$$$$
357201
                    3D
 Schrodinger Suite 2021-1.
 47 51  0  0  1  0            999 V2000
   26.7141   -3.7768   28.3875 C   0  0  0  0  0  0
   26.3005   -2.4037   27.8499 C   0  0  0  0  0  0
   27.2132   -1.8831   26.7302 C   0  0  0  0  0  0
   28.6894   -1.7113   27.1636 C   0  0  0  0  0  0
   29.4959   -0.6090   26.4034 C   0  0  1  0  0  0
   28.9060    0.8168   26.6276 C   0  0  0  0  0  0
   28.9577    1.2288   28.1155 C   0  0  0  0  0  0
   30.3473    1.0118   28.7390 C   0  0  0  0  0  0
   30.6123    1.4580   29.8536 O   0  0  0  0  0  0
   31.3035    0.1847   27.9816 C   0  0  0  0  0  0
   30.9326   -0.5822   26.9253 C   0  0  0  0  0  0
   31.7192   -1.4918   26.0587 C   0  0  0  0  0  0
   32.9317   -2.1460   26.2670 C   0  0  0  0  0  0
   33.5330   -2.9419   25.2868 C   0  0  0  0  0  0
   32.9160   -2.9829   24.0421 C   0  0  0  0  0  0
   31.6957   -2.3171   23.7989 C   0  0  0  0  0  0
   31.0592   -1.6189   24.8473 C   0  0  0  0  0  0
   29.7064   -0.9683   24.9249 C   0  0  0  0  0  0
   31.3478   -2.5420   22.4987 N   0  0  0  0  0  0
   32.3069   -3.3424   21.9246 N   0  0  0  0  0  0
   33.2392   -3.6053   22.8507 N   0  0  0  0  0  0
   32.7052    0.3774   28.2611 C   0  0  0  0  0  0
   33.5508    1.2636   27.5991 C   0  0  0  0  0  0
   34.8614    1.2031   28.0652 C   0  0  0  0  0  0
   35.0164    0.2555   29.0645 C   0  0  0  0  0  0
   33.5349   -0.5397   29.4641 S   0  0  0  0  0  0
   34.0287   -4.1943   22.6292 H   0  0  0  0  0  0
   25.9453   -4.1421   29.0648 H   0  0  0  0  0  0
   26.8384   -4.5006   27.5816 H   0  0  0  0  0  0
   27.6561   -3.7421   28.9346 H   0  0  0  0  0  0
   26.2598   -1.6787   28.6642 H   0  0  0  0  0  0
   25.2825   -2.4697   27.4663 H   0  0  0  0  0  0
   26.7895   -0.9447   26.3795 H   0  0  0  0  0  0
   27.1538   -2.5562   25.8736 H   0  0  0  0  0  0
   29.1914   -2.6759   27.0621 H   0  0  0  0  0  0
   28.7262   -1.5086   28.2343 H   0  0  0  0  0  0
   27.8845    0.8966   26.2639 H   0  0  0  0  0  0
   29.4663    1.5482   26.0457 H   0  0  0  0  0  0
   28.2761    0.5836   28.6640 H   0  0  0  0  0  0
   28.6404    2.2582   28.2736 H   0  0  0  0  0  0
   33.4281   -2.0764   27.2189 H   0  0  0  0  0  0
   34.4598   -3.4542   25.4639 H   0  0  0  0  0  0
   28.9525   -1.7002   24.6639 H   0  0  0  0  0  0
   29.6387   -0.1072   24.2642 H   0  0  0  0  0  0
   33.2270    1.9226   26.8069 H   0  0  0  0  0  0
   35.6711    1.8068   27.6805 H   0  0  0  0  0  0
   35.9267   -0.0077   29.5818 H   0  0  0  0  0  0
  1  2  1  0  0  0
  1 28  1  0  0  0
  1 29  1  0  0  0
  1 30  1  0  0  0
  2  3  1  0  0  0
  2 31  1  0  0  0
  2 32  1  0  0  0
  3  4  1  0  0  0
  3 33  1  0  0  0
  3 34  1  0  0  0
  4  5  1  0  0  0
  4 35  1  0  0  0
  4 36  1  0  0  0
  5 11  1  0  0  0
  5 18  1  0  0  0
  5  6  1  0  0  0
  6  7  1  0  0  0
  6 37  1  0  0  0
  6 38  1  0  0  0
  7  8  1  0  0  0
  7 39  1  0  0  0
  7 40  1  0  0  0
  8  9  2  0  0  0
  8 10  1  0  0  0
 10 11  2  0  0  0
 10 22  1  0  0  0
 11 12  1  0  0  0
 12 17  1  0  0  0
 12 13  2  0  0  0
 13 14  1  0  0  0
 13 41  1  0  0  0
 14 15  2  0  0  0
 14 42  1  0  0  0
 15 21  1  0  0  0
 15 16  1  0  0  0
 16 17  2  0  0  0
 16 19  1  0  0  0
 17 18  1  0  0  0
 18 43  1  0  0  0
 18 44  1  0  0  0
 19 20  2  0  0  0
 20 21  1  0  0  0
 21 27  1  0  0  0
 22 26  1  0  0  0
 22 23  2  0  0  0
 23 24  1  0  0  0
 23 45  1  0  0  0
 24 25  2  0  0  0
 24 46  1  0  0  0
 25 26  1  0  0  0
 25 47  1  0  0  0
M  END
> <s_m_entry_id>
17431

> <s_m_entry_name>
ligand_docking-pose.358

> <s_m_Source_Path>
/home/csk/Desktop/cluster/DUD-E-result/esr1

> <s_m_Source_File>
ligand_docking-pose.sdf

> <i_m_Source_File_Index>
358

> <i_lp_mmshare_version>
53161

> <i_f3d_flags>
0

> <r_lp_tautomer_probability>
0.25

> <s_lp_Force_Field>
OPLS_2005

> <r_lp_Energy>
50.032075

> <b_lp_Chiralities_Consistent>
1

> <s_lp_Variant>
357201-2

> <s_i_glide_gridfile>
glide-grid_1sj0

> <i_i_glide_lignum>
1324

> <i_i_glide_rotatable_bonds>
4

> <r_i_docking_score>
-8.37552071902476

> <r_i_glide_ligand_efficiency>
-0.322135412270183

> <r_i_glide_ligand_efficiency_sa>
-0.954324891308777

> <r_i_glide_ligand_efficiency_ln>
-1.96696355853793

> <r_i_glide_gscore>
-8.37552071902476

> <r_i_glide_lipo>
-4.61793782995883

> <r_i_glide_hbond>
0

> <r_i_glide_metal>
0

> <r_i_glide_rewards>
-2.20835684544943

> <r_i_glide_evdw>
-37.0727691650391

> <r_i_glide_ecoul>
-0.753382742404938

> <r_i_glide_erotb>
0.436297118684909

> <r_i_glide_esite>
-0.0188772926887163

> <r_i_glide_emodel>
-48.6566351239138

> <r_i_glide_energy>
-37.826151907444

> <r_i_glide_einternal>
2.86502695083618

> <i_i_glide_confnum>
11

> <i_i_glide_posenum>
263

> <r_i_glide_eff_state_penalty>
0

> <s_user_duplicate_titles>
357201

> <s_m_subgroup_title>
dock_pv

> <s_m_subgroupid>
dock_pv1

> <b_m_subgroup_collapsed>
0

$$$$
308809
                    3D
 Schrodinger Suite 2021-1.
 28 30  0  0  1  0            999 V2000
   31.4574   -1.7427   23.7976 C   0  0  0  0  0  0
   31.6605   -2.5419   22.6640 C   0  0  0  0  0  0
   32.6330   -3.5324   22.6771 C   0  0  0  0  0  0
   33.3803   -3.7420   23.8216 C   0  0  0  0  0  0
   33.1659   -2.9867   24.9617 C   0  0  0  0  0  0
   32.1997   -1.9824   24.9596 C   0  0  0  0  0  0
   31.9907   -1.2375   26.2304 C   0  0  0  0  0  0
   32.7439   -1.1896   27.3964 C   0  0  0  0  0  0
   32.0766   -0.3185   28.2912 C   0  0  0  0  0  0
   32.3205    0.1628   29.5840 C   0  0  0  0  0  0
   31.3695    0.9957   30.1681 C   0  0  0  0  0  0
   30.1959    1.3389   29.4935 C   0  0  0  0  0  0
   29.9248    0.8755   28.2061 C   0  0  0  0  0  0
   30.8957    0.0601   27.6119 C   0  0  0  0  0  0
   30.8541   -0.4915   26.3589 O   0  0  0  0  0  0
   28.6669    1.1997   27.5634 C   0  0  0  0  0  0
   27.6602    1.4580   27.0638 N   0  0  0  0  0  0
   31.5889    1.4579   31.4345 O   0  0  0  0  0  0
   32.8549   -4.3333   21.5887 O   0  0  0  0  0  0
   30.6957   -0.9767   23.7876 H   0  0  0  0  0  0
   31.0664   -2.4216   21.7732 H   0  0  0  0  0  0
   34.0600   -4.5684   23.8474 H   0  0  0  0  0  0
   33.7283   -3.2177   25.8521 H   0  0  0  0  0  0
   33.6602   -1.7188   27.5760 H   0  0  0  0  0  0
   33.2183   -0.1224   30.1126 H   0  0  0  0  0  0
   29.4620    1.9394   30.0075 H   0  0  0  0  0  0
   32.4344    1.1680   31.7818 H   0  0  0  0  0  0
   32.0975   -4.4790   21.0090 H   0  0  0  0  0  0
  1  6  1  0  0  0
  1  2  2  0  0  0
  1 20  1  0  0  0
  2  3  1  0  0  0
  2 21  1  0  0  0
  3  4  2  0  0  0
  3 19  1  0  0  0
  4  5  1  0  0  0
  4 22  1  0  0  0
  5  6  2  0  0  0
  5 23  1  0  0  0
  6  7  1  0  0  0
  7 15  1  0  0  0
  7  8  2  0  0  0
  8  9  1  0  0  0
  8 24  1  0  0  0
  9 14  2  0  0  0
  9 10  1  0  0  0
 10 11  2  0  0  0
 10 25  1  0  0  0
 11 12  1  0  0  0
 11 18  1  0  0  0
 12 13  2  0  0  0
 12 26  1  0  0  0
 13 14  1  0  0  0
 13 16  1  0  0  0
 14 15  1  0  0  0
 16 17  3  0  0  0
 18 27  1  0  0  0
 19 28  1  0  0  0
M  END
> <s_m_entry_id>
17432

> <s_m_entry_name>
ligand_docking-pose.359

> <s_m_Source_Path>
/home/csk/Desktop/cluster/DUD-E-result/esr1

> <s_m_Source_File>
ligand_docking-pose.sdf

> <i_m_Source_File_Index>
359

> <i_lp_mmshare_version>
53161

> <i_f3d_flags>
0

> <r_lp_tautomer_probability>
0.999999999997365

> <s_lp_Force_Field>
OPLS_2005

> <r_lp_Energy>
7.795241

> <b_lp_Chiralities_Consistent>
1

> <s_lp_Variant>
308809-1

> <s_i_glide_gridfile>
glide-grid_1sj0

> <i_i_glide_lignum>
243

> <i_i_glide_rotatable_bonds>
3

> <r_i_docking_score>
-8.37276822907044

> <r_i_glide_ligand_efficiency>
-0.440672012056339

> <r_i_glide_ligand_efficiency_sa>
-1.17588992236264

> <r_i_glide_ligand_efficiency_ln>
-2.12267657664204

> <r_i_glide_gscore>
-8.37276822907044

> <r_i_glide_lipo>
-3.73345481143384

> <r_i_glide_hbond>
-0.0571505937273068

> <r_i_glide_metal>
0

> <r_i_glide_rewards>
-3.04151919432806

> <r_i_glide_evdw>
-32.6387176513672

> <r_i_glide_ecoul>
-1.24232089519501

> <r_i_glide_erotb>
0.277640387266374

> <r_i_glide_esite>
0

> <r_i_glide_emodel>
-49.1195248676766

> <r_i_glide_energy>
-33.8810385465622

> <r_i_glide_einternal>
1.75584578514099

> <i_i_glide_confnum>
2

> <i_i_glide_posenum>
367

> <r_i_glide_eff_state_penalty>
0

> <s_user_duplicate_titles>
308809

> <s_m_subgroup_title>
dock_pv

> <s_m_subgroupid>
dock_pv1

> <b_m_subgroup_collapsed>
0

$$$$
351067
                    3D
 Schrodinger Suite 2021-1.
 51 53  0  0  1  0            999 V2000
   35.2394    2.0843   27.8880 C   0  0  0  0  0  0
   34.4333    1.3545   28.9691 C   0  0  0  0  0  0
   34.2198   -0.1409   28.6803 C   0  0  0  0  0  0
   32.9970   -0.7400   29.4031 C   0  0  0  0  0  0
   31.6561   -0.2783   28.8105 C   0  0  0  0  0  0
   31.1604   -0.7319   27.6197 C   0  0  0  0  0  0
   31.7437   -1.6400   26.5933 C   0  0  0  0  0  0
   32.8316   -2.5243   26.6151 C   0  0  0  0  0  0
   33.2475   -3.1614   25.4461 C   0  0  0  0  0  0
   32.6265   -2.8839   24.2339 C   0  0  0  0  0  0
   31.5575   -1.9943   24.2002 C   0  0  0  0  0  0
   31.0823   -1.4213   25.3823 C   0  0  0  0  0  0
   29.9167   -0.4925   25.5584 C   0  0  0  0  0  0
   29.7849   -0.2965   27.0777 C   0  0  2  0  0  0
   29.5865    1.1948   27.4741 C   0  0  0  0  0  0
   29.6908    1.3948   28.9965 C   0  0  0  0  0  0
   30.9535    0.7666   29.6091 C   0  0  0  0  0  0
   31.2612    1.0521   30.7676 O   0  0  0  0  0  0
   28.6907   -1.2500   27.6695 C   0  0  0  0  0  0
   27.2277   -0.9718   27.2479 C   0  0  0  0  0  0
   26.1589   -1.7443   28.0484 C   0  0  0  0  0  0
   26.3677   -3.2674   28.1033 C   0  0  0  0  0  0
   33.0622   -3.5036   23.0923 O   0  0  0  0  0  0
   35.5824    3.0501   28.2661 H   0  0  0  0  0  0
   36.1094    1.5116   27.5700 H   0  0  0  0  0  0
   34.6348    2.2604   26.9977 H   0  0  0  0  0  0
   33.4697    1.8478   29.0568 H   0  0  0  0  0  0
   34.9238    1.4720   29.9362 H   0  0  0  0  0  0
   35.1225   -0.6896   28.9577 H   0  0  0  0  0  0
   34.0938   -0.2802   27.6086 H   0  0  0  0  0  0
   33.0855   -0.5611   30.4774 H   0  0  0  0  0  0
   33.0245   -1.8257   29.3411 H   0  0  0  0  0  0
   33.3681   -2.7511   27.5197 H   0  0  0  0  0  0
   34.0605   -3.8690   25.4637 H   0  0  0  0  0  0
   31.0704   -1.7843   23.2598 H   0  0  0  0  0  0
   29.0126   -0.9085   25.1146 H   0  0  0  0  0  0
   30.0866    0.4556   25.0648 H   0  0  0  0  0  0
   30.3331    1.8337   26.9915 H   0  0  0  0  0  0
   28.6294    1.5698   27.1132 H   0  0  0  0  0  0
   28.8596    0.8763   29.4628 H   0  0  0  0  0  0
   29.6174    2.4417   29.2809 H   0  0  0  0  0  0
   28.7423   -1.2401   28.7570 H   0  0  0  0  0  0
   28.9341   -2.2793   27.3931 H   0  0  0  0  0  0
   27.0947   -1.2131   26.1918 H   0  0  0  0  0  0
   27.0019    0.0898   27.3453 H   0  0  0  0  0  0
   25.2032   -1.5516   27.5652 H   0  0  0  0  0  0
   26.0618   -1.3419   29.0612 H   0  0  0  0  0  0
   25.5186   -3.7567   28.5819 H   0  0  0  0  0  0
   27.2624   -3.5427   28.6634 H   0  0  0  0  0  0
   26.4622   -3.6883   27.1002 H   0  0  0  0  0  0
   32.4993   -3.3509   22.3299 H   0  0  0  0  0  0
  1  2  1  0  0  0
  1 24  1  0  0  0
  1 25  1  0  0  0
  1 26  1  0  0  0
  2  3  1  0  0  0
  2 27  1  0  0  0
  2 28  1  0  0  0
  3  4  1  0  0  0
  3 29  1  0  0  0
  3 30  1  0  0  0
  4  5  1  0  0  0
  4 31  1  0  0  0
  4 32  1  0  0  0
  5 17  1  0  0  0
  5  6  2  0  0  0
  6 14  1  0  0  0
  6  7  1  0  0  0
  7 12  2  0  0  0
  7  8  1  0  0  0
  8  9  2  0  0  0
  8 33  1  0  0  0
  9 10  1  0  0  0
  9 34  1  0  0  0
 10 11  2  0  0  0
 10 23  1  0  0  0
 11 12  1  0  0  0
 11 35  1  0  0  0
 12 13  1  0  0  0
 13 14  1  0  0  0
 13 36  1  0  0  0
 13 37  1  0  0  0
 14 15  1  0  0  0
 14 19  1  0  0  0
 15 16  1  0  0  0
 15 38  1  0  0  0
 15 39  1  0  0  0
 16 17  1  0  0  0
 16 40  1  0  0  0
 16 41  1  0  0  0
 17 18  2  0  0  0
 19 20  1  0  0  0
 19 42  1  0  0  0
 19 43  1  0  0  0
 20 21  1  0  0  0
 20 44  1  0  0  0
 20 45  1  0  0  0
 21 22  1  0  0  0
 21 46  1  0  0  0
 21 47  1  0  0  0
 22 48  1  0  0  0
 22 49  1  0  0  0
 22 50  1  0  0  0
 23 51  1  0  0  0
M  END
> <s_m_entry_id>
17433

> <s_m_entry_name>
ligand_docking-pose.360

> <s_m_Source_Path>
/home/csk/Desktop/cluster/DUD-E-result/esr1

> <s_m_Source_File>
ligand_docking-pose.sdf

> <i_m_Source_File_Index>
360

> <i_lp_mmshare_version>
53161

> <i_f3d_flags>
0

> <r_lp_tautomer_probability>
1

> <s_lp_Force_Field>
OPLS_2005

> <r_lp_Energy>
21.462306

> <b_lp_Chiralities_Consistent>
1

> <s_lp_Variant>
351067-1

> <s_i_glide_gridfile>
glide-grid_1sj0

> <i_i_glide_lignum>
1366

> <i_i_glide_rotatable_bonds>
7

> <r_i_docking_score>
-8.36922005027585

> <r_i_glide_ligand_efficiency>
-0.363879132620689

> <r_i_glide_ligand_efficiency_sa>
-1.03482384883545

> <r_i_glide_ligand_efficiency_ln>
-2.02375329604843

> <r_i_glide_gscore>
-8.36922005027585

> <r_i_glide_lipo>
-4.67954762490162

> <r_i_glide_hbond>
0

> <r_i_glide_metal>
0

> <r_i_glide_rewards>
-2.51796301627693

> <r_i_glide_evdw>
-40.4767303466797

> <r_i_glide_ecoul>
0.611019790172577

> <r_i_glide_erotb>
0.76047413971079

> <r_i_glide_esite>
0

> <r_i_glide_emodel>
-57.7109300215337

> <r_i_glide_energy>
-39.8657105565071

> <r_i_glide_einternal>
2.02290940284729

> <i_i_glide_confnum>
28

> <i_i_glide_posenum>
230

> <r_i_glide_eff_state_penalty>
0

> <s_user_duplicate_titles>
351067

> <s_m_subgroup_title>
dock_pv

> <s_m_subgroupid>
dock_pv1

> <b_m_subgroup_collapsed>
0

$$$$
568768
                    3D
 Schrodinger Suite 2021-1.
 36 37  0  0  1  0            999 V2000
   31.6640    1.0941   27.2479 C   0  0  0  0  0  0
   31.9573   -0.3834   27.6368 C   0  0  0  0  0  0
   33.2667   -0.3228   28.4771 C   0  0  0  0  0  0
   30.8297   -0.9442   28.5554 C   0  0  0  0  0  0
   29.4267   -1.0405   27.9543 C   0  0  0  0  0  0
   28.9361   -2.2723   27.5088 C   0  0  0  0  0  0
   27.6196   -2.3769   27.0633 C   0  0  0  0  0  0
   26.8017   -1.2489   27.0576 C   0  0  0  0  0  0
   27.2934   -0.0135   27.4641 C   0  0  0  0  0  0
   28.6039    0.0891   27.9190 C   0  0  0  0  0  0
   25.4959   -1.3420   26.6640 O   0  0  0  0  0  0
   32.1485   -1.2991   26.3973 C   0  0  0  0  0  0
   32.8592   -2.5034   26.5191 C   0  0  0  0  0  0
   33.0930   -3.3056   25.4086 C   0  0  0  0  0  0
   32.5960   -2.9380   24.1648 C   0  0  0  0  0  0
   31.8560   -1.7682   24.0259 C   0  0  0  0  0  0
   31.6283   -0.9577   25.1365 C   0  0  0  0  0  0
   32.8358   -3.7413   23.0815 O   0  0  0  0  0  0
   31.5839    1.7322   28.1298 H   0  0  0  0  0  0
   32.4621    1.5062   26.6283 H   0  0  0  0  0  0
   30.7309    1.2135   26.6993 H   0  0  0  0  0  0
   33.1920    0.4037   29.2888 H   0  0  0  0  0  0
   33.5089   -1.2733   28.9530 H   0  0  0  0  0  0
   34.1235   -0.0334   27.8661 H   0  0  0  0  0  0
   31.1109   -1.9325   28.9228 H   0  0  0  0  0  0
   30.7580   -0.3356   29.4598 H   0  0  0  0  0  0
   29.5633   -3.1527   27.5252 H   0  0  0  0  0  0
   27.2332   -3.3319   26.7363 H   0  0  0  0  0  0
   26.6494    0.8550   27.4551 H   0  0  0  0  0  0
   28.9692    1.0425   28.2710 H   0  0  0  0  0  0
   25.2595   -2.2045   26.2661 H   0  0  0  0  0  0
   33.2519   -2.8267   27.4708 H   0  0  0  0  0  0
   33.6599   -4.2149   25.5137 H   0  0  0  0  0  0
   31.4583   -1.4835   23.0642 H   0  0  0  0  0  0
   31.0444   -0.0647   24.9922 H   0  0  0  0  0  0
   32.3841   -3.4668   22.2795 H   0  0  0  0  0  0
  1  2  1  0  0  0
  1 19  1  0  0  0
  1 20  1  0  0  0
  1 21  1  0  0  0
  2  3  1  0  0  0
  2  4  1  0  0  0
  2 12  1  0  0  0
  3 22  1  0  0  0
  3 23  1  0  0  0
  3 24  1  0  0  0
  4  5  1  0  0  0
  4 25  1  0  0  0
  4 26  1  0  0  0
  5 10  1  0  0  0
  5  6  2  0  0  0
  6  7  1  0  0  0
  6 27  1  0  0  0
  7  8  2  0  0  0
  7 28  1  0  0  0
  8  9  1  0  0  0
  8 11  1  0  0  0
  9 10  2  0  0  0
  9 29  1  0  0  0
 10 30  1  0  0  0
 11 31  1  0  0  0
 12 17  1  0  0  0
 12 13  2  0  0  0
 13 14  1  0  0  0
 13 32  1  0  0  0
 14 15  2  0  0  0
 14 33  1  0  0  0
 15 16  1  0  0  0
 15 18  1  0  0  0
 16 17  2  0  0  0
 16 34  1  0  0  0
 17 35  1  0  0  0
 18 36  1  0  0  0
M  END
> <s_m_entry_id>
17434

> <s_m_entry_name>
ligand_docking-pose.361

> <s_m_Source_Path>
/home/csk/Desktop/cluster/DUD-E-result/esr1

> <s_m_Source_File>
ligand_docking-pose.sdf

> <i_m_Source_File_Index>
361

> <i_lp_mmshare_version>
53161

> <i_f3d_flags>
0

> <r_lp_tautomer_probability>
0.99999999999473

> <s_lp_Force_Field>
OPLS_2005

> <r_lp_Energy>
13.825944

> <b_lp_Chiralities_Consistent>
1

> <s_lp_Variant>
568768-1

> <s_i_glide_gridfile>
glide-grid_1sj0

> <i_i_glide_lignum>
1396

> <i_i_glide_rotatable_bonds>
5

> <r_i_docking_score>
-8.36768960508074

> <r_i_glide_ligand_efficiency>
-0.464871644726708

> <r_i_glide_ligand_efficiency_sa>
-1.21830836115547

> <r_i_glide_ligand_efficiency_ln>
-2.15087146571458

> <r_i_glide_gscore>
-8.36768960508074

> <r_i_glide_lipo>
-3.98184833821755

> <r_i_glide_hbond>
-0.16

> <r_i_glide_metal>
0

> <r_i_glide_rewards>
-2.44857687173886

> <r_i_glide_evdw>
-32.0994071960449

> <r_i_glide_ecoul>
-5.28380537033081

> <r_i_glide_erotb>
0.620276770227537

> <r_i_glide_esite>
0

> <r_i_glide_emodel>
-57.5976363178811

> <r_i_glide_energy>
-37.3832125663757

> <r_i_glide_einternal>
0.913496732711792

> <i_i_glide_confnum>
5

> <i_i_glide_posenum>
379

> <r_i_glide_eff_state_penalty>
0

> <s_user_duplicate_titles>
568768

> <s_m_subgroup_title>
dock_pv

> <s_m_subgroupid>
dock_pv1

> <b_m_subgroup_collapsed>
0

$$$$
354311
                    3D
 Schrodinger Suite 2021-1.
 38 41  0  0  1  0            999 V2000
   29.1172   -2.7571   27.7191 C   0  0  0  0  0  0
   28.6399   -1.6365   26.7737 C   0  0  0  0  0  0
   29.7016   -0.5596   26.3063 C   0  0  1  0  0  0
   29.2013    0.8692   26.6646 C   0  0  0  0  0  0
   29.1596    1.0898   28.1906 C   0  0  0  0  0  0
   30.4968    0.7595   28.8717 C   0  0  0  0  0  0
   30.6454    1.0582   30.0560 O   0  0  0  0  0  0
   31.4536   -0.1026   28.1281 C   0  0  0  0  0  0
   31.0853   -0.7259   26.9657 C   0  0  0  0  0  0
   31.8077   -1.6754   26.0826 C   0  0  0  0  0  0
   32.8526   -2.5423   26.3689 C   0  0  0  0  0  0
   33.3979   -3.3492   25.3829 C   0  0  0  0  0  0
   32.9607   -3.2167   24.0863 C   0  0  0  0  0  0
   31.8578   -2.4176   23.7588 C   0  0  0  0  0  0
   31.2600   -1.6444   24.7971 C   0  0  0  0  0  0
   30.0590   -0.7449   24.8100 C   0  0  0  0  0  0
   31.6600   -2.7900   22.3797 C   0  0  0  0  0  0
   32.6058   -3.5448   21.8992 N   0  0  0  0  0  0
   33.3975   -3.8262   22.9308 N   0  0  0  0  0  0
   30.5744   -2.5420   21.6930 F   0  0  0  0  0  0
   32.8464   -0.2452   28.7850 C   0  0  0  0  0  0
   33.2067    0.8377   29.4811 F   0  0  0  0  0  0
   32.8543   -1.3029   29.5964 F   0  0  0  0  0  0
   33.7959   -0.3935   27.8641 F   0  0  0  0  0  0
   34.1695   -4.4662   22.8137 H   0  0  0  0  0  0
   28.3038   -3.4458   27.9496 H   0  0  0  0  0  0
   29.9175   -3.3420   27.2690 H   0  0  0  0  0  0
   29.4839   -2.3558   28.6640 H   0  0  0  0  0  0
   27.8004   -1.1491   27.2692 H   0  0  0  0  0  0
   28.1539   -2.1076   25.9184 H   0  0  0  0  0  0
   28.2205    1.0573   26.2256 H   0  0  0  0  0  0
   29.8671    1.6305   26.2640 H   0  0  0  0  0  0
   28.8575    2.1023   28.4584 H   0  0  0  0  0  0
   28.4330    0.4080   28.6281 H   0  0  0  0  0  0
   33.2071   -2.6637   27.3812 H   0  0  0  0  0  0
   34.0600   -4.1420   25.5798 H   0  0  0  0  0  0
   29.2600   -1.2141   24.2639 H   0  0  0  0  0  0
   30.2563    0.2027   24.3255 H   0  0  0  0  0  0
  1  2  1  0  0  0
  1 26  1  0  0  0
  1 27  1  0  0  0
  1 28  1  0  0  0
  2  3  1  0  0  0
  2 29  1  0  0  0
  2 30  1  0  0  0
  3  9  1  0  0  0
  3 16  1  0  0  0
  3  4  1  0  0  0
  4  5  1  0  0  0
  4 31  1  0  0  0
  4 32  1  0  0  0
  5  6  1  0  0  0
  5 33  1  0  0  0
  5 34  1  0  0  0
  6  7  2  0  0  0
  6  8  1  0  0  0
  8  9  2  0  0  0
  8 21  1  0  0  0
  9 10  1  0  0  0
 10 15  1  0  0  0
 10 11  2  0  0  0
 11 12  1  0  0  0
 11 35  1  0  0  0
 12 13  2  0  0  0
 12 36  1  0  0  0
 13 19  1  0  0  0
 13 14  1  0  0  0
 14 15  2  0  0  0
 14 17  1  0  0  0
 15 16  1  0  0  0
 16 37  1  0  0  0
 16 38  1  0  0  0
 17 18  2  0  0  0
 17 20  1  0  0  0
 18 19  1  0  0  0
 19 25  1  0  0  0
 21 22  1  0  0  0
 21 23  1  0  0  0
 21 24  1  0  0  0
M  END
> <s_m_entry_id>
17435

> <s_m_entry_name>
ligand_docking-pose.362

> <s_m_Source_Path>
/home/csk/Desktop/cluster/DUD-E-result/esr1

> <s_m_Source_File>
ligand_docking-pose.sdf

> <i_m_Source_File_Index>
362

> <i_lp_mmshare_version>
53161

> <i_f3d_flags>
0

> <r_lp_tautomer_probability>
1

> <s_lp_Force_Field>
OPLS_2005

> <r_lp_Energy>
40.464052

> <b_lp_Chiralities_Consistent>
1

> <s_lp_Variant>
354311-1

> <s_i_glide_gridfile>
glide-grid_1sj0

> <i_i_glide_lignum>
1076

> <i_i_glide_rotatable_bonds>
2

> <r_i_docking_score>
-8.36700203178645

> <r_i_glide_ligand_efficiency>
-0.348625084657769

> <r_i_glide_ligand_efficiency_sa>
-1.00560875602681

> <r_i_glide_ligand_efficiency_ln>
-2.00260752291209

> <r_i_glide_gscore>
-8.36700203178645

> <r_i_glide_lipo>
-4.069543037795

> <r_i_glide_hbond>
0

> <r_i_glide_metal>
0

> <r_i_glide_rewards>
-3.05878248721344

> <r_i_glide_evdw>
-25.260721206665

> <r_i_glide_ecoul>
0.162397146224976

> <r_i_glide_erotb>
0

> <r_i_glide_esite>
-1.83785102364746e-08

> <r_i_glide_emodel>
-34.5489943565674

> <r_i_glide_energy>
-25.0983240604401

> <r_i_glide_einternal>
5.46344375610352

> <i_i_glide_confnum>
1

> <i_i_glide_posenum>
179

> <r_i_glide_eff_state_penalty>
0

> <s_user_duplicate_titles>
354311

> <s_m_subgroup_title>
dock_pv

> <s_m_subgroupid>
dock_pv1

> <b_m_subgroup_collapsed>
0

$$$$
357003
                    3D
 Schrodinger Suite 2021-1.
 43 46  0  0  1  0            999 V2000
   35.6571    1.8856   27.6579 C   0  0  0  0  0  0
   35.2211    0.5471   28.2716 C   0  0  0  0  0  0
   34.1102    0.6603   29.3192 C   0  0  0  0  0  0
   32.7096    0.8762   28.7017 C   0  0  2  0  0  0
   31.8082    1.6814   29.6730 C   0  0  0  0  0  0
   30.5084    0.8810   29.7696 C   0  0  2  0  0  0
   31.0249   -0.5586   29.6123 C   0  0  0  0  0  0
   31.8902   -0.4239   28.3495 C   0  0  2  0  0  0
   32.6270   -1.7113   27.9473 C   0  0  0  0  0  0
   32.4273   -1.8661   26.4681 C   0  0  0  0  0  0
   32.9756   -2.8200   25.6090 C   0  0  0  0  0  0
   32.6358   -2.8218   24.2585 C   0  0  0  0  0  0
   31.7194   -1.8919   23.7731 C   0  0  0  0  0  0
   31.1256   -0.9763   24.6429 C   0  0  0  0  0  0
   31.4679   -0.9708   26.0006 C   0  0  0  0  0  0
   30.9498   -0.1899   27.1461 C   0  0  0  0  0  0
   29.8509    0.6020   27.2946 C   0  0  0  0  0  0
   29.6028    1.2910   28.5796 C   0  0  0  0  0  0
   28.8561    2.2576   28.6645 O   0  0  0  0  0  0
   28.7681    0.8478   26.2482 C   0  0  0  0  0  0
   33.1986   -3.7416   23.4161 O   0  0  0  0  0  0
   32.8331    1.4771   27.7985 H   0  0  0  0  0  0
   29.9819    1.0600   30.7063 H   0  0  0  0  0  0
   36.5362    1.7443   27.0316 H   0  0  0  0  0  0
   34.8763    2.3166   27.0327 H   0  0  0  0  0  0
   35.9198    2.6189   28.4197 H   0  0  0  0  0  0
   34.9007   -0.1007   27.4682 H   0  0  0  0  0  0
   36.0602    0.0434   28.7369 H   0  0  0  0  0  0
   34.0995   -0.2255   29.9553 H   0  0  0  0  0  0
   34.3744    1.4770   29.9918 H   0  0  0  0  0  0
   32.2453    1.7644   30.6703 H   0  0  0  0  0  0
   31.6589    2.7046   29.3285 H   0  0  0  0  0  0
   31.6110   -0.8750   30.4788 H   0  0  0  0  0  0
   30.2292   -1.2949   29.4642 H   0  0  0  0  0  0
   33.6682   -1.7447   28.2545 H   0  0  0  0  0  0
   32.1540   -2.5408   28.4572 H   0  0  0  0  0  0
   33.6600   -3.5666   25.9750 H   0  0  0  0  0  0
   31.4547   -1.8891   22.7266 H   0  0  0  0  0  0
   30.4177   -0.2782   24.2299 H   0  0  0  0  0  0
   27.7741    0.7532   26.6898 H   0  0  0  0  0  0
   28.8542    1.8597   25.8636 H   0  0  0  0  0  0
   28.7884    0.1392   25.4273 H   0  0  0  0  0  0
   32.8363   -3.7163   22.5268 H   0  0  0  0  0  0
  1  2  1  0  0  0
  1 24  1  0  0  0
  1 25  1  0  0  0
  1 26  1  0  0  0
  2  3  1  0  0  0
  2 27  1  0  0  0
  2 28  1  0  0  0
  3  4  1  0  0  0
  3 29  1  0  0  0
  3 30  1  0  0  0
  4 22  1  0  0  0
  4  8  1  0  0  0
  4  5  1  0  0  0
  5  6  1  0  0  0
  5 31  1  0  0  0
  5 32  1  0  0  0
  6 23  1  0  0  0
  6 18  1  0  0  0
  6  7  1  0  0  0
  7  8  1  0  0  0
  7 33  1  0  0  0
  7 34  1  0  0  0
  8 16  1  0  0  0
  8  9  1  0  0  0
  9 10  1  0  0  0
  9 35  1  0  0  0
  9 36  1  0  0  0
 10 15  2  0  0  0
 10 11  1  0  0  0
 11 12  2  0  0  0
 11 37  1  0  0  0
 12 13  1  0  0  0
 12 21  1  0  0  0
 13 14  2  0  0  0
 13 38  1  0  0  0
 14 15  1  0  0  0
 14 39  1  0  0  0
 15 16  1  0  0  0
 16 17  2  0  0  0
 17 18  1  0  0  0
 17 20  1  0  0  0
 18 19  2  0  0  0
 20 40  1  0  0  0
 20 41  1  0  0  0
 20 42  1  0  0  0
 21 43  1  0  0  0
M  END
> <s_m_entry_id>
17436

> <s_m_entry_name>
ligand_docking-pose.363

> <s_m_Source_Path>
/home/csk/Desktop/cluster/DUD-E-result/esr1

> <s_m_Source_File>
ligand_docking-pose.sdf

> <i_m_Source_File_Index>
363

> <i_lp_mmshare_version>
53161

> <i_f3d_flags>
0

> <r_lp_tautomer_probability>
1

> <s_lp_Force_Field>
OPLS_2005

> <r_lp_Energy>
43.115157

> <b_lp_Chiralities_Consistent>
1

> <s_lp_Variant>
357003-1

> <s_i_glide_gridfile>
glide-grid_1sj0

> <i_i_glide_lignum>
1458

> <i_i_glide_rotatable_bonds>
3

> <r_i_docking_score>
-8.36231800366545

> <r_i_glide_ligand_efficiency>
-0.398205619222164

> <r_i_glide_ligand_efficiency_sa>
-1.09861910892792

> <r_i_glide_ligand_efficiency_ln>
-2.0675662287517

> <r_i_glide_gscore>
-8.36231800366545

> <r_i_glide_lipo>
-4.21798994065349

> <r_i_glide_hbond>
0

> <r_i_glide_metal>
0

> <r_i_glide_rewards>
-2.66177219694316

> <r_i_glide_evdw>
-33.8086471557617

> <r_i_glide_ecoul>
-0.126862034201622

> <r_i_glide_erotb>
0.226905796849534

> <r_i_glide_esite>
0

> <r_i_glide_emodel>
-46.8045156722178

> <r_i_glide_energy>
-33.9355091899633

> <r_i_glide_einternal>
1.78111350536346

> <i_i_glide_confnum>
3

> <i_i_glide_posenum>
125

> <r_i_glide_eff_state_penalty>
0

> <s_user_duplicate_titles>
357003

> <s_m_subgroup_title>
dock_pv

> <s_m_subgroupid>
dock_pv1

> <b_m_subgroup_collapsed>
0

$$$$
322742
                    3D
 Schrodinger Suite 2021-1.
 31 33  0  0  1  0            999 V2000
   33.2797   -0.4559   29.0349 C   0  0  0  0  0  0
   32.9462    0.2218   30.2012 C   0  0  0  0  0  0
   31.7051    0.8237   30.3293 C   0  0  0  0  0  0
   30.7790    0.7743   29.2912 C   0  0  0  0  0  0
   31.0679    0.0683   28.0830 C   0  0  0  0  0  0
   32.3475   -0.5529   27.9713 C   0  0  0  0  0  0
   32.6703   -1.2640   26.8007 C   0  0  0  0  0  0
   31.7699   -1.4215   25.7422 C   0  0  0  0  0  0
   30.5150   -0.8123   25.8589 C   0  0  0  0  0  0
   30.1508   -0.0649   26.9878 C   0  0  0  0  0  0
   28.8284    0.5572   27.0251 C   0  0  0  0  0  0
   27.7846    1.0563   27.0642 N   0  0  0  0  0  0
   32.1548   -2.2410   24.5383 C   0  0  0  0  0  0
   31.6601   -1.9660   23.2563 C   0  0  0  0  0  0
   31.9927   -2.7620   22.1493 C   0  0  0  0  0  0
   32.8942   -3.8046   22.2862 C   0  0  0  0  0  0
   33.4177   -4.0709   23.5375 C   0  0  0  0  0  0
   33.0142   -3.3417   24.6525 C   0  0  0  0  0  0
   33.4196   -3.7617   25.8645 F   0  0  0  0  0  0
   33.2600   -4.5740   21.2133 O   0  0  0  0  0  0
   31.4399   -2.5436   20.9375 F   0  0  0  0  0  0
   31.3955    1.4579   31.4978 O   0  0  0  0  0  0
   34.2494   -0.9264   28.9485 H   0  0  0  0  0  0
   33.6558    0.2742   31.0148 H   0  0  0  0  0  0
   29.8217    1.2560   29.4171 H   0  0  0  0  0  0
   33.6547   -1.7061   26.7535 H   0  0  0  0  0  0
   29.8015   -0.9317   25.0546 H   0  0  0  0  0  0
   30.9874   -1.1376   23.1233 H   0  0  0  0  0  0
   34.0600   -4.9204   23.6781 H   0  0  0  0  0  0
   32.5166   -4.8591   20.6609 H   0  0  0  0  0  0
   30.5316    1.8738   31.4841 H   0  0  0  0  0  0
  1  6  1  0  0  0
  1  2  2  0  0  0
  1 23  1  0  0  0
  2  3  1  0  0  0
  2 24  1  0  0  0
  3  4  2  0  0  0
  3 22  1  0  0  0
  4  5  1  0  0  0
  4 25  1  0  0  0
  5 10  2  0  0  0
  5  6  1  0  0  0
  6  7  2  0  0  0
  7  8  1  0  0  0
  7 26  1  0  0  0
  8  9  2  0  0  0
  8 13  1  0  0  0
  9 10  1  0  0  0
  9 27  1  0  0  0
 10 11  1  0  0  0
 11 12  3  0  0  0
 13 18  1  0  0  0
 13 14  2  0  0  0
 14 15  1  0  0  0
 14 28  1  0  0  0
 15 16  2  0  0  0
 15 21  1  0  0  0
 16 17  1  0  0  0
 16 20  1  0  0  0
 17 18  2  0  0  0
 17 29  1  0  0  0
 18 19  1  0  0  0
 20 30  1  0  0  0
 22 31  1  0  0  0
M  END
> <s_m_entry_id>
17437

> <s_m_entry_name>
ligand_docking-pose.364

> <s_m_Source_Path>
/home/csk/Desktop/cluster/DUD-E-result/esr1

> <s_m_Source_File>
ligand_docking-pose.sdf

> <i_m_Source_File_Index>
364

> <i_lp_mmshare_version>
53161

> <i_f3d_flags>
0

> <r_lp_tautomer_probability>
0.999999999997365

> <s_lp_Force_Field>
OPLS_2005

> <r_lp_Energy>
19.148374

> <b_lp_Chiralities_Consistent>
1

> <s_lp_Variant>
322742-1

> <s_i_glide_gridfile>
glide-grid_1sj0

> <i_i_glide_lignum>
126

> <i_i_glide_rotatable_bonds>
3

> <r_i_docking_score>
-8.3578574954629

> <r_i_glide_ligand_efficiency>
-0.379902613430132

> <r_i_glide_ligand_efficiency_sa>
-1.06450206355319

> <r_i_glide_ligand_efficiency_ln>
-2.04296523215054

> <r_i_glide_gscore>
-8.3578574954629

> <r_i_glide_lipo>
-3.77954650435014

> <r_i_glide_hbond>
-0.137082034365876

> <r_i_glide_metal>
0

> <r_i_glide_rewards>
-2.89424339018165

> <r_i_glide_evdw>
-27.9251327514648

> <r_i_glide_ecoul>
-2.24023151397705

> <r_i_glide_erotb>
0.207475033169332

> <r_i_glide_esite>
-0.0221692350647649

> <r_i_glide_emodel>
-42.2810372250447

> <r_i_glide_energy>
-30.1653642654419

> <r_i_glide_einternal>
4.18269014358521

> <i_i_glide_confnum>
4

> <i_i_glide_posenum>
356

> <r_i_glide_eff_state_penalty>
0

> <s_user_duplicate_titles>
322742

> <s_m_subgroup_title>
dock_pv

> <s_m_subgroupid>
dock_pv1

> <b_m_subgroup_collapsed>
0

$$$$
373240
                    3D
 Schrodinger Suite 2021-1.
 37 39  0  0  1  0            999 V2000
   34.6334    0.3066   29.0624 C   0  0  0  0  0  0
   33.2984    0.8548   29.6040 C   0  0  0  0  0  0
   32.4381    1.6431   28.5815 C   0  0  0  0  0  0
   31.7453    0.7752   27.6293 N   0  0  0  0  0  0
   30.3852    0.6300   27.4066 C   0  0  0  0  0  0
   29.2518    1.2635   27.9332 C   0  0  0  0  0  0
   28.0149    0.8206   27.4640 C   0  0  0  0  0  0
   27.8977   -0.2541   26.5922 C   0  0  0  0  0  0
   29.0207   -0.8605   26.0462 C   0  0  0  0  0  0
   30.2813   -0.3965   26.4339 C   0  0  0  0  0  0
   31.6214   -0.6986   26.0746 C   0  0  0  0  0  0
   32.4600   -0.0078   26.8000 N   0  0  0  0  0  0
   32.0837   -1.6440   25.0272 C   0  0  0  0  0  0
   31.6598   -1.4526   23.7113 C   0  0  0  0  0  0
   32.0949   -2.3056   22.6968 C   0  0  0  0  0  0
   32.9859   -3.3310   22.9875 C   0  0  0  0  0  0
   33.4002   -3.5349   24.2997 C   0  0  0  0  0  0
   32.9211   -2.7233   25.3236 C   0  0  0  0  0  0
   33.2565   -2.9970   26.6200 O   0  0  0  0  0  0
   33.4468   -4.1420   21.9924 O   0  0  0  0  0  0
   26.8817    1.4580   27.8602 O   0  0  0  0  0  0
   35.2385   -0.1154   29.8640 H   0  0  0  0  0  0
   34.4933   -0.4906   28.3339 H   0  0  0  0  0  0
   35.2269    1.0913   28.5908 H   0  0  0  0  0  0
   33.5288    1.5092   30.4447 H   0  0  0  0  0  0
   32.7144    0.0386   30.0314 H   0  0  0  0  0  0
   33.0500    2.3472   28.0151 H   0  0  0  0  0  0
   31.6935    2.2420   29.1085 H   0  0  0  0  0  0
   29.3161    2.0755   28.6412 H   0  0  0  0  0  0
   26.9209   -0.5887   26.2701 H   0  0  0  0  0  0
   28.9184   -1.6600   25.3304 H   0  0  0  0  0  0
   30.9963   -0.6362   23.4646 H   0  0  0  0  0  0
   31.7645   -2.1456   21.6806 H   0  0  0  0  0  0
   34.0604   -4.3539   24.5237 H   0  0  0  0  0  0
   32.9001   -2.3302   27.2121 H   0  0  0  0  0  0
   32.9270   -4.0973   21.1853 H   0  0  0  0  0  0
   26.0966    1.1782   27.3809 H   0  0  0  0  0  0
  1  2  1  0  0  0
  1 22  1  0  0  0
  1 23  1  0  0  0
  1 24  1  0  0  0
  2  3  1  0  0  0
  2 25  1  0  0  0
  2 26  1  0  0  0
  3  4  1  0  0  0
  3 27  1  0  0  0
  3 28  1  0  0  0
  4 12  1  0  0  0
  4  5  1  0  0  0
  5 10  2  0  0  0
  5  6  1  0  0  0
  6  7  2  0  0  0
  6 29  1  0  0  0
  7  8  1  0  0  0
  7 21  1  0  0  0
  8  9  2  0  0  0
  8 30  1  0  0  0
  9 10  1  0  0  0
  9 31  1  0  0  0
 10 11  1  0  0  0
 11 12  2  0  0  0
 11 13  1  0  0  0
 13 18  1  0  0  0
 13 14  2  0  0  0
 14 15  1  0  0  0
 14 32  1  0  0  0
 15 16  2  0  0  0
 15 33  1  0  0  0
 16 17  1  0  0  0
 16 20  1  0  0  0
 17 18  2  0  0  0
 17 34  1  0  0  0
 18 19  1  0  0  0
 19 35  1  0  0  0
 20 36  1  0  0  0
 21 37  1  0  0  0
M  END
> <s_m_entry_id>
17438

> <s_m_entry_name>
ligand_docking-pose.365

> <s_m_Source_Path>
/home/csk/Desktop/cluster/DUD-E-result/esr1

> <s_m_Source_File>
ligand_docking-pose.sdf

> <i_m_Source_File_Index>
365

> <i_lp_mmshare_version>
53161

> <i_f3d_flags>
0

> <r_lp_tautomer_probability>
0.999999999898

> <s_lp_Force_Field>
OPLS_2005

> <r_lp_Energy>
21.254713

> <b_lp_Chiralities_Consistent>
1

> <s_lp_Variant>
373240-1

> <s_i_glide_gridfile>
glide-grid_1sj0

> <i_i_glide_lignum>
1515

> <i_i_glide_rotatable_bonds>
6

> <r_i_docking_score>
-8.35414251923098

> <r_i_glide_ligand_efficiency>
-0.397816310439571

> <r_i_glide_ligand_efficiency_sa>
-1.09754503551664

> <r_i_glide_ligand_efficiency_ln>
-2.0655448567454

> <r_i_glide_gscore>
-8.35414251923098

> <r_i_glide_lipo>
-4.28954436054178

> <r_i_glide_hbond>
-0.144901323695273

> <r_i_glide_metal>
0

> <r_i_glide_rewards>
-2.34621722306581

> <r_i_glide_evdw>
-32.5665740966797

> <r_i_glide_ecoul>
-2.6240656375885

> <r_i_glide_erotb>
0.448458938544136

> <r_i_glide_esite>
0

> <r_i_glide_emodel>
-48.0721394105871

> <r_i_glide_energy>
-35.1906397342682

> <r_i_glide_einternal>
5.04347991943359

> <i_i_glide_confnum>
1

> <i_i_glide_posenum>
213

> <r_i_glide_eff_state_penalty>
0

> <s_user_duplicate_titles>
373240

> <s_m_subgroup_title>
dock_pv

> <s_m_subgroupid>
dock_pv1

> <b_m_subgroup_collapsed>
0

$$$$
350993
                    3D
 Schrodinger Suite 2021-1.
 33 35  0  0  1  0            999 V2000
   34.4577    0.6075   29.3596 C   0  0  0  0  0  0
   33.3826    0.6655   28.2561 C   0  0  0  0  0  0
   32.2208   -0.3792   28.3637 C   0  0  1  0  0  0
   31.4543   -0.2808   29.7120 C   0  0  0  0  0  0
   30.6936    1.0585   29.8556 C   0  0  0  0  0  0
   29.8398    1.3946   28.6180 C   0  0  0  0  0  0
   28.9599    2.2484   28.6641 O   0  0  0  0  0  0
   30.1521    0.7020   27.3665 C   0  0  0  0  0  0
   31.2122   -0.1341   27.2288 C   0  0  0  0  0  0
   31.6629   -0.9597   26.0854 C   0  0  0  0  0  0
   31.3196   -0.9419   24.7290 C   0  0  0  0  0  0
   31.8891   -1.8630   23.8531 C   0  0  0  0  0  0
   32.7419   -2.8499   24.3360 C   0  0  0  0  0  0
   33.0327   -2.9166   25.6976 C   0  0  0  0  0  0
   32.5453   -1.9319   26.5589 C   0  0  0  0  0  0
   32.7126   -1.8007   28.0484 C   0  0  0  0  0  0
   33.2925   -3.7445   23.4639 O   0  0  0  0  0  0
   28.8243    0.8901   25.9084 Br  0  0  0  0  0  0
   35.2491    1.3324   29.1623 H   0  0  0  0  0  0
   34.0438    0.8464   30.3389 H   0  0  0  0  0  0
   34.9332   -0.3709   29.4233 H   0  0  0  0  0  0
   33.8798    0.5649   27.2903 H   0  0  0  0  0  0
   32.9708    1.6753   28.2440 H   0  0  0  0  0  0
   32.1327   -0.4181   30.5542 H   0  0  0  0  0  0
   30.7397   -1.1027   29.7898 H   0  0  0  0  0  0
   30.0710    1.0831   30.7492 H   0  0  0  0  0  0
   31.4272    1.8594   29.9437 H   0  0  0  0  0  0
   30.6499   -0.2037   24.3202 H   0  0  0  0  0  0
   31.6592   -1.8244   22.7989 H   0  0  0  0  0  0
   33.6600   -3.7089   26.0711 H   0  0  0  0  0  0
   33.7242   -1.9891   28.3968 H   0  0  0  0  0  0
   32.0898   -2.5419   28.5418 H   0  0  0  0  0  0
   33.7848   -4.4447   23.8992 H   0  0  0  0  0  0
  1  2  1  0  0  0
  1 19  1  0  0  0
  1 20  1  0  0  0
  1 21  1  0  0  0
  2  3  1  0  0  0
  2 22  1  0  0  0
  2 23  1  0  0  0
  3  9  1  0  0  0
  3 16  1  0  0  0
  3  4  1  0  0  0
  4  5  1  0  0  0
  4 24  1  0  0  0
  4 25  1  0  0  0
  5  6  1  0  0  0
  5 26  1  0  0  0
  5 27  1  0  0  0
  6  7  2  0  0  0
  6  8  1  0  0  0
  8  9  2  0  0  0
  8 18  1  0  0  0
  9 10  1  0  0  0
 10 15  1  0  0  0
 10 11  2  0  0  0
 11 12  1  0  0  0
 11 28  1  0  0  0
 12 13  2  0  0  0
 12 29  1  0  0  0
 13 14  1  0  0  0
 13 17  1  0  0  0
 14 15  2  0  0  0
 14 30  1  0  0  0
 15 16  1  0  0  0
 16 31  1  0  0  0
 16 32  1  0  0  0
 17 33  1  0  0  0
M  END
> <s_m_entry_id>
17439

> <s_m_entry_name>
ligand_docking-pose.366

> <s_m_Source_Path>
/home/csk/Desktop/cluster/DUD-E-result/esr1

> <s_m_Source_File>
ligand_docking-pose.sdf

> <i_m_Source_File_Index>
366

> <i_lp_mmshare_version>
53161

> <i_f3d_flags>
0

> <r_lp_tautomer_probability>
1

> <s_lp_Force_Field>
OPLS_2005

> <r_lp_Energy>
22.144215

> <b_lp_Chiralities_Consistent>
1

> <s_lp_Variant>
350993-2

> <s_i_glide_gridfile>
glide-grid_1sj0

> <i_i_glide_lignum>
1100

> <i_i_glide_rotatable_bonds>
2

> <r_i_docking_score>
-8.35333294460565

> <r_i_glide_ligand_efficiency>
-0.464074052478092

> <r_i_glide_ligand_efficiency_sa>
-1.21621807813583

> <r_i_glide_ligand_efficiency_ln>
-2.14718116016834

> <r_i_glide_gscore>
-8.35333294460565

> <r_i_glide_lipo>
-4.06077077822797

> <r_i_glide_hbond>
0

> <r_i_glide_metal>
0

> <r_i_glide_rewards>
-2.63916331283726

> <r_i_glide_evdw>
-32.070972442627

> <r_i_glide_ecoul>
-0.332334876060486

> <r_i_glide_erotb>
0

> <r_i_glide_esite>
0

> <r_i_glide_emodel>
-49.2314298940868

> <r_i_glide_energy>
-32.4033073186874

> <r_i_glide_einternal>
0.445952355861664

> <i_i_glide_confnum>
1

> <i_i_glide_posenum>
96

> <r_i_glide_eff_state_penalty>
0

> <s_user_duplicate_titles>
350993

> <s_m_subgroup_title>
dock_pv

> <s_m_subgroupid>
dock_pv1

> <b_m_subgroup_collapsed>
0

$$$$
313457
                    3D
 Schrodinger Suite 2021-1.
 33 35  0  0  1  0            999 V2000
   27.7144   -0.8939   27.7205 C   0  0  0  0  0  0
   27.6827    0.4254   27.4642 C   0  0  0  0  0  0
   28.8055    1.4340   27.6850 C   0  0  0  0  0  0
   30.0950    0.9054   28.3078 C   0  0  0  0  0  0
   30.4602    1.2530   29.6145 C   0  0  0  0  0  0
   31.6602    0.8300   30.1964 C   0  0  0  0  0  0
   32.5529    0.0037   29.5102 C   0  0  0  0  0  0
   32.2043   -0.3849   28.2106 C   0  0  0  0  0  0
   31.0061    0.0771   27.6417 C   0  0  0  0  0  0
   30.9205   -0.4351   26.3889 O   0  0  0  0  0  0
   32.0529   -1.1905   26.2660 C   0  0  0  0  0  0
   32.8490   -1.1896   27.3191 N   0  0  0  0  0  0
   32.2460   -1.9643   25.0041 C   0  0  0  0  0  0
   33.2147   -2.9684   24.9823 C   0  0  0  0  0  0
   33.3953   -3.7418   23.8435 C   0  0  0  0  0  0
   32.6400   -3.5303   22.7022 C   0  0  0  0  0  0
   31.6643   -2.5421   22.7104 C   0  0  0  0  0  0
   31.4637   -1.7595   23.8571 C   0  0  0  0  0  0
   30.4607   -0.8551   23.8642 F   0  0  0  0  0  0
   32.8581   -4.3242   21.6087 O   0  0  0  0  0  0
   31.9650    1.2326   31.4641 O   0  0  0  0  0  0
   28.5901   -1.3786   28.1265 H   0  0  0  0  0  0
   26.8531   -1.5143   27.5224 H   0  0  0  0  0  0
   26.7710    0.8407   27.0586 H   0  0  0  0  0  0
   29.0570    1.8647   26.7152 H   0  0  0  0  0  0
   28.4106    2.2531   28.2900 H   0  0  0  0  0  0
   29.7918    1.8579   30.2055 H   0  0  0  0  0  0
   33.4748   -0.3355   29.9567 H   0  0  0  0  0  0
   33.8013   -3.1832   25.8620 H   0  0  0  0  0  0
   34.0605   -4.5786   23.8633 H   0  0  0  0  0  0
   31.0494   -2.4264   21.8346 H   0  0  0  0  0  0
   32.0998   -4.4730   21.0312 H   0  0  0  0  0  0
   32.8272    0.9233   31.7485 H   0  0  0  0  0  0
  1  2  2  0  0  0
  1 22  1  0  0  0
  1 23  1  0  0  0
  2  3  1  0  0  0
  2 24  1  0  0  0
  3  4  1  0  0  0
  3 25  1  0  0  0
  3 26  1  0  0  0
  4  9  1  0  0  0
  4  5  2  0  0  0
  5  6  1  0  0  0
  5 27  1  0  0  0
  6  7  2  0  0  0
  6 21  1  0  0  0
  7  8  1  0  0  0
  7 28  1  0  0  0
  8 12  1  0  0  0
  8  9  2  0  0  0
  9 10  1  0  0  0
 10 11  1  0  0  0
 11 12  2  0  0  0
 11 13  1  0  0  0
 13 18  1  0  0  0
 13 14  2  0  0  0
 14 15  1  0  0  0
 14 29  1  0  0  0
 15 16  2  0  0  0
 15 30  1  0  0  0
 16 17  1  0  0  0
 16 20  1  0  0  0
 17 18  2  0  0  0
 17 31  1  0  0  0
 18 19  1  0  0  0
 20 32  1  0  0  0
 21 33  1  0  0  0
M  END
> <s_m_entry_id>
17440

> <s_m_entry_name>
ligand_docking-pose.367

> <s_m_Source_Path>
/home/csk/Desktop/cluster/DUD-E-result/esr1

> <s_m_Source_File>
ligand_docking-pose.sdf

> <i_m_Source_File_Index>
367

> <i_lp_mmshare_version>
53161

> <i_f3d_flags>
0

> <r_lp_tautomer_probability>
0.999999999997365

> <s_lp_Force_Field>
OPLS_2005

> <r_lp_Energy>
14.060032

> <b_lp_Chiralities_Consistent>
1

> <s_lp_Variant>
313457-1

> <s_i_glide_gridfile>
glide-grid_1sj0

> <i_i_glide_lignum>
1254

> <i_i_glide_rotatable_bonds>
5

> <r_i_docking_score>
-8.34940920832494

> <r_i_glide_ligand_efficiency>
-0.39759091468214

> <r_i_glide_ligand_efficiency_sa>
-1.09692318571284

> <r_i_glide_ligand_efficiency_ln>
-2.06437455518844

> <r_i_glide_gscore>
-8.34940920832494

> <r_i_glide_lipo>
-4.35984406367868

> <r_i_glide_hbond>
-0.0523369336112514

> <r_i_glide_metal>
0

> <r_i_glide_rewards>
-2.49966496791814

> <r_i_glide_evdw>
-34.3045082092285

> <r_i_glide_ecoul>
-2.60728120803833

> <r_i_glide_erotb>
0.668754348550313

> <r_i_glide_esite>
0

> <r_i_glide_emodel>
-53.7056934588257

> <r_i_glide_energy>
-36.9117894172668

> <r_i_glide_einternal>
2.37436604499817

> <i_i_glide_confnum>
6

> <i_i_glide_posenum>
286

> <r_i_glide_eff_state_penalty>
0

> <s_user_duplicate_titles>
313457

> <s_m_subgroup_title>
dock_pv

> <s_m_subgroupid>
dock_pv1

> <b_m_subgroup_collapsed>
0

$$$$
364571
                    3D
 Schrodinger Suite 2021-1.
 47 49  0  0  1  0            999 V2000
   33.2600   -1.8889   28.4993 C   0  0  0  0  0  0
   33.6175   -0.5829   29.2288 C   0  0  0  0  0  0
   32.9822   -0.6394   30.6336 C   0  0  0  0  0  0
   35.1564   -0.4875   29.3403 C   0  0  0  0  0  0
   33.1324    0.6540   28.4238 C   0  0  0  0  0  0
   31.6133    0.8297   28.3162 C   0  0  0  0  0  0
   30.9031    1.5165   29.2993 C   0  0  0  0  0  0
   29.5578    1.8174   29.1196 C   0  0  0  0  0  0
   28.8617    1.3304   28.0298 C   0  0  0  0  0  0
   29.5073    0.4879   27.1308 C   0  0  0  0  0  0
   30.8934    0.2848   27.2525 C   0  0  0  0  0  0
   31.6045   -0.4714   26.3458 O   0  0  0  0  0  0
   30.8792   -1.5452   25.7495 C   0  0  1  0  0  0
   29.5880   -0.9725   25.1316 C   0  0  0  0  0  0
   28.7445   -0.3783   26.2200 C   0  0  0  0  0  0
   27.5485   -0.6170   26.3627 O   0  0  0  0  0  0
   31.7864   -2.2288   24.7450 C   0  0  0  0  0  0
   31.6614   -1.9655   23.3855 C   0  0  0  0  0  0
   32.5205   -2.5420   22.4600 C   0  0  0  0  0  0
   33.5470   -3.3580   22.9119 C   0  0  0  0  0  0
   33.6701   -3.6336   24.2723 C   0  0  0  0  0  0
   32.7784   -3.0964   25.1856 C   0  0  0  0  0  0
   34.4335   -3.8810   22.0116 O   0  0  0  0  0  0
   27.5466    1.6780   27.8640 O   0  0  0  0  0  0
   31.5132    1.8580   30.4698 O   0  0  0  0  0  0
   30.6355   -2.2996   26.5039 H   0  0  0  0  0  0
   33.6600   -1.8608   27.4893 H   0  0  0  0  0  0
   33.6737   -2.7659   28.9992 H   0  0  0  0  0  0
   32.1826   -2.0398   28.4341 H   0  0  0  0  0  0
   33.2946    0.1859   31.2731 H   0  0  0  0  0  0
   31.8934   -0.6725   30.6005 H   0  0  0  0  0  0
   33.2600   -1.5527   31.1356 H   0  0  0  0  0  0
   35.4687    0.4154   29.8641 H   0  0  0  0  0  0
   35.5859   -1.3406   29.8640 H   0  0  0  0  0  0
   35.6277   -0.4496   28.3575 H   0  0  0  0  0  0
   33.5581    0.6289   27.4185 H   0  0  0  0  0  0
   33.5511    1.5640   28.8558 H   0  0  0  0  0  0
   29.0128    2.3694   29.8640 H   0  0  0  0  0  0
   29.8568   -0.1592   24.4586 H   0  0  0  0  0  0
   29.0004   -1.7420   24.6640 H   0  0  0  0  0  0
   30.8901   -1.3010   23.0640 H   0  0  0  0  0  0
   32.4022   -2.3348   21.4069 H   0  0  0  0  0  0
   34.4600   -4.2526   24.6549 H   0  0  0  0  0  0
   32.8700   -3.3575   26.2268 H   0  0  0  0  0  0
   34.1396   -3.8061   21.1009 H   0  0  0  0  0  0
   27.1397    1.1781   27.1493 H   0  0  0  0  0  0
   32.4135    1.5283   30.5023 H   0  0  0  0  0  0
  1  2  1  0  0  0
  1 27  1  0  0  0
  1 28  1  0  0  0
  1 29  1  0  0  0
  2  3  1  0  0  0
  2  4  1  0  0  0
  2  5  1  0  0  0
  3 30  1  0  0  0
  3 31  1  0  0  0
  3 32  1  0  0  0
  4 33  1  0  0  0
  4 34  1  0  0  0
  4 35  1  0  0  0
  5  6  1  0  0  0
  5 36  1  0  0  0
  5 37  1  0  0  0
  6 11  1  0  0  0
  6  7  2  0  0  0
  7  8  1  0  0  0
  7 25  1  0  0  0
  8  9  2  0  0  0
  8 38  1  0  0  0
  9 10  1  0  0  0
  9 24  1  0  0  0
 10 15  1  0  0  0
 10 11  2  0  0  0
 11 12  1  0  0  0
 12 13  1  0  0  0
 13 26  1  0  0  0
 13 14  1  0  0  0
 13 17  1  0  0  0
 14 15  1  0  0  0
 14 39  1  0  0  0
 14 40  1  0  0  0
 15 16  2  0  0  0
 17 22  1  0  0  0
 17 18  2  0  0  0
 18 19  1  0  0  0
 18 41  1  0  0  0
 19 20  2  0  0  0
 19 42  1  0  0  0
 20 21  1  0  0  0
 20 23  1  0  0  0
 21 22  2  0  0  0
 21 43  1  0  0  0
 22 44  1  0  0  0
 23 45  1  0  0  0
 24 46  1  0  0  0
 25 47  1  0  0  0
M  END
> <s_m_entry_id>
17441

> <s_m_entry_name>
ligand_docking-pose.368

> <s_m_Source_Path>
/home/csk/Desktop/cluster/DUD-E-result/esr1

> <s_m_Source_File>
ligand_docking-pose.sdf

> <i_m_Source_File_Index>
368

> <i_lp_mmshare_version>
53161

> <i_f3d_flags>
0

> <r_lp_tautomer_probability>
0.999949999997365

> <s_lp_Force_Field>
OPLS_2005

> <r_lp_Energy>
27.00333

> <b_lp_Chiralities_Consistent>
1

> <s_lp_Variant>
364571-1

> <s_i_glide_gridfile>
glide-grid_1sj0

> <i_i_glide_lignum>
1421

> <i_i_glide_rotatable_bonds>
6

> <r_i_docking_score>
-8.34886148744334

> <r_i_glide_ligand_efficiency>
-0.333954459497734

> <r_i_glide_ligand_efficiency_sa>
-0.976488762278932

> <r_i_glide_ligand_efficiency_ln>
-1.97893036771334

> <r_i_glide_gscore>
-8.34886148744334

> <r_i_glide_lipo>
-4.87311403836558

> <r_i_glide_hbond>
0

> <r_i_glide_metal>
0

> <r_i_glide_rewards>
-2.19851676546648

> <r_i_glide_evdw>
-29.5131072998047

> <r_i_glide_ecoul>
-0.833860993385315

> <r_i_glide_erotb>
0.323503830386749

> <r_i_glide_esite>
0

> <r_i_glide_emodel>
-37.9849929410173

> <r_i_glide_energy>
-30.34696829319

> <r_i_glide_einternal>
2.62370157241821

> <i_i_glide_confnum>
2

> <i_i_glide_posenum>
99

> <r_i_glide_eff_state_penalty>
0

> <s_user_duplicate_titles>
364571

> <s_m_subgroup_title>
dock_pv

> <s_m_subgroupid>
dock_pv1

> <b_m_subgroup_collapsed>
0

$$$$
223258
                    3D
 Schrodinger Suite 2021-1.
 36 37  0  0  1  0            999 V2000
   35.0835    1.4990   27.9112 C   0  0  0  0  0  0
   33.7924    1.0569   27.5149 O   0  0  0  0  0  0
   33.1759    0.0586   28.1874 C   0  0  0  0  0  0
   33.5986   -0.4883   29.2093 O   0  0  0  0  0  0
   31.8325   -0.3445   27.5370 C   0  0  2  0  0  0
   30.8271   -0.9559   28.5473 C   0  0  0  0  0  0
   29.4100   -1.0670   27.9975 C   0  0  0  0  0  0
   28.6148    0.0791   27.9094 C   0  0  0  0  0  0
   27.3004   -0.0194   27.4636 C   0  0  0  0  0  0
   26.7911   -1.2586   27.0874 C   0  0  0  0  0  0
   27.5863   -2.4019   27.1419 C   0  0  0  0  0  0
   28.8982   -2.3071   27.6022 C   0  0  0  0  0  0
   25.4945   -1.3420   26.6640 O   0  0  0  0  0  0
   32.0837   -1.2800   26.3451 C   0  0  0  0  0  0
   32.8588   -2.4411   26.4748 C   0  0  0  0  0  0
   33.0847   -3.2562   25.3705 C   0  0  0  0  0  0
   32.5198   -2.9317   24.1418 C   0  0  0  0  0  0
   31.7175   -1.8009   24.0109 C   0  0  0  0  0  0
   31.4951   -0.9801   25.1131 C   0  0  0  0  0  0
   32.7534   -3.7422   23.0640 O   0  0  0  0  0  0
   35.4287    2.2889   27.2444 H   0  0  0  0  0  0
   35.0735    1.8897   28.9300 H   0  0  0  0  0  0
   35.8052    0.6819   27.8639 H   0  0  0  0  0  0
   31.3992    0.5815   27.1568 H   0  0  0  0  0  0
   31.1679   -1.9357   28.8879 H   0  0  0  0  0  0
   30.7822   -0.3476   29.4531 H   0  0  0  0  0  0
   29.0048    1.0413   28.2087 H   0  0  0  0  0  0
   26.6749    0.8603   27.4111 H   0  0  0  0  0  0
   27.1876   -3.3597   26.8384 H   0  0  0  0  0  0
   29.5111   -3.1963   27.6518 H   0  0  0  0  0  0
   25.2596   -2.2067   26.2687 H   0  0  0  0  0  0
   33.2929   -2.7068   27.4276 H   0  0  0  0  0  0
   33.6931   -4.1421   25.4636 H   0  0  0  0  0  0
   31.2623   -1.5594   23.0642 H   0  0  0  0  0  0
   30.8638   -0.1117   25.0064 H   0  0  0  0  0  0
   32.2652   -3.4985   22.2742 H   0  0  0  0  0  0
  1  2  1  0  0  0
  1 21  1  0  0  0
  1 22  1  0  0  0
  1 23  1  0  0  0
  2  3  1  0  0  0
  3  4  2  0  0  0
  3  5  1  0  0  0
  5  6  1  0  0  0
  5 14  1  0  0  0
  5 24  1  0  0  0
  6  7  1  0  0  0
  6 25  1  0  0  0
  6 26  1  0  0  0
  7 12  1  0  0  0
  7  8  2  0  0  0
  8  9  1  0  0  0
  8 27  1  0  0  0
  9 10  2  0  0  0
  9 28  1  0  0  0
 10 11  1  0  0  0
 10 13  1  0  0  0
 11 12  2  0  0  0
 11 29  1  0  0  0
 12 30  1  0  0  0
 13 31  1  0  0  0
 14 19  1  0  0  0
 14 15  2  0  0  0
 15 16  1  0  0  0
 15 32  1  0  0  0
 16 17  2  0  0  0
 16 33  1  0  0  0
 17 18  1  0  0  0
 17 20  1  0  0  0
 18 19  2  0  0  0
 18 34  1  0  0  0
 19 35  1  0  0  0
 20 36  1  0  0  0
M  END
> <s_m_entry_id>
17442

> <s_m_entry_name>
ligand_docking-pose.369

> <s_m_Source_Path>
/home/csk/Desktop/cluster/DUD-E-result/esr1

> <s_m_Source_File>
ligand_docking-pose.sdf

> <i_m_Source_File_Index>
369

> <i_lp_mmshare_version>
53161

> <i_f3d_flags>
0

> <r_lp_tautomer_probability>
0.99999999999473

> <s_lp_Force_Field>
OPLS_2005

> <r_lp_Energy>
11.594533

> <b_lp_Chiralities_Consistent>
1

> <s_lp_Variant>
223258-1

> <s_i_glide_gridfile>
glide-grid_1sj0

> <i_i_glide_lignum>
1802

> <i_i_glide_rotatable_bonds>
7

> <r_i_docking_score>
-8.34475965984144

> <r_i_glide_ligand_efficiency>
-0.417237982992072

> <r_i_glide_ligand_efficiency_sa>
-1.13255813021526

> <r_i_glide_ligand_efficiency_ln>
-2.0884181142645

> <r_i_glide_gscore>
-8.34475965984144

> <r_i_glide_lipo>
-3.71773713789532

> <r_i_glide_hbond>
-0.16

> <r_i_glide_metal>
0

> <r_i_glide_rewards>
-2.41949042673347

> <r_i_glide_evdw>
-37.4979858398438

> <r_i_glide_ecoul>
-5.66220569610596

> <r_i_glide_erotb>
0.676698051195437

> <r_i_glide_esite>
0

> <r_i_glide_emodel>
-66.1151323681891

> <r_i_glide_energy>
-43.1601915359497

> <r_i_glide_einternal>
1.14349019527435

> <i_i_glide_confnum>
15

> <i_i_glide_posenum>
311

> <r_i_glide_eff_state_penalty>
0

> <s_user_duplicate_titles>
223258

> <s_m_subgroup_title>
dock_pv

> <s_m_subgroupid>
dock_pv1

> <b_m_subgroup_collapsed>
0

$$$$
399907
                    3D
 Schrodinger Suite 2021-1.
 41 44  0  0  1  0            999 V2000
   28.4423   -3.0576   28.2538 C   0  0  0  0  0  0
   27.2561   -3.7674   28.2640 C   0  0  0  0  0  0
   26.0595   -3.0713   28.1702 C   0  0  0  0  0  0
   26.0224   -1.7037   27.9331 C   0  0  0  0  0  0
   27.2008   -0.9973   27.8783 C   0  0  0  0  0  0
   28.4022   -1.6750   28.0730 C   0  0  0  0  0  0
   29.6688   -0.8911   27.9804 C   0  0  2  0  0  0
   30.3437   -1.1446   26.6281 C   0  0  2  0  0  0
   31.0372   -2.5460   26.4787 C   0  0  0  0  0  0
   31.9837   -2.6140   25.2754 C   0  0  0  0  0  0
   32.0588   -3.4949   24.4359 O   0  0  0  0  0  0
   32.8601   -1.4262   25.1807 C   0  0  0  0  0  0
   32.0604   -0.1421   25.1726 C   0  0  0  0  0  0
   31.2943    0.0428   26.4644 C   0  0  2  0  0  0
   32.1546    0.2254   27.7243 C   0  0  0  0  0  0
   33.3600    0.9333   27.7179 C   0  0  0  0  0  0
   34.0834    1.1295   28.8847 C   0  0  0  0  0  0
   33.5787    0.6614   30.0988 C   0  0  0  0  0  0
   32.4055   -0.0867   30.1311 C   0  0  0  0  0  0
   31.7059   -0.3128   28.9510 C   0  0  0  0  0  0
   30.5868   -1.1208   29.0472 O   0  0  0  0  0  0
   35.2594    1.8240   28.8026 O   0  0  0  0  0  0
   24.8900   -3.7418   28.2643 O   0  0  0  0  0  0
   29.3542    0.1552   28.0576 H   0  0  0  0  0  0
   29.5870   -1.0681   25.8423 H   0  0  0  0  0  0
   30.6944    0.9496   26.3629 H   0  0  0  0  0  0
   29.3772   -3.5823   28.3694 H   0  0  0  0  0  0
   27.2652   -4.8390   28.3864 H   0  0  0  0  0  0
   25.0915   -1.1789   27.7973 H   0  0  0  0  0  0
   27.1700    0.0674   27.6947 H   0  0  0  0  0  0
   31.6245   -2.7766   27.3670 H   0  0  0  0  0  0
   30.3084   -3.3396   26.3657 H   0  0  0  0  0  0
   33.4525   -1.5058   26.0888 H   0  0  0  0  0  0
   33.5204   -1.5173   24.3203 H   0  0  0  0  0  0
   32.6811    0.7395   25.0617 H   0  0  0  0  0  0
   31.3815   -0.1434   24.3173 H   0  0  0  0  0  0
   33.7519    1.3542   26.8050 H   0  0  0  0  0  0
   34.0601    0.8798   31.0323 H   0  0  0  0  0  0
   32.0351   -0.4826   31.0653 H   0  0  0  0  0  0
   35.9946    1.4464   29.2975 H   0  0  0  0  0  0
   24.5107   -3.7700   27.3647 H   0  0  0  0  0  0
  1  6  1  0  0  0
  1  2  2  0  0  0
  1 27  1  0  0  0
  2  3  1  0  0  0
  2 28  1  0  0  0
  3  4  2  0  0  0
  3 23  1  0  0  0
  4  5  1  0  0  0
  4 29  1  0  0  0
  5  6  2  0  0  0
  5 30  1  0  0  0
  6  7  1  0  0  0
  7 24  1  0  0  0
  7 21  1  0  0  0
  7  8  1  0  0  0
  8 25  1  0  0  0
  8 14  1  0  0  0
  8  9  1  0  0  0
  9 10  1  0  0  0
  9 31  1  0  0  0
  9 32  1  0  0  0
 10 11  2  0  0  0
 10 12  1  0  0  0
 12 13  1  0  0  0
 12 33  1  0  0  0
 12 34  1  0  0  0
 13 14  1  0  0  0
 13 35  1  0  0  0
 13 36  1  0  0  0
 14 26  1  0  0  0
 14 15  1  0  0  0
 15 20  2  0  0  0
 15 16  1  0  0  0
 16 17  2  0  0  0
 16 37  1  0  0  0
 17 18  1  0  0  0
 17 22  1  0  0  0
 18 19  2  0  0  0
 18 38  1  0  0  0
 19 20  1  0  0  0
 19 39  1  0  0  0
 20 21  1  0  0  0
 22 40  1  0  0  0
 23 41  1  0  0  0
M  END
> <s_m_entry_id>
17443

> <s_m_entry_name>
ligand_docking-pose.370

> <s_m_Source_Path>
/home/csk/Desktop/cluster/DUD-E-result/esr1

> <s_m_Source_File>
ligand_docking-pose.sdf

> <i_m_Source_File_Index>
370

> <i_lp_mmshare_version>
53161

> <i_f3d_flags>
0

> <r_lp_tautomer_probability>
0.999999979997365

> <s_lp_Force_Field>
OPLS_2005

> <r_lp_Energy>
20.516243

> <b_lp_Chiralities_Consistent>
1

> <s_lp_Variant>
399907-1

> <s_i_glide_gridfile>
glide-grid_1sj0

> <i_i_glide_lignum>
485

> <i_i_glide_rotatable_bonds>
3

> <r_i_docking_score>
-8.33866794334347

> <r_i_glide_ligand_efficiency>
-0.362550780145368

> <r_i_glide_ligand_efficiency_sa>
-1.03104619109722

> <r_i_glide_ligand_efficiency_ln>
-2.01636551956099

> <r_i_glide_gscore>
-8.33866794334347

> <r_i_glide_lipo>
-3.62275311678762

> <r_i_glide_hbond>
-0.398878252861006

> <r_i_glide_metal>
0

> <r_i_glide_rewards>
-2.64278748883707

> <r_i_glide_evdw>
-18.1998634338379

> <r_i_glide_ecoul>
-5.99284410476685

> <r_i_glide_erotb>
0.134670702549148

> <r_i_glide_esite>
0

> <r_i_glide_emodel>
-24.9512507837929

> <r_i_glide_energy>
-24.1927075386047

> <r_i_glide_einternal>
2.39004850387573

> <i_i_glide_confnum>
2

> <i_i_glide_posenum>
83

> <r_i_glide_eff_state_penalty>
0

> <s_user_duplicate_titles>
399907

> <s_m_subgroup_title>
dock_pv

> <s_m_subgroupid>
dock_pv1

> <b_m_subgroup_collapsed>
0

$$$$
108279
                    3D
 Schrodinger Suite 2021-1.
 35 37  0  0  1  0            999 V2000
   28.0900   -1.3539   26.4182 C   0  0  0  0  0  0
   29.2330   -0.6315   25.6811 C   0  0  0  0  0  0
   30.5578   -0.6327   26.4439 C   0  0  0  0  0  0
   31.7638   -1.1991   26.1842 C   0  0  0  0  0  0
   32.7347   -0.9902   27.3330 C   0  0  0  0  0  0
   31.9333   -0.1799   28.2828 C   0  0  0  0  0  0
   30.6781    0.0600   27.7394 C   0  0  0  0  0  0
   29.7606    0.8408   28.4439 C   0  0  0  0  0  0
   30.1018    1.3277   29.7026 C   0  0  0  0  0  0
   31.3488    1.0444   30.2594 C   0  0  0  0  0  0
   32.2813    0.3056   29.5404 C   0  0  0  0  0  0
   31.6576    1.4592   31.5213 O   0  0  0  0  0  0
   32.1733   -1.9322   24.9665 C   0  0  0  0  0  0
   33.0504   -3.0091   25.0967 C   0  0  0  0  0  0
   33.4254   -3.7420   23.9811 C   0  0  0  0  0  0
   32.9119   -3.4481   22.7323 C   0  0  0  0  0  0
   32.0470   -2.3793   22.5861 C   0  0  0  0  0  0
   31.6929   -1.6074   23.6917 C   0  0  0  0  0  0
   33.2552   -4.2232   21.6590 O   0  0  0  0  0  0
   27.1878   -1.3972   25.8091 H   0  0  0  0  0  0
   28.3630   -2.3790   26.6638 H   0  0  0  0  0  0
   27.8204   -0.8626   27.3489 H   0  0  0  0  0  0
   28.9523    0.3997   25.4663 H   0  0  0  0  0  0
   29.3458   -1.1270   24.7196 H   0  0  0  0  0  0
   33.0438   -1.9304   27.7886 H   0  0  0  0  0  0
   33.6360   -0.4448   27.0639 H   0  0  0  0  0  0
   28.7809    1.0578   28.0464 H   0  0  0  0  0  0
   29.3565    1.8589   30.2655 H   0  0  0  0  0  0
   33.2507    0.0899   29.9620 H   0  0  0  0  0  0
   32.5484    1.2140   31.7780 H   0  0  0  0  0  0
   33.4353   -3.3075   26.0589 H   0  0  0  0  0  0
   34.0600   -4.5915   24.0955 H   0  0  0  0  0  0
   31.6608   -2.1422   21.6085 H   0  0  0  0  0  0
   31.0572   -0.7500   23.5365 H   0  0  0  0  0  0
   32.5818   -4.2834   20.9741 H   0  0  0  0  0  0
  1  2  1  0  0  0
  1 20  1  0  0  0
  1 21  1  0  0  0
  1 22  1  0  0  0
  2  3  1  0  0  0
  2 23  1  0  0  0
  2 24  1  0  0  0
  3  7  1  0  0  0
  3  4  2  0  0  0
  4  5  1  0  0  0
  4 13  1  0  0  0
  5  6  1  0  0  0
  5 25  1  0  0  0
  5 26  1  0  0  0
  6 11  2  0  0  0
  6  7  1  0  0  0
  7  8  2  0  0  0
  8  9  1  0  0  0
  8 27  1  0  0  0
  9 10  2  0  0  0
  9 28  1  0  0  0
 10 11  1  0  0  0
 10 12  1  0  0  0
 11 29  1  0  0  0
 12 30  1  0  0  0
 13 18  1  0  0  0
 13 14  2  0  0  0
 14 15  1  0  0  0
 14 31  1  0  0  0
 15 16  2  0  0  0
 15 32  1  0  0  0
 16 17  1  0  0  0
 16 19  1  0  0  0
 17 18  2  0  0  0
 17 33  1  0  0  0
 18 34  1  0  0  0
 19 35  1  0  0  0
M  END
> <s_m_entry_id>
17444

> <s_m_entry_name>
ligand_docking-pose.371

> <s_m_Source_Path>
/home/csk/Desktop/cluster/DUD-E-result/esr1

> <s_m_Source_File>
ligand_docking-pose.sdf

> <i_m_Source_File_Index>
371

> <i_lp_mmshare_version>
53161

> <i_f3d_flags>
0

> <r_lp_tautomer_probability>
1

> <s_lp_Force_Field>
OPLS_2005

> <r_lp_Energy>
32.550749

> <b_lp_Chiralities_Consistent>
1

> <s_lp_Variant>
108279-1

> <s_i_glide_gridfile>
glide-grid_1sj0

> <i_i_glide_lignum>
1131

> <i_i_glide_rotatable_bonds>
4

> <r_i_docking_score>
-8.33846040677599

> <r_i_glide_ligand_efficiency>
-0.438866337198736

> <r_i_glide_ligand_efficiency_sa>
-1.17107165660029

> <r_i_glide_ligand_efficiency_ln>
-2.11397880682594

> <r_i_glide_gscore>
-8.33846040677599

> <r_i_glide_lipo>
-4.4460583380989

> <r_i_glide_hbond>
0

> <r_i_glide_metal>
0

> <r_i_glide_rewards>
-2.5266804278572

> <r_i_glide_evdw>
-29.2177715301514

> <r_i_glide_ecoul>
-1.2030314207077

> <r_i_glide_erotb>
0.275621648793833

> <r_i_glide_esite>
0

> <r_i_glide_emodel>
-44.0948734519381

> <r_i_glide_energy>
-30.4208029508591

> <r_i_glide_einternal>
1.64935255050659

> <i_i_glide_confnum>
2

> <i_i_glide_posenum>
122

> <r_i_glide_eff_state_penalty>
0

> <s_user_duplicate_titles>
108279

> <s_m_subgroup_title>
dock_pv

> <s_m_subgroupid>
dock_pv1

> <b_m_subgroup_collapsed>
0

$$$$
339253
                    3D
 Schrodinger Suite 2021-1.
 40 41  0  0  1  0            999 V2000
   27.5118    1.5698   27.4757 C   0  0  0  0  0  0
   28.9596    1.4397   27.0015 C   0  0  0  0  0  0
   29.9398    1.3152   28.1798 C   0  0  0  0  0  0
   31.0777    0.4569   27.8783 N   0  0  0  0  0  0
   32.3797    0.9744   27.9900 C   0  0  0  0  0  0
   32.9812    1.3901   26.7999 C   0  0  0  0  0  0
   34.2773    1.8806   26.7835 C   0  0  0  0  0  0
   35.0324    1.8856   27.9447 C   0  0  0  0  0  0
   34.4611    1.4578   29.1355 C   0  0  0  0  0  0
   33.1222    1.0337   29.1948 C   0  0  0  0  0  0
   32.5499    0.6874   30.5788 C   0  0  0  0  0  0
   32.8595   -0.5602   30.8930 F   0  0  0  0  0  0
   33.0960    1.4579   31.5143 F   0  0  0  0  0  0
   31.2336    0.8416   30.6790 F   0  0  0  0  0  0
   30.7980   -1.2961   27.8593 S   0  0  0  0  0  0
   31.4852   -1.8157   29.0410 O   0  0  0  0  0  0
   29.3649   -1.5414   27.6634 O   0  0  0  0  0  0
   31.6372   -1.9026   26.4015 C   0  0  0  0  0  0
   31.2727   -1.4121   25.1441 C   0  0  0  0  0  0
   31.9210   -1.8862   24.0046 C   0  0  0  0  0  0
   32.9122   -2.8552   24.1296 C   0  0  0  0  0  0
   33.2708   -3.3419   25.3816 C   0  0  0  0  0  0
   32.6408   -2.8633   26.5243 C   0  0  0  0  0  0
   33.5447   -3.3441   23.0184 O   0  0  0  0  0  0
   26.8604    1.8574   26.6595 H   0  0  0  0  0  0
   27.1414    0.6199   27.8638 H   0  0  0  0  0  0
   27.4096    2.3115   28.2627 H   0  0  0  0  0  0
   29.2663    2.2554   26.3540 H   0  0  0  0  0  0
   29.0056    0.5685   26.3504 H   0  0  0  0  0  0
   29.4249    0.8233   29.0054 H   0  0  0  0  0  0
   30.2287    2.3018   28.5459 H   0  0  0  0  0  0
   32.4600    1.3219   25.8643 H   0  0  0  0  0  0
   34.6988    2.2580   25.8643 H   0  0  0  0  0  0
   36.0538    2.2383   27.9231 H   0  0  0  0  0  0
   35.0670    1.4815   30.0289 H   0  0  0  0  0  0
   30.4925   -0.6717   25.0475 H   0  0  0  0  0  0
   31.6504   -1.5045   23.0330 H   0  0  0  0  0  0
   34.0465   -4.0905   25.4623 H   0  0  0  0  0  0
   32.9273   -3.2472   27.4931 H   0  0  0  0  0  0
   33.1457   -3.0565   22.1944 H   0  0  0  0  0  0
  1  2  1  0  0  0
  1 25  1  0  0  0
  1 26  1  0  0  0
  1 27  1  0  0  0
  2  3  1  0  0  0
  2 28  1  0  0  0
  2 29  1  0  0  0
  3  4  1  0  0  0
  3 30  1  0  0  0
  3 31  1  0  0  0
  4  5  1  0  0  0
  4 15  1  0  0  0
  5 10  1  0  0  0
  5  6  2  0  0  0
  6  7  1  0  0  0
  6 32  1  0  0  0
  7  8  2  0  0  0
  7 33  1  0  0  0
  8  9  1  0  0  0
  8 34  1  0  0  0
  9 10  2  0  0  0
  9 35  1  0  0  0
 10 11  1  0  0  0
 11 12  1  0  0  0
 11 13  1  0  0  0
 11 14  1  0  0  0
 15 16  2  0  0  0
 15 17  2  0  0  0
 15 18  1  0  0  0
 18 23  1  0  0  0
 18 19  2  0  0  0
 19 20  1  0  0  0
 19 36  1  0  0  0
 20 21  2  0  0  0
 20 37  1  0  0  0
 21 22  1  0  0  0
 21 24  1  0  0  0
 22 23  2  0  0  0
 22 38  1  0  0  0
 23 39  1  0  0  0
 24 40  1  0  0  0
M  END
> <s_m_entry_id>
17445

> <s_m_entry_name>
ligand_docking-pose.372

> <s_m_Source_Path>
/home/csk/Desktop/cluster/DUD-E-result/esr1

> <s_m_Source_File>
ligand_docking-pose.sdf

> <i_m_Source_File_Index>
372

> <i_lp_mmshare_version>
53161

> <i_f3d_flags>
0

> <r_lp_tautomer_probability>
0.999999999997365

> <s_lp_Force_Field>
OPLS_2005

> <r_lp_Energy>
12.614414

> <b_lp_Chiralities_Consistent>
1

> <s_lp_Variant>
339253-1

> <s_i_glide_gridfile>
glide-grid_1sj0

> <i_i_glide_lignum>
1532

> <i_i_glide_rotatable_bonds>
7

> <r_i_docking_score>
-8.336483777041

> <r_i_glide_ligand_efficiency>
-0.347353490710042

> <r_i_glide_ligand_efficiency_sa>
-1.00194084438126

> <r_i_glide_ligand_efficiency_ln>
-1.99530310416004

> <r_i_glide_gscore>
-8.336483777041

> <r_i_glide_lipo>
-4.52275221485859

> <r_i_glide_hbond>
0

> <r_i_glide_metal>
0

> <r_i_glide_rewards>
-2.26824504117858

> <r_i_glide_evdw>
-40.2484397888184

> <r_i_glide_ecoul>
-0.844793856143951

> <r_i_glide_erotb>
0.59365454685868

> <r_i_glide_esite>
0

> <r_i_glide_emodel>
-51.0084514053537

> <r_i_glide_energy>
-41.0932336449623

> <r_i_glide_einternal>
6.93932962417603

> <i_i_glide_confnum>
40

> <i_i_glide_posenum>
363

> <r_i_glide_eff_state_penalty>
0

> <s_user_duplicate_titles>
339253

> <s_m_subgroup_title>
dock_pv

> <s_m_subgroupid>
dock_pv1

> <b_m_subgroup_collapsed>
0

$$$$
350856
                    3D
 Schrodinger Suite 2021-1.
 49 52  0  0  1  0            999 V2000
   26.5087   -3.6356   28.1326 C   0  0  0  0  0  0
   26.1359   -2.1785   27.8282 C   0  0  0  0  0  0
   27.0379   -1.5082   26.7784 C   0  0  0  0  0  0
   28.5407   -1.5156   27.1452 C   0  0  0  0  0  0
   29.4403   -0.4761   26.3947 C   0  0  1  0  0  0
   28.9532    0.9905   26.6036 C   0  0  0  0  0  0
   28.9369    1.3733   28.1002 C   0  0  0  0  0  0
   30.2649    1.0425   28.7965 C   0  0  0  0  0  0
   30.5024    1.4577   29.9282 O   0  0  0  0  0  0
   31.2023    0.1631   28.0729 C   0  0  0  0  0  0
   30.8554   -0.5478   26.9662 C   0  0  0  0  0  0
   31.6455   -1.4566   26.0799 C   0  0  0  0  0  0
   32.8599   -2.1411   26.2348 C   0  0  0  0  0  0
   33.4140   -2.8587   25.1734 C   0  0  0  0  0  0
   32.8134   -2.8373   23.9233 C   0  0  0  0  0  0
   31.6240   -2.1382   23.7532 C   0  0  0  0  0  0
   31.0078   -1.5186   24.8482 C   0  0  0  0  0  0
   29.6608   -0.8641   24.9247 C   0  0  0  0  0  0
   33.3845   -3.5189   22.8826 O   0  0  0  0  0  0
   32.5805    0.1371   28.5283 C   0  0  0  0  0  0
   33.0176   -0.9522   29.2688 C   0  0  0  0  0  0
   34.3739   -1.1099   29.4640 C   0  0  0  0  0  0
   35.2600   -0.1416   29.0157 C   0  0  0  0  0  0
   34.8155    1.0110   28.3798 C   0  0  0  0  0  0
   33.4590    1.1478   28.1244 C   0  0  0  0  0  0
   25.7552   -4.1135   28.7601 H   0  0  0  0  0  0
   26.5791   -4.2000   27.2040 H   0  0  0  0  0  0
   27.4686   -3.7160   28.6428 H   0  0  0  0  0  0
   26.1281   -1.5827   28.7390 H   0  0  0  0  0  0
   25.1110   -2.1517   27.4633 H   0  0  0  0  0  0
   26.6711   -0.4904   26.6647 H   0  0  0  0  0  0
   26.8898   -1.9898   25.8105 H   0  0  0  0  0  0
   28.9341   -2.5215   26.9855 H   0  0  0  0  0  0
   28.6302   -1.3627   28.2214 H   0  0  0  0  0  0
   29.6168    1.6807   26.0846 H   0  0  0  0  0  0
   27.9755    1.1641   26.1626 H   0  0  0  0  0  0
   28.1813    0.7708   28.5977 H   0  0  0  0  0  0
   28.6893    2.4190   28.2666 H   0  0  0  0  0  0
   33.4010   -2.1536   27.1607 H   0  0  0  0  0  0
   34.3390   -3.3967   25.3023 H   0  0  0  0  0  0
   31.1421   -2.1468   22.7881 H   0  0  0  0  0  0
   29.6084   -0.0006   24.2641 H   0  0  0  0  0  0
   28.9031   -1.5906   24.6641 H   0  0  0  0  0  0
   32.8344   -3.5570   22.0960 H   0  0  0  0  0  0
   32.3317   -1.7372   29.5543 H   0  0  0  0  0  0
   34.7509   -2.0346   29.8642 H   0  0  0  0  0  0
   36.3168   -0.3222   29.1145 H   0  0  0  0  0  0
   35.5218    1.7524   28.0351 H   0  0  0  0  0  0
   33.1027    1.9989   27.5616 H   0  0  0  0  0  0
  1  2  1  0  0  0
  1 26  1  0  0  0
  1 27  1  0  0  0
  1 28  1  0  0  0
  2  3  1  0  0  0
  2 29  1  0  0  0
  2 30  1  0  0  0
  3  4  1  0  0  0
  3 31  1  0  0  0
  3 32  1  0  0  0
  4  5  1  0  0  0
  4 33  1  0  0  0
  4 34  1  0  0  0
  5 11  1  0  0  0
  5 18  1  0  0  0
  5  6  1  0  0  0
  6  7  1  0  0  0
  6 35  1  0  0  0
  6 36  1  0  0  0
  7  8  1  0  0  0
  7 37  1  0  0  0
  7 38  1  0  0  0
  8  9  2  0  0  0
  8 10  1  0  0  0
 10 11  2  0  0  0
 10 20  1  0  0  0
 11 12  1  0  0  0
 12 17  1  0  0  0
 12 13  2  0  0  0
 13 14  1  0  0  0
 13 39  1  0  0  0
 14 15  2  0  0  0
 14 40  1  0  0  0
 15 16  1  0  0  0
 15 19  1  0  0  0
 16 17  2  0  0  0
 16 41  1  0  0  0
 17 18  1  0  0  0
 18 42  1  0  0  0
 18 43  1  0  0  0
 19 44  1  0  0  0
 20 25  1  0  0  0
 20 21  2  0  0  0
 21 22  1  0  0  0
 21 45  1  0  0  0
 22 23  2  0  0  0
 22 46  1  0  0  0
 23 24  1  0  0  0
 23 47  1  0  0  0
 24 25  2  0  0  0
 24 48  1  0  0  0
 25 49  1  0  0  0
M  END
> <s_m_entry_id>
17446

> <s_m_entry_name>
ligand_docking-pose.373

> <s_m_Source_Path>
/home/csk/Desktop/cluster/DUD-E-result/esr1

> <s_m_Source_File>
ligand_docking-pose.sdf

> <i_m_Source_File_Index>
373

> <i_lp_mmshare_version>
53161

> <i_f3d_flags>
0

> <r_lp_tautomer_probability>
1

> <s_lp_Force_Field>
OPLS_2005

> <r_lp_Energy>
29.524211

> <b_lp_Chiralities_Consistent>
1

> <s_lp_Variant>
350856-1

> <s_i_glide_gridfile>
glide-grid_1sj0

> <i_i_glide_lignum>
1342

> <i_i_glide_rotatable_bonds>
5

> <r_i_docking_score>
-8.33363518899779

> <r_i_glide_ligand_efficiency>
-0.333345407559911

> <r_i_glide_ligand_efficiency_sa>
-0.974707883611157

> <r_i_glide_ligand_efficiency_ln>
-1.9753212786864

> <r_i_glide_gscore>
-8.33363518899779

> <r_i_glide_lipo>
-4.61748565001464

> <r_i_glide_hbond>
0

> <r_i_glide_metal>
0

> <r_i_glide_rewards>
-2.42832010578901

> <r_i_glide_evdw>
-33.2500839233398

> <r_i_glide_ecoul>
-0.910700738430023

> <r_i_glide_erotb>
0.511279873737357

> <r_i_glide_esite>
0

> <r_i_glide_emodel>
-45.9569445762107

> <r_i_glide_energy>
-34.1607846617699

> <r_i_glide_einternal>
2.90410423278809

> <i_i_glide_confnum>
10

> <i_i_glide_posenum>
198

> <r_i_glide_eff_state_penalty>
0

> <s_user_duplicate_titles>
350856

> <s_m_subgroup_title>
dock_pv

> <s_m_subgroupid>
dock_pv1

> <b_m_subgroup_collapsed>
0

$$$$
357093
                    3D
 Schrodinger Suite 2021-1.
 46 49  0  0  1  0            999 V2000
   35.7254    1.6025   27.5024 C   0  0  0  0  0  0
   35.3839    0.3839   28.3903 C   0  0  0  0  0  0
   33.9569    0.3721   28.9212 C   0  0  0  0  0  0
   32.8815    0.4171   27.7998 C   0  0  2  0  0  0
   32.1328    1.7681   27.8647 C   0  0  0  0  0  0
   31.1365    1.7871   29.0428 C   0  0  0  0  0  0
   30.2052    0.5611   29.0204 C   0  0  2  0  0  0
   31.0199   -0.7646   29.0438 C   0  0  0  0  0  0
   31.8766   -0.7837   27.7446 C   0  0  2  0  0  0
   32.6246   -2.0996   27.4414 C   0  0  0  0  0  0
   32.5832   -2.2240   25.9384 C   0  0  0  0  0  0
   33.2639   -3.1007   25.0888 C   0  0  0  0  0  0
   33.0001   -3.0925   23.7194 C   0  0  0  0  0  0
   32.0494   -2.2222   23.1970 C   0  0  0  0  0  0
   31.3323   -1.3831   24.0482 C   0  0  0  0  0  0
   31.5909   -1.3952   25.4218 C   0  0  0  0  0  0
   30.9328   -0.6895   26.5367 C   0  0  0  0  0  0
   29.7223   -0.0746   26.6015 C   0  0  0  0  0  0
   29.2512    0.6235   27.8132 C   0  0  0  0  0  0
   28.2113    1.2842   27.8616 O   0  0  0  0  0  0
   28.7024   -0.1858   25.4941 C   0  0  0  0  0  0
   33.6598   -3.9524   22.8884 O   0  0  0  0  0  0
   33.3737    0.3977   26.8280 H   0  0  0  0  0  0
   29.5583    0.6581   29.8715 H   0  0  0  0  0  0
   36.7182    1.4914   27.0639 H   0  0  0  0  0  0
   35.0405    1.7408   26.6666 H   0  0  0  0  0  0
   35.7178    2.5243   28.0850 H   0  0  0  0  0  0
   35.5727   -0.5419   27.8640 H   0  0  0  0  0  0
   36.0447    0.3255   29.2512 H   0  0  0  0  0  0
   33.8362   -0.5192   29.5368 H   0  0  0  0  0  0
   33.8490    1.2006   29.6221 H   0  0  0  0  0  0
   32.8299    2.6055   27.9266 H   0  0  0  0  0  0
   31.6030    1.8964   26.9240 H   0  0  0  0  0  0
   31.6753    1.8095   29.9914 H   0  0  0  0  0  0
   30.5292    2.6836   29.0532 H   0  0  0  0  0  0
   31.6319   -0.8284   29.9441 H   0  0  0  0  0  0
   30.3498   -1.6267   29.0786 H   0  0  0  0  0  0
   33.6361   -2.1342   27.8470 H   0  0  0  0  0  0
   32.0926   -2.9418   27.8640 H   0  0  0  0  0  0
   33.9992   -3.7944   25.4644 H   0  0  0  0  0  0
   31.8398   -2.2161   22.1382 H   0  0  0  0  0  0
   30.5815   -0.7351   23.6248 H   0  0  0  0  0  0
   27.6754   -0.1581   25.8640 H   0  0  0  0  0  0
   28.8503    0.5845   24.7394 H   0  0  0  0  0  0
   28.8328   -1.1750   25.0639 H   0  0  0  0  0  0
   33.3029   -3.9640   21.9965 H   0  0  0  0  0  0
  1  2  1  0  0  0
  1 25  1  0  0  0
  1 26  1  0  0  0
  1 27  1  0  0  0
  2  3  1  0  0  0
  2 28  1  0  0  0
  2 29  1  0  0  0
  3  4  1  0  0  0
  3 30  1  0  0  0
  3 31  1  0  0  0
  4 23  1  0  0  0
  4  9  1  0  0  0
  4  5  1  0  0  0
  5  6  1  0  0  0
  5 32  1  0  0  0
  5 33  1  0  0  0
  6  7  1  0  0  0
  6 34  1  0  0  0
  6 35  1  0  0  0
  7 24  1  0  0  0
  7 19  1  0  0  0
  7  8  1  0  0  0
  8  9  1  0  0  0
  8 36  1  0  0  0
  8 37  1  0  0  0
  9 17  1  0  0  0
  9 10  1  0  0  0
 10 11  1  0  0  0
 10 38  1  0  0  0
 10 39  1  0  0  0
 11 16  2  0  0  0
 11 12  1  0  0  0
 12 13  2  0  0  0
 12 40  1  0  0  0
 13 14  1  0  0  0
 13 22  1  0  0  0
 14 15  2  0  0  0
 14 41  1  0  0  0
 15 16  1  0  0  0
 15 42  1  0  0  0
 16 17  1  0  0  0
 17 18  2  0  0  0
 18 19  1  0  0  0
 18 21  1  0  0  0
 19 20  2  0  0  0
 21 43  1  0  0  0
 21 44  1  0  0  0
 21 45  1  0  0  0
 22 46  1  0  0  0
M  END
> <s_m_entry_id>
17447

> <s_m_entry_name>
ligand_docking-pose.374

> <s_m_Source_Path>
/home/csk/Desktop/cluster/DUD-E-result/esr1

> <s_m_Source_File>
ligand_docking-pose.sdf

> <i_m_Source_File_Index>
374

> <i_lp_mmshare_version>
53161

> <i_f3d_flags>
0

> <r_lp_tautomer_probability>
1

> <s_lp_Force_Field>
OPLS_2005

> <r_lp_Energy>
34.791195

> <b_lp_Chiralities_Consistent>
1

> <s_lp_Variant>
357093-1

> <s_i_glide_gridfile>
glide-grid_1sj0

> <i_i_glide_lignum>
1456

> <i_i_glide_rotatable_bonds>
3

> <r_i_docking_score>
-8.33146888038808

> <r_i_glide_ligand_efficiency>
-0.378703130926731

> <r_i_glide_ligand_efficiency_sa>
-1.06114106640569

> <r_i_glide_ligand_efficiency_ln>
-2.03651489207814

> <r_i_glide_gscore>
-8.33146888038808

> <r_i_glide_lipo>
-4.38299455506451

> <r_i_glide_hbond>
0

> <r_i_glide_metal>
0

> <r_i_glide_rewards>
-2.66082532947196

> <r_i_glide_evdw>
-31.7660255432129

> <r_i_glide_ecoul>
0.6142218708992

> <r_i_glide_erotb>
0.208519000674151

> <r_i_glide_esite>
0

> <r_i_glide_emodel>
-38.1717067846153

> <r_i_glide_energy>
-31.1518036723137

> <r_i_glide_einternal>
1.92255830764771

> <i_i_glide_confnum>
4

> <i_i_glide_posenum>
113

> <r_i_glide_eff_state_penalty>
0

> <s_user_duplicate_titles>
357093

> <s_m_subgroup_title>
dock_pv

> <s_m_subgroupid>
dock_pv1

> <b_m_subgroup_collapsed>
0

$$$$
373307
                    3D
 Schrodinger Suite 2021-1.
 38 40  0  0  1  0            999 V2000
   27.9598   -2.8009   27.3105 C   0  0  0  0  0  0
   27.1122   -1.5743   26.9321 C   0  0  0  0  0  0
   27.4204   -0.2937   27.7434 C   0  0  0  0  0  0
   28.4465    0.6836   27.1211 C   0  0  0  0  0  0
   29.7961    0.1247   27.0551 N   0  0  0  0  0  0
   30.8168    0.1207   27.9992 C   0  0  0  0  0  0
   31.8857   -0.5822   27.3795 C   0  0  0  0  0  0
   33.1050   -0.7151   28.0686 C   0  0  0  0  0  0
   33.2265   -0.1836   29.3487 C   0  0  0  0  0  0
   32.1610    0.4741   29.9500 C   0  0  0  0  0  0
   30.9405    0.6436   29.2968 C   0  0  0  0  0  0
   29.6600    1.4580   30.0974 Cl  0  0  0  0  0  0
   31.3653   -0.9997   26.1075 C   0  0  0  0  0  0
   30.1486   -0.5420   25.9439 N   0  0  0  0  0  0
   32.0113   -1.8429   25.0556 C   0  0  0  0  0  0
   31.6024   -1.7420   23.7224 C   0  0  0  0  0  0
   32.1895   -2.5292   22.7342 C   0  0  0  0  0  0
   33.2316   -3.3821   23.0734 C   0  0  0  0  0  0
   33.6600   -3.4736   24.3930 C   0  0  0  0  0  0
   33.0390   -2.7270   25.3846 C   0  0  0  0  0  0
   33.8339   -4.1420   22.1101 O   0  0  0  0  0  0
   27.6662   -3.6659   26.7137 H   0  0  0  0  0  0
   29.0237   -2.6396   27.1458 H   0  0  0  0  0  0
   27.8257   -3.0700   28.3575 H   0  0  0  0  0  0
   26.0643   -1.8409   27.0816 H   0  0  0  0  0  0
   27.2043   -1.3759   25.8640 H   0  0  0  0  0  0
   27.7258   -0.5584   28.7550 H   0  0  0  0  0  0
   26.4866    0.2580   27.8639 H   0  0  0  0  0  0
   28.4822    1.6231   27.6712 H   0  0  0  0  0  0
   28.1353    0.9531   26.1099 H   0  0  0  0  0  0
   33.9510   -1.2080   27.6219 H   0  0  0  0  0  0
   34.1611   -0.2850   29.8828 H   0  0  0  0  0  0
   32.2861    0.8690   30.9480 H   0  0  0  0  0  0
   30.8043   -1.0636   23.4640 H   0  0  0  0  0  0
   31.8468   -2.4612   21.7122 H   0  0  0  0  0  0
   34.4600   -4.1420   24.6640 H   0  0  0  0  0  0
   33.3577   -2.8594   26.4050 H   0  0  0  0  0  0
   33.3338   -4.1932   21.2909 H   0  0  0  0  0  0
  1  2  1  0  0  0
  1 22  1  0  0  0
  1 23  1  0  0  0
  1 24  1  0  0  0
  2  3  1  0  0  0
  2 25  1  0  0  0
  2 26  1  0  0  0
  3  4  1  0  0  0
  3 27  1  0  0  0
  3 28  1  0  0  0
  4  5  1  0  0  0
  4 29  1  0  0  0
  4 30  1  0  0  0
  5 14  1  0  0  0
  5  6  1  0  0  0
  6 11  2  0  0  0
  6  7  1  0  0  0
  7  8  2  0  0  0
  7 13  1  0  0  0
  8  9  1  0  0  0
  8 31  1  0  0  0
  9 10  2  0  0  0
  9 32  1  0  0  0
 10 11  1  0  0  0
 10 33  1  0  0  0
 11 12  1  0  0  0
 13 14  2  0  0  0
 13 15  1  0  0  0
 15 20  1  0  0  0
 15 16  2  0  0  0
 16 17  1  0  0  0
 16 34  1  0  0  0
 17 18  2  0  0  0
 17 35  1  0  0  0
 18 19  1  0  0  0
 18 21  1  0  0  0
 19 20  2  0  0  0
 19 36  1  0  0  0
 20 37  1  0  0  0
 21 38  1  0  0  0
M  END
> <s_m_entry_id>
17448

> <s_m_entry_name>
ligand_docking-pose.375

> <s_m_Source_Path>
/home/csk/Desktop/cluster/DUD-E-result/esr1

> <s_m_Source_File>
ligand_docking-pose.sdf

> <i_m_Source_File_Index>
375

> <i_lp_mmshare_version>
53161

> <i_f3d_flags>
0

> <r_lp_tautomer_probability>
0.999999999997365

> <s_lp_Force_Field>
OPLS_2005

> <r_lp_Energy>
16.556646

> <b_lp_Chiralities_Consistent>
1

> <s_lp_Variant>
373307-1

> <s_i_glide_gridfile>
glide-grid_1sj0

> <i_i_glide_lignum>
1466

> <i_i_glide_rotatable_bonds>
5

> <r_i_docking_score>
-8.3314249474457

> <r_i_glide_ligand_efficiency>
-0.396734521306938

> <r_i_glide_ligand_efficiency_sa>
-1.0945604613279

> <r_i_glide_ligand_efficiency_ln>
-2.05992798302666

> <r_i_glide_gscore>
-8.3314249474457

> <r_i_glide_lipo>
-4.5229966718822

> <r_i_glide_hbond>
0

> <r_i_glide_metal>
0

> <r_i_glide_rewards>
-2.4509562435851

> <r_i_glide_evdw>
-37.0287818908691

> <r_i_glide_ecoul>
-0.771647751331329

> <r_i_glide_erotb>
0.609714225264757

> <r_i_glide_esite>
0

> <r_i_glide_emodel>
-55.6134695920831

> <r_i_glide_energy>
-37.8004296422005

> <r_i_glide_einternal>
1.7445867061615

> <i_i_glide_confnum>
17

> <i_i_glide_posenum>
395

> <r_i_glide_eff_state_penalty>
0

> <s_user_duplicate_titles>
373307

> <s_m_subgroup_title>
dock_pv

> <s_m_subgroupid>
dock_pv1

> <b_m_subgroup_collapsed>
0

$$$$
373241
                    3D
 Schrodinger Suite 2021-1.
 40 42  0  0  1  0            999 V2000
   34.8790    2.1911   28.0475 C   0  0  0  0  0  0
   33.7479    1.2138   28.3657 C   0  0  0  0  0  0
   34.2462   -0.2041   28.7067 C   0  0  0  0  0  0
   33.1227   -1.2486   28.9070 C   0  0  0  0  0  0
   32.2731   -1.3368   27.7220 N   0  0  0  0  0  0
   31.1248   -0.6373   27.4276 C   0  0  0  0  0  0
   30.3568    0.2466   28.1962 C   0  0  0  0  0  0
   29.2585    0.8285   27.5752 C   0  0  0  0  0  0
   28.9131    0.5148   26.2677 C   0  0  0  0  0  0
   29.6671   -0.3805   25.5111 C   0  0  0  0  0  0
   30.8263   -0.9524   26.0692 C   0  0  0  0  0  0
   31.9105   -1.8127   25.6338 C   0  0  0  0  0  0
   32.7216   -2.0017   26.6515 N   0  0  0  0  0  0
   32.2270   -2.4313   24.2703 C   0  0  0  0  0  0
   31.4454   -2.1420   23.1544 C   0  0  0  0  0  0
   31.6600   -2.7413   21.9117 C   0  0  0  0  0  0
   32.7287   -3.5880   21.7197 C   0  0  0  0  0  0
   33.5588   -3.8723   22.7870 C   0  0  0  0  0  0
   33.2830   -3.3320   24.0430 C   0  0  0  0  0  0
   34.0600   -3.7420   25.0640 O   0  0  0  0  0  0
   32.9393   -4.1420   20.4925 O   0  0  0  0  0  0
   28.5048    1.7347   28.2640 O   0  0  0  0  0  0
   34.4601    3.1798   27.8640 H   0  0  0  0  0  0
   35.5905    2.2580   28.8692 H   0  0  0  0  0  0
   35.4305    1.8889   27.1558 H   0  0  0  0  0  0
   33.0942    1.1917   27.4944 H   0  0  0  0  0  0
   33.1455    1.5955   29.1906 H   0  0  0  0  0  0
   34.8610   -0.1653   29.6073 H   0  0  0  0  0  0
   34.9122   -0.5420   27.9137 H   0  0  0  0  0  0
   32.4949   -0.9860   29.7592 H   0  0  0  0  0  0
   33.5445   -2.2350   29.1105 H   0  0  0  0  0  0
   30.6119    0.4949   29.2150 H   0  0  0  0  0  0
   28.0600    0.9912   25.8172 H   0  0  0  0  0  0
   29.3565   -0.5795   24.5039 H   0  0  0  0  0  0
   30.6211   -1.4665   23.2399 H   0  0  0  0  0  0
   30.9965   -2.5420   21.0837 H   0  0  0  0  0  0
   34.3895   -4.5420   22.6341 H   0  0  0  0  0  0
   34.4064   -4.6376   24.9427 H   0  0  0  0  0  0
   32.2429   -4.7819   20.2640 H   0  0  0  0  0  0
   27.7322    2.0067   27.7655 H   0  0  0  0  0  0
  1  2  1  0  0  0
  1 23  1  0  0  0
  1 24  1  0  0  0
  1 25  1  0  0  0
  2  3  1  0  0  0
  2 26  1  0  0  0
  2 27  1  0  0  0
  3  4  1  0  0  0
  3 28  1  0  0  0
  3 29  1  0  0  0
  4  5  1  0  0  0
  4 30  1  0  0  0
  4 31  1  0  0  0
  5 13  1  0  0  0
  5  6  1  0  0  0
  6 11  2  0  0  0
  6  7  1  0  0  0
  7  8  2  0  0  0
  7 32  1  0  0  0
  8  9  1  0  0  0
  8 22  1  0  0  0
  9 10  2  0  0  0
  9 33  1  0  0  0
 10 11  1  0  0  0
 10 34  1  0  0  0
 11 12  1  0  0  0
 12 13  2  0  0  0
 12 14  1  0  0  0
 14 19  1  0  0  0
 14 15  2  0  0  0
 15 16  1  0  0  0
 15 35  1  0  0  0
 16 17  2  0  0  0
 16 36  1  0  0  0
 17 18  1  0  0  0
 17 21  1  0  0  0
 18 19  2  0  0  0
 18 37  1  0  0  0
 19 20  1  0  0  0
 20 38  1  0  0  0
 21 39  1  0  0  0
 22 40  1  0  0  0
M  END
> <s_m_entry_id>
17449

> <s_m_entry_name>
ligand_docking-pose.376

> <s_m_Source_Path>
/home/csk/Desktop/cluster/DUD-E-result/esr1

> <s_m_Source_File>
ligand_docking-pose.sdf

> <i_m_Source_File_Index>
376

> <i_lp_mmshare_version>
53161

> <i_f3d_flags>
0

> <r_lp_tautomer_probability>
0.999999999898

> <s_lp_Force_Field>
OPLS_2005

> <r_lp_Energy>
14.156016

> <b_lp_Chiralities_Consistent>
1

> <s_lp_Variant>
373241-1

> <s_i_glide_gridfile>
glide-grid_1sj0

> <i_i_glide_lignum>
1467

> <i_i_glide_rotatable_bonds>
7

> <r_i_docking_score>
-8.32725202789569

> <r_i_glide_ligand_efficiency>
-0.378511455813441

> <r_i_glide_ligand_efficiency_sa>
-1.0606039852001

> <r_i_glide_ligand_efficiency_ln>
-2.03548413951556

> <r_i_glide_gscore>
-8.32725202789569

> <r_i_glide_lipo>
-3.75109943287432

> <r_i_glide_hbond>
-0.456

> <r_i_glide_metal>
0

> <r_i_glide_rewards>
-2.22170825890626

> <r_i_glide_evdw>
-28.298921585083

> <r_i_glide_ecoul>
-7.34657287597656

> <r_i_glide_erotb>
0.618487674535523

> <r_i_glide_esite>
0

> <r_i_glide_emodel>
-48.7379394754508

> <r_i_glide_energy>
-35.6454944610596

> <r_i_glide_einternal>
6.98818778991699

> <i_i_glide_confnum>
6

> <i_i_glide_posenum>
190

> <r_i_glide_eff_state_penalty>
0

> <s_user_duplicate_titles>
373241

> <s_m_subgroup_title>
dock_pv

> <s_m_subgroupid>
dock_pv1

> <b_m_subgroup_collapsed>
0

$$$$
301061
                    3D
 Schrodinger Suite 2021-1.
 42 44  0  0  1  0            999 V2000
   29.8150   -2.7284   27.4159 C   0  0  0  0  0  0
   30.4926   -1.4695   27.9188 C   0  0  0  0  0  0
   30.9449   -1.3683   29.1866 C   0  0  0  0  0  0
   31.5498   -0.1144   29.8031 C   0  0  0  0  0  0
   31.7474    1.0404   28.7647 C   0  0  2  0  0  0
   30.5456    1.0158   27.7801 C   0  0  0  0  0  0
   30.6049   -0.2834   26.9541 C   0  0  1  0  0  0
   31.9395   -0.2711   26.1640 C   0  0  1  0  0  0
   33.0440   -0.1815   27.0708 O   0  0  0  0  0  0
   33.1212    0.9300   27.9695 C   0  0  0  0  0  0
   34.3259    0.5739   28.8756 C   0  0  0  0  0  0
   33.4500    2.2133   27.1655 C   0  0  0  0  0  0
   32.1357   -1.4211   25.1780 C   0  0  0  0  0  0
   31.6590   -1.3088   23.8668 C   0  0  0  0  0  0
   32.0213   -2.2413   22.8975 C   0  0  0  0  0  0
   32.8823   -3.2769   23.2247 C   0  0  0  0  0  0
   33.3102   -3.4300   24.5385 C   0  0  0  0  0  0
   32.8969   -2.5422   25.5238 C   0  0  0  0  0  0
   33.2592   -2.7690   26.8062 F   0  0  0  0  0  0
   33.3034   -4.1420   22.2610 O   0  0  0  0  0  0
   31.6600    2.2580   29.4642 O   0  0  0  0  0  0
   29.7627   -0.2921   26.2601 H   0  0  0  0  0  0
   31.9784    0.6180   25.5382 H   0  0  0  0  0  0
   30.4304   -3.2174   26.6641 H   0  0  0  0  0  0
   29.6448   -3.4451   28.2194 H   0  0  0  0  0  0
   28.8454   -2.4934   26.9783 H   0  0  0  0  0  0
   30.8553   -2.2286   29.8295 H   0  0  0  0  0  0
   30.8595    0.2042   30.5838 H   0  0  0  0  0  0
   32.4551   -0.3670   30.3498 H   0  0  0  0  0  0
   30.5509    1.8749   27.1144 H   0  0  0  0  0  0
   29.5959    1.0770   28.3181 H   0  0  0  0  0  0
   34.3878    1.2278   29.7458 H   0  0  0  0  0  0
   34.2896   -0.4573   29.2245 H   0  0  0  0  0  0
   35.2665    0.6629   28.3316 H   0  0  0  0  0  0
   33.6072    3.0555   27.8428 H   0  0  0  0  0  0
   34.3632    2.0832   26.5839 H   0  0  0  0  0  0
   32.6752    2.4911   26.4581 H   0  0  0  0  0  0
   31.0299   -0.4796   23.5874 H   0  0  0  0  0  0
   31.6607   -2.1419   21.8844 H   0  0  0  0  0  0
   33.9623   -4.2449   24.7957 H   0  0  0  0  0  0
   32.8051   -4.0856   21.4389 H   0  0  0  0  0  0
   32.3445    2.2723   30.1362 H   0  0  0  0  0  0
  1  2  1  0  0  0
  1 24  1  0  0  0
  1 25  1  0  0  0
  1 26  1  0  0  0
  2  7  1  0  0  0
  2  3  2  0  0  0
  3  4  1  0  0  0
  3 27  1  0  0  0
  4  5  1  0  0  0
  4 28  1  0  0  0
  4 29  1  0  0  0
  5 10  1  0  0  0
  5  6  1  0  0  0
  5 21  1  0  0  0
  6  7  1  0  0  0
  6 30  1  0  0  0
  6 31  1  0  0  0
  7 22  1  0  0  0
  7  8  1  0  0  0
  8 23  1  0  0  0
  8  9  1  0  0  0
  8 13  1  0  0  0
  9 10  1  0  0  0
 10 11  1  0  0  0
 10 12  1  0  0  0
 11 32  1  0  0  0
 11 33  1  0  0  0
 11 34  1  0  0  0
 12 35  1  0  0  0
 12 36  1  0  0  0
 12 37  1  0  0  0
 13 18  1  0  0  0
 13 14  2  0  0  0
 14 15  1  0  0  0
 14 38  1  0  0  0
 15 16  2  0  0  0
 15 39  1  0  0  0
 16 17  1  0  0  0
 16 20  1  0  0  0
 17 18  2  0  0  0
 17 40  1  0  0  0
 18 19  1  0  0  0
 20 41  1  0  0  0
 21 42  1  0  0  0
M  END
> <s_m_entry_id>
17450

> <s_m_entry_name>
ligand_docking-pose.377

> <s_m_Source_Path>
/home/csk/Desktop/cluster/DUD-E-result/esr1

> <s_m_Source_File>
ligand_docking-pose.sdf

> <i_m_Source_File_Index>
377

> <i_lp_mmshare_version>
53161

> <i_f3d_flags>
0

> <r_lp_tautomer_probability>
0.999999999997365

> <s_lp_Force_Field>
OPLS_2005

> <r_lp_Energy>
28.85049

> <b_lp_Chiralities_Consistent>
1

> <s_lp_Variant>
301061-1

> <s_i_glide_gridfile>
glide-grid_1sj0

> <i_i_glide_lignum>
937

> <i_i_glide_rotatable_bonds>
3

> <r_i_docking_score>
-8.31969739403938

> <r_i_glide_ligand_efficiency>
-0.396176066382827

> <r_i_glide_ligand_efficiency_sa>
-1.09301972653791

> <r_i_glide_ligand_efficiency_ln>
-2.0570283691447

> <r_i_glide_gscore>
-8.31969739403938

> <r_i_glide_lipo>
-4.48511972305433

> <r_i_glide_hbond>
0

> <r_i_glide_metal>
0

> <r_i_glide_rewards>
-2.43734365713493

> <r_i_glide_evdw>
-27.8683586120605

> <r_i_glide_ecoul>
-1.44944190979004

> <r_i_glide_erotb>
0.213600203221412

> <r_i_glide_esite>
0

> <r_i_glide_emodel>
-37.3275755747609

> <r_i_glide_energy>
-29.3178005218506

> <r_i_glide_einternal>
1.00800180435181

> <i_i_glide_confnum>
2

> <i_i_glide_posenum>
242

> <r_i_glide_eff_state_penalty>
0

> <s_user_duplicate_titles>
301061

> <s_m_subgroup_title>
dock_pv

> <s_m_subgroupid>
dock_pv1

> <b_m_subgroup_collapsed>
0

$$$$
354087
                    3D
 Schrodinger Suite 2021-1.
 42 46  0  0  1  0            999 V2000
   28.9345   -2.7526   27.5671 C   0  0  0  0  0  0
   28.5368   -1.5096   26.7447 C   0  0  0  0  0  0
   29.6806   -0.5050   26.3187 C   0  0  1  0  0  0
   29.2672    0.9566   26.6530 C   0  0  0  0  0  0
   29.1780    1.2057   28.1741 C   0  0  0  0  0  0
   30.4286    0.7349   28.9339 C   0  0  0  0  0  0
   30.5704    1.0588   30.1133 O   0  0  0  0  0  0
   31.3300   -0.2283   28.2526 C   0  0  0  0  0  0
   31.0181   -0.7671   27.0380 C   0  0  0  0  0  0
   31.7645   -1.6997   26.1582 C   0  0  0  0  0  0
   32.8199   -2.5539   26.4486 C   0  0  0  0  0  0
   33.3736   -3.3637   25.4640 C   0  0  0  0  0  0
   32.9295   -3.2409   24.1677 C   0  0  0  0  0  0
   31.8475   -2.4190   23.8304 C   0  0  0  0  0  0
   31.2474   -1.6446   24.8605 C   0  0  0  0  0  0
   30.0683   -0.7161   24.8367 C   0  0  0  0  0  0
   31.6597   -2.7545   22.4433 C   0  0  0  0  0  0
   32.5659   -3.5671   21.9805 N   0  0  0  0  0  0
   33.3425   -3.8732   23.0166 N   0  0  0  0  0  0
   32.6179   -0.5431   29.0287 C   0  0  0  0  0  0
   33.9886   -0.2490   28.4511 C   0  0  0  0  0  0
   33.4759    0.5775   29.5954 C   0  0  0  0  0  0
   34.0876   -4.5442   22.9054 H   0  0  0  0  0  0
   28.0755   -3.4045   27.7284 H   0  0  0  0  0  0
   29.6985   -3.3419   27.0639 H   0  0  0  0  0  0
   29.3219   -2.4745   28.5477 H   0  0  0  0  0  0
   27.7716   -0.9942   27.3234 H   0  0  0  0  0  0
   27.9801   -1.8480   25.8702 H   0  0  0  0  0  0
   28.3199    1.2064   26.1729 H   0  0  0  0  0  0
   29.9991    1.6607   26.2640 H   0  0  0  0  0  0
   28.3559    0.6202   28.5791 H   0  0  0  0  0  0
   28.9819    2.2508   28.4134 H   0  0  0  0  0  0
   33.1760   -2.6604   27.4615 H   0  0  0  0  0  0
   34.0599   -4.1419   25.6586 H   0  0  0  0  0  0
   29.2603   -1.1460   24.2640 H   0  0  0  0  0  0
   30.3201    0.2210   24.3603 H   0  0  0  0  0  0
   30.8475   -2.5420   21.7767 H   0  0  0  0  0  0
   32.5433   -1.4300   29.6578 H   0  0  0  0  0  0
   34.0602    0.2080   27.4640 H   0  0  0  0  0  0
   34.8052   -0.9395   28.6622 H   0  0  0  0  0  0
   33.9015    0.4425   30.5896 H   0  0  0  0  0  0
   33.1890    1.6109   29.4059 H   0  0  0  0  0  0
  1  2  1  0  0  0
  1 24  1  0  0  0
  1 25  1  0  0  0
  1 26  1  0  0  0
  2  3  1  0  0  0
  2 27  1  0  0  0
  2 28  1  0  0  0
  3  9  1  0  0  0
  3 16  1  0  0  0
  3  4  1  0  0  0
  4  5  1  0  0  0
  4 29  1  0  0  0
  4 30  1  0  0  0
  5  6  1  0  0  0
  5 31  1  0  0  0
  5 32  1  0  0  0
  6  7  2  0  0  0
  6  8  1  0  0  0
  8  9  2  0  0  0
  8 20  1  0  0  0
  9 10  1  0  0  0
 10 15  1  0  0  0
 10 11  2  0  0  0
 11 12  1  0  0  0
 11 33  1  0  0  0
 12 13  2  0  0  0
 12 34  1  0  0  0
 13 19  1  0  0  0
 13 14  1  0  0  0
 14 15  2  0  0  0
 14 17  1  0  0  0
 15 16  1  0  0  0
 16 35  1  0  0  0
 16 36  1  0  0  0
 17 18  2  0  0  0
 17 37  1  0  0  0
 18 19  1  0  0  0
 19 23  1  0  0  0
 20 22  1  0  0  0
 20 21  1  0  0  0
 20 38  1  0  0  0
 21 22  1  0  0  0
 21 39  1  0  0  0
 21 40  1  0  0  0
 22 41  1  0  0  0
 22 42  1  0  0  0
M  END
> <s_m_entry_id>
17451

> <s_m_entry_name>
ligand_docking-pose.378

> <s_m_Source_Path>
/home/csk/Desktop/cluster/DUD-E-result/esr1

> <s_m_Source_File>
ligand_docking-pose.sdf

> <i_m_Source_File_Index>
378

> <i_lp_mmshare_version>
53161

> <i_f3d_flags>
0

> <r_lp_tautomer_probability>
1

> <s_lp_Force_Field>
OPLS_2005

> <r_lp_Energy>
44.21066

> <b_lp_Chiralities_Consistent>
1

> <s_lp_Variant>
354087-1

> <s_i_glide_gridfile>
glide-grid_1sj0

> <i_i_glide_lignum>
1070

> <i_i_glide_rotatable_bonds>
2

> <r_i_docking_score>
-8.31410236289754

> <r_i_glide_ligand_efficiency>
-0.37791374376807

> <r_i_glide_ligand_efficiency_sa>
-1.05892917254229

> <r_i_glide_ligand_efficiency_ln>
-2.03226988174433

> <r_i_glide_gscore>
-8.31410236289754

> <r_i_glide_lipo>
-4.64203436515767

> <r_i_glide_hbond>
0

> <r_i_glide_metal>
0

> <r_i_glide_rewards>
-2.63497807378077

> <r_i_glide_evdw>
-25.8955173492432

> <r_i_glide_ecoul>
0.29415699839592

> <r_i_glide_erotb>
0.213562393743674

> <r_i_glide_esite>
0

> <r_i_glide_emodel>
-34.4061747675291

> <r_i_glide_energy>
-25.6013603508472

> <r_i_glide_einternal>
5.16642236709595

> <i_i_glide_confnum>
2

> <i_i_glide_posenum>
261

> <r_i_glide_eff_state_penalty>
0

> <s_user_duplicate_titles>
354087

> <s_m_subgroup_title>
dock_pv

> <s_m_subgroupid>
dock_pv1

> <b_m_subgroup_collapsed>
0

$$$$
222961
                    3D
 Schrodinger Suite 2021-1.
 34 35  0  0  1  0            999 V2000
   33.3298   -1.2087   29.0527 C   0  0  0  0  0  0
   32.0471   -0.8965   28.2352 C   0  0  1  0  0  0
   30.8216   -1.5019   28.9759 C   0  0  0  0  0  0
   29.4673   -1.4328   28.2639 C   0  0  0  0  0  0
   28.7942   -0.2149   28.1240 C   0  0  0  0  0  0
   27.5189   -0.1854   27.5632 C   0  0  0  0  0  0
   26.9158   -1.3708   27.1514 C   0  0  0  0  0  0
   27.5923   -2.5825   27.2538 C   0  0  0  0  0  0
   28.8681   -2.6123   27.8098 C   0  0  0  0  0  0
   25.6396   -1.3420   26.6621 O   0  0  0  0  0  0
   31.9302    0.5787   28.2455 C   0  0  0  0  0  0
   31.8398    1.7326   28.2636 N   0  0  0  0  0  0
   32.1420   -1.4313   26.7854 C   0  0  0  0  0  0
   31.5785   -0.7074   25.7231 C   0  0  0  0  0  0
   31.6597   -1.1816   24.4177 C   0  0  0  0  0  0
   32.3081   -2.3829   24.1571 C   0  0  0  0  0  0
   32.8608   -3.1240   25.1972 C   0  0  0  0  0  0
   32.7639   -2.6578   26.5065 C   0  0  0  0  0  0
   32.3894   -2.8323   22.8672 O   0  0  0  0  0  0
   34.2220   -0.8307   28.5512 H   0  0  0  0  0  0
   33.2986   -0.7400   30.0377 H   0  0  0  0  0  0
   33.4755   -2.2747   29.2265 H   0  0  0  0  0  0
   31.0127   -2.5370   29.2445 H   0  0  0  0  0  0
   30.7218   -1.0064   29.9403 H   0  0  0  0  0  0
   29.2360    0.7040   28.4784 H   0  0  0  0  0  0
   26.9857    0.7504   27.4744 H   0  0  0  0  0  0
   27.1265   -3.4988   26.9195 H   0  0  0  0  0  0
   29.3780   -3.5598   27.9011 H   0  0  0  0  0  0
   25.3387   -2.1951   26.2907 H   0  0  0  0  0  0
   31.0646    0.2266   25.8958 H   0  0  0  0  0  0
   31.2252   -0.6147   23.6076 H   0  0  0  0  0  0
   33.3618   -4.0602   24.9988 H   0  0  0  0  0  0
   33.1861   -3.2605   27.2950 H   0  0  0  0  0  0
   32.7892   -3.7009   22.7814 H   0  0  0  0  0  0
  1  2  1  0  0  0
  1 20  1  0  0  0
  1 21  1  0  0  0
  1 22  1  0  0  0
  2  3  1  0  0  0
  2 11  1  0  0  0
  2 13  1  0  0  0
  3  4  1  0  0  0
  3 23  1  0  0  0
  3 24  1  0  0  0
  4  9  1  0  0  0
  4  5  2  0  0  0
  5  6  1  0  0  0
  5 25  1  0  0  0
  6  7  2  0  0  0
  6 26  1  0  0  0
  7  8  1  0  0  0
  7 10  1  0  0  0
  8  9  2  0  0  0
  8 27  1  0  0  0
  9 28  1  0  0  0
 10 29  1  0  0  0
 11 12  3  0  0  0
 13 18  1  0  0  0
 13 14  2  0  0  0
 14 15  1  0  0  0
 14 30  1  0  0  0
 15 16  2  0  0  0
 15 31  1  0  0  0
 16 17  1  0  0  0
 16 19  1  0  0  0
 17 18  2  0  0  0
 17 32  1  0  0  0
 18 33  1  0  0  0
 19 34  1  0  0  0
M  END
> <s_m_entry_id>
17452

> <s_m_entry_name>
ligand_docking-pose.379

> <s_m_Source_Path>
/home/csk/Desktop/cluster/DUD-E-result/esr1

> <s_m_Source_File>
ligand_docking-pose.sdf

> <i_m_Source_File_Index>
379

> <i_lp_mmshare_version>
53161

> <i_f3d_flags>
0

> <r_lp_tautomer_probability>
0.99999999999473

> <s_lp_Force_Field>
OPLS_2005

> <r_lp_Energy>
13.134999

> <b_lp_Chiralities_Consistent>
1

> <s_lp_Variant>
222961-1

> <s_i_glide_gridfile>
glide-grid_1sj0

> <i_i_glide_lignum>
1288

> <i_i_glide_rotatable_bonds>
5

> <r_i_docking_score>
-8.31383046395457

> <r_i_glide_ligand_efficiency>
-0.437570024418662

> <r_i_glide_ligand_efficiency_sa>
-1.16761257344407

> <r_i_glide_ligand_efficiency_ln>
-2.10773458731804

> <r_i_glide_gscore>
-8.31383046395457

> <r_i_glide_lipo>
-3.98141181552861

> <r_i_glide_hbond>
-0.16

> <r_i_glide_metal>
0

> <r_i_glide_rewards>
-2.56059633073682

> <r_i_glide_evdw>
-32.4826545715332

> <r_i_glide_ecoul>
-5.39350414276123

> <r_i_glide_erotb>
0.8213360323017

> <r_i_glide_esite>
0

> <r_i_glide_emodel>
-57.1404780643012

> <r_i_glide_energy>
-37.8761587142944

> <r_i_glide_einternal>
1.10617542266846

> <i_i_glide_confnum>
7

> <i_i_glide_posenum>
347

> <r_i_glide_eff_state_penalty>
0

> <s_user_duplicate_titles>
222961

> <s_m_subgroup_title>
dock_pv

> <s_m_subgroupid>
dock_pv1

> <b_m_subgroup_collapsed>
0

$$$$
341316
                    3D
 Schrodinger Suite 2021-1.
 38 40  0  0  1  0            999 V2000
   29.2889    1.5267   29.4905 C   0  0  0  0  0  0
   30.5751    0.7423   29.3237 C   0  0  0  0  0  0
   31.4772    0.7046   30.4026 C   0  0  0  0  0  0
   32.5815   -0.1269   30.3701 C   0  0  0  0  0  0
   32.7936   -0.9410   29.2727 C   0  0  0  0  0  0
   31.9174   -0.9017   28.1846 C   0  0  0  0  0  0
   30.8141   -0.0242   28.1568 C   0  0  0  0  0  0
   29.9432   -0.0525   26.8583 C   0  0  0  0  0  0
   30.8017   -0.2363   25.7073 O   0  0  0  0  0  0
   31.6737   -1.3078   25.7665 C   0  0  0  0  0  0
   32.1699   -1.7449   26.9952 C   0  0  0  0  0  0
   32.8691   -2.9454   27.0467 C   0  0  0  0  0  0
   33.1919   -3.6139   25.8746 C   0  0  0  0  0  0
   32.8431   -3.0940   24.6383 C   0  0  0  0  0  0
   32.0567   -1.9429   24.5770 C   0  0  0  0  0  0
   31.6160   -1.4023   23.2396 C   0  0  0  0  0  0
   33.2578   -3.7456   23.5065 O   0  0  0  0  0  0
   28.9331   -1.2272   26.9275 C   0  0  0  0  0  0
   29.2534    1.2826   26.4967 C   0  0  0  0  0  0
   31.3011    1.4577   31.5333 O   0  0  0  0  0  0
   28.4608    0.9708   29.0630 H   0  0  0  0  0  0
   29.0344    1.5966   30.5414 H   0  0  0  0  0  0
   29.3465    2.5253   29.0564 H   0  0  0  0  0  0
   33.2651   -0.1497   31.2052 H   0  0  0  0  0  0
   33.6614   -1.5841   29.2710 H   0  0  0  0  0  0
   33.2142   -3.3519   27.9871 H   0  0  0  0  0  0
   33.7221   -4.5419   25.9396 H   0  0  0  0  0  0
   32.2482   -1.7439   22.4204 H   0  0  0  0  0  0
   30.5949   -1.7382   23.0639 H   0  0  0  0  0  0
   31.6604   -0.3147   23.2372 H   0  0  0  0  0  0
   33.7083   -4.5698   23.7028 H   0  0  0  0  0  0
   28.2059   -1.0791   27.7252 H   0  0  0  0  0  0
   28.3786   -1.3196   25.9928 H   0  0  0  0  0  0
   29.4186   -2.1857   27.1060 H   0  0  0  0  0  0
   28.3423    1.4749   27.0563 H   0  0  0  0  0  0
   29.9223    2.1342   26.6224 H   0  0  0  0  0  0
   28.9016    1.2506   25.4660 H   0  0  0  0  0  0
   30.5801    2.0846   31.4529 H   0  0  0  0  0  0
  1  2  1  0  0  0
  1 21  1  0  0  0
  1 22  1  0  0  0
  1 23  1  0  0  0
  2  7  1  0  0  0
  2  3  2  0  0  0
  3  4  1  0  0  0
  3 20  1  0  0  0
  4  5  2  0  0  0
  4 24  1  0  0  0
  5  6  1  0  0  0
  5 25  1  0  0  0
  6 11  1  0  0  0
  6  7  2  0  0  0
  7  8  1  0  0  0
  8  9  1  0  0  0
  8 18  1  0  0  0
  8 19  1  0  0  0
  9 10  1  0  0  0
 10 15  2  0  0  0
 10 11  1  0  0  0
 11 12  2  0  0  0
 12 13  1  0  0  0
 12 26  1  0  0  0
 13 14  2  0  0  0
 13 27  1  0  0  0
 14 15  1  0  0  0
 14 17  1  0  0  0
 15 16  1  0  0  0
 16 28  1  0  0  0
 16 29  1  0  0  0
 16 30  1  0  0  0
 17 31  1  0  0  0
 18 32  1  0  0  0
 18 33  1  0  0  0
 18 34  1  0  0  0
 19 35  1  0  0  0
 19 36  1  0  0  0
 19 37  1  0  0  0
 20 38  1  0  0  0
M  END
> <s_m_entry_id>
17453

> <s_m_entry_name>
ligand_docking-pose.380

> <s_m_Source_Path>
/home/csk/Desktop/cluster/DUD-E-result/esr1

> <s_m_Source_File>
ligand_docking-pose.sdf

> <i_m_Source_File_Index>
380

> <i_lp_mmshare_version>
53161

> <i_f3d_flags>
0

> <r_lp_tautomer_probability>
0.999999999997365

> <s_lp_Force_Field>
OPLS_2005

> <r_lp_Energy>
24.277393

> <b_lp_Chiralities_Consistent>
1

> <s_lp_Variant>
341316-1

> <s_i_glide_gridfile>
glide-grid_1sj0

> <i_i_glide_lignum>
959

> <i_i_glide_rotatable_bonds>
2

> <r_i_docking_score>
-8.3109814127377

> <r_i_glide_ligand_efficiency>
-0.415549070636885

> <r_i_glide_ligand_efficiency_sa>
-1.12797371677003

> <r_i_glide_ligand_efficiency_ln>
-2.07996453309559

> <r_i_glide_gscore>
-8.3109814127377

> <r_i_glide_lipo>
-4.5901709778616

> <r_i_glide_hbond>
0

> <r_i_glide_metal>
0

> <r_i_glide_rewards>
-2.32432063585342

> <r_i_glide_evdw>
-26.9957599639893

> <r_i_glide_ecoul>
-0.311345338821411

> <r_i_glide_erotb>
0

> <r_i_glide_esite>
0

> <r_i_glide_emodel>
-29.7835351147051

> <r_i_glide_energy>
-27.3071053028107

> <r_i_glide_einternal>
0.230697333812714

> <i_i_glide_confnum>
1

> <i_i_glide_posenum>
309

> <r_i_glide_eff_state_penalty>
0

> <s_user_duplicate_titles>
341316

> <s_m_subgroup_title>
dock_pv

> <s_m_subgroupid>
dock_pv1

> <b_m_subgroup_collapsed>
0

$$$$
312873
                    3D
 Schrodinger Suite 2021-1.
 27 29  0  0  1  0            999 V2000
   33.3920    2.0104   27.1899 C   0  0  0  0  0  0
   32.1410    1.3944   27.2894 C   0  0  0  0  0  0
   31.9730    0.3576   28.2147 C   0  0  0  0  0  0
   33.0645    0.0023   29.0248 C   0  0  0  0  0  0
   34.3210    0.6085   28.9450 C   0  0  0  0  0  0
   34.4602    1.6209   27.9987 C   0  0  0  0  0  0
   35.6600    2.2580   27.8640 O   0  0  0  0  0  0
   32.7036   -0.9993   29.8640 O   0  0  0  0  0  0
   31.3785   -1.3418   29.5705 N   0  0  0  0  0  0
   30.9424   -0.5551   28.6132 C   0  0  0  0  0  0
   29.5469   -0.7145   28.0947 C   0  0  0  0  0  0
   29.0907   -2.0129   27.8294 C   0  0  0  0  0  0
   27.8000   -2.2425   27.3588 C   0  0  0  0  0  0
   26.9409   -1.1621   27.1275 C   0  0  0  0  0  0
   27.3869    0.1347   27.3886 C   0  0  0  0  0  0
   28.6795    0.3639   27.8636 C   0  0  0  0  0  0
   29.0588    1.6515   28.1367 O   0  0  0  0  0  0
   25.6608   -1.3420   26.6662 O   0  0  0  0  0  0
   27.2600   -4.0451   27.0640 Br  0  0  0  0  0  0
   33.5368    2.8026   26.4699 H   0  0  0  0  0  0
   31.3219    1.7039   26.6640 H   0  0  0  0  0  0
   35.1375    0.2996   29.5797 H   0  0  0  0  0  0
   36.3825    1.8579   28.3661 H   0  0  0  0  0  0
   29.7388   -2.8631   27.9933 H   0  0  0  0  0  0
   26.7207    0.9693   27.2225 H   0  0  0  0  0  0
   29.9425    1.6976   28.5098 H   0  0  0  0  0  0
   25.4637   -2.2294   26.3151 H   0  0  0  0  0  0
  1  6  1  0  0  0
  1  2  2  0  0  0
  1 20  1  0  0  0
  2  3  1  0  0  0
  2 21  1  0  0  0
  3 10  1  0  0  0
  3  4  2  0  0  0
  4  5  1  0  0  0
  4  8  1  0  0  0
  5  6  2  0  0  0
  5 22  1  0  0  0
  6  7  1  0  0  0
  7 23  1  0  0  0
  8  9  1  0  0  0
  9 10  2  0  0  0
 10 11  1  0  0  0
 11 16  1  0  0  0
 11 12  2  0  0  0
 12 13  1  0  0  0
 12 24  1  0  0  0
 13 14  2  0  0  0
 13 19  1  0  0  0
 14 15  1  0  0  0
 14 18  1  0  0  0
 15 16  2  0  0  0
 15 25  1  0  0  0
 16 17  1  0  0  0
 17 26  1  0  0  0
 18 27  1  0  0  0
M  END
> <s_m_entry_id>
17454

> <s_m_entry_name>
ligand_docking-pose.381

> <s_m_Source_Path>
/home/csk/Desktop/cluster/DUD-E-result/esr1

> <s_m_Source_File>
ligand_docking-pose.sdf

> <i_m_Source_File_Index>
381

> <i_lp_mmshare_version>
53161

> <i_f3d_flags>
0

> <r_lp_tautomer_probability>
0.999999999898

> <s_lp_Force_Field>
OPLS_2005

> <r_lp_Energy>
29.96228

> <b_lp_Chiralities_Consistent>
1

> <s_lp_Variant>
312873-1

> <s_i_glide_gridfile>
glide-grid_1sj0

> <i_i_glide_lignum>
42

> <i_i_glide_rotatable_bonds>
4

> <r_i_docking_score>
-8.3103059796769

> <r_i_glide_ligand_efficiency>
-0.437384525246152

> <r_i_glide_ligand_efficiency_sa>
-1.1671175871468

> <r_i_glide_ligand_efficiency_ln>
-2.10684105485467

> <r_i_glide_gscore>
-8.3103059796769

> <r_i_glide_lipo>
-3.22531627288318

> <r_i_glide_hbond>
-0.456

> <r_i_glide_metal>
0

> <r_i_glide_rewards>
-1.84820535992219

> <r_i_glide_evdw>
-35.9011993408203

> <r_i_glide_ecoul>
-7.77277183532715

> <r_i_glide_erotb>
0.180191395468557

> <r_i_glide_esite>
0

> <r_i_glide_emodel>
-64.7238790613031

> <r_i_glide_energy>
-43.6739711761475

> <r_i_glide_einternal>
1.26266872882843

> <i_i_glide_confnum>
2

> <i_i_glide_posenum>
290

> <r_i_glide_eff_state_penalty>
0

> <s_user_duplicate_titles>
312873

> <s_m_subgroup_title>
dock_pv

> <s_m_subgroupid>
dock_pv1

> <b_m_subgroup_collapsed>
0

$$$$
351035
                    3D
 Schrodinger Suite 2021-1.
 39 41  0  0  1  0            999 V2000
   32.3648    0.9988   31.4609 C   0  0  0  0  0  0
   31.7582   -0.2178   30.7478 C   0  0  0  0  0  0
   32.7471   -0.9136   29.7864 C   0  0  0  0  0  0
   32.0978   -1.8744   28.7555 C   0  0  0  0  0  0
   31.4806   -1.3602   27.3986 C   0  0  2  0  0  0
   32.5333   -0.8861   26.3667 C   0  0  0  0  0  0
   33.2476    0.4326   26.7530 C   0  0  0  0  0  0
   32.3662    1.4398   27.5039 C   0  0  0  0  0  0
   32.8600    2.5027   27.8640 O   0  0  0  0  0  0
   30.9625    1.0583   27.7640 C   0  0  0  0  0  0
   30.5031   -0.2052   27.6062 C   0  0  0  0  0  0
   29.1340   -0.7836   27.6616 C   0  0  0  0  0  0
   27.8762   -0.2014   27.8640 C   0  0  0  0  0  0
   26.7318   -0.9930   27.9186 C   0  0  0  0  0  0
   26.8286   -2.3679   27.7378 C   0  0  0  0  0  0
   28.0579   -2.9420   27.4157 C   0  0  0  0  0  0
   29.2073   -2.1463   27.3755 C   0  0  0  0  0  0
   30.5775   -2.4672   26.8431 C   0  0  0  0  0  0
   25.7059   -3.1375   27.8640 O   0  0  0  0  0  0
   29.7464    2.3770   28.5726 Br  0  0  0  0  0  0
   31.6508    1.4411   32.1565 H   0  0  0  0  0  0
   32.6436    1.7733   30.7457 H   0  0  0  0  0  0
   33.2599    0.7270   32.0190 H   0  0  0  0  0  0
   31.4075   -0.9420   31.4814 H   0  0  0  0  0  0
   30.8601    0.1055   30.2299 H   0  0  0  0  0  0
   33.4081   -0.1937   29.3204 H   0  0  0  0  0  0
   33.4295   -1.5024   30.3954 H   0  0  0  0  0  0
   32.8379   -2.6398   28.5128 H   0  0  0  0  0  0
   31.3145   -2.3878   29.3138 H   0  0  0  0  0  0
   33.2600   -1.6823   26.2056 H   0  0  0  0  0  0
   32.0578   -0.7314   25.3959 H   0  0  0  0  0  0
   33.6319    0.9314   25.8641 H   0  0  0  0  0  0
   34.0912    0.2195   27.4078 H   0  0  0  0  0  0
   27.7415    0.8563   28.0060 H   0  0  0  0  0  0
   25.7720   -0.5417   28.1199 H   0  0  0  0  0  0
   28.1068   -3.9969   27.1874 H   0  0  0  0  0  0
   30.5414   -2.4336   25.7553 H   0  0  0  0  0  0
   30.9386   -3.4649   27.0641 H   0  0  0  0  0  0
   25.3136   -3.3420   26.9844 H   0  0  0  0  0  0
  1  2  1  0  0  0
  1 21  1  0  0  0
  1 22  1  0  0  0
  1 23  1  0  0  0
  2  3  1  0  0  0
  2 24  1  0  0  0
  2 25  1  0  0  0
  3  4  1  0  0  0
  3 26  1  0  0  0
  3 27  1  0  0  0
  4  5  1  0  0  0
  4 28  1  0  0  0
  4 29  1  0  0  0
  5 11  1  0  0  0
  5 18  1  0  0  0
  5  6  1  0  0  0
  6  7  1  0  0  0
  6 30  1  0  0  0
  6 31  1  0  0  0
  7  8  1  0  0  0
  7 32  1  0  0  0
  7 33  1  0  0  0
  8  9  2  0  0  0
  8 10  1  0  0  0
 10 11  2  0  0  0
 10 20  1  0  0  0
 11 12  1  0  0  0
 12 17  1  0  0  0
 12 13  2  0  0  0
 13 14  1  0  0  0
 13 34  1  0  0  0
 14 15  2  0  0  0
 14 35  1  0  0  0
 15 16  1  0  0  0
 15 19  1  0  0  0
 16 17  2  0  0  0
 16 36  1  0  0  0
 17 18  1  0  0  0
 18 37  1  0  0  0
 18 38  1  0  0  0
 19 39  1  0  0  0
M  END
> <s_m_entry_id>
17455

> <s_m_entry_name>
ligand_docking-pose.382

> <s_m_Source_Path>
/home/csk/Desktop/cluster/DUD-E-result/esr1

> <s_m_Source_File>
ligand_docking-pose.sdf

> <i_m_Source_File_Index>
382

> <i_lp_mmshare_version>
53161

> <i_f3d_flags>
0

> <r_lp_tautomer_probability>
1

> <s_lp_Force_Field>
OPLS_2005

> <r_lp_Energy>
22.032808

> <b_lp_Chiralities_Consistent>
1

> <s_lp_Variant>
351035-2

> <s_i_glide_gridfile>
glide-grid_1sj0

> <i_i_glide_lignum>
1338

> <i_i_glide_rotatable_bonds>
4

> <r_i_docking_score>
-8.30786684671968

> <r_i_glide_ligand_efficiency>
-0.415393342335984

> <r_i_glide_ligand_efficiency_sa>
-1.12755100512709

> <r_i_glide_ligand_efficiency_ln>
-2.07918505994654

> <r_i_glide_gscore>
-8.30786684671968

> <r_i_glide_lipo>
-3.6427089517484

> <r_i_glide_hbond>
-0.16

> <r_i_glide_metal>
0

> <r_i_glide_rewards>
-2.36601908929127

> <r_i_glide_evdw>
-25.8457717895508

> <r_i_glide_ecoul>
-7.88454580307007

> <r_i_glide_erotb>
0.335831654258043

> <r_i_glide_esite>
0

> <r_i_glide_emodel>
-37.5164474795176

> <r_i_glide_energy>
-33.7303175926208

> <r_i_glide_einternal>
7.17026519775391

> <i_i_glide_confnum>
7

> <i_i_glide_posenum>
165

> <r_i_glide_eff_state_penalty>
0

> <s_user_duplicate_titles>
351035

> <s_m_subgroup_title>
dock_pv

> <s_m_subgroupid>
dock_pv1

> <b_m_subgroup_collapsed>
0

$$$$
396498
                    3D
 Schrodinger Suite 2021-1.
 38 41  0  0  1  0            999 V2000
   35.2600    2.1207   28.2640 C   0  0  0  0  0  0
   34.3499    2.2580   27.2315 C   0  0  0  0  0  0
   33.0701    1.7820   27.4078 C   0  0  0  0  0  0
   32.7497    1.0765   28.5686 C   0  0  0  0  0  0
   33.6695    0.9194   29.6006 C   0  0  0  0  0  0
   34.9312    1.4580   29.4440 C   0  0  0  0  0  0
   31.4609    0.3147   28.6144 C   0  0  2  0  0  0
   31.6665   -0.9817   27.8120 C   0  0  2  0  0  0
   31.8874   -0.8368   26.2819 C   0  0  0  0  0  0
   31.2508   -2.0606   25.6340 C   0  0  0  0  0  0
   30.6713   -2.8383   26.8139 C   0  0  0  0  0  0
   30.4337   -1.8504   27.9401 C   0  0  2  0  0  0
   29.1487   -1.0223   27.8024 C   0  0  0  0  0  0
   27.8952   -1.5956   27.5330 C   0  0  0  0  0  0
   26.7688   -0.7948   27.3552 C   0  0  0  0  0  0
   26.8916    0.5870   27.4640 C   0  0  0  0  0  0
   28.1107    1.1830   27.7269 C   0  0  0  0  0  0
   29.2247    0.3843   27.9038 C   0  0  0  0  0  0
   30.3964    1.0840   28.0724 O   0  0  0  0  0  0
   25.5473   -1.3420   27.0640 O   0  0  0  0  0  0
   31.2424    0.0927   29.6625 H   0  0  0  0  0  0
   32.5075   -1.5368   28.2361 H   0  0  0  0  0  0
   30.3524   -2.3474   28.9077 H   0  0  0  0  0  0
   36.2464    2.5332   28.1462 H   0  0  0  0  0  0
   34.6288    2.7321   26.3047 H   0  0  0  0  0  0
   32.3556    1.8906   26.6090 H   0  0  0  0  0  0
   33.4290    0.3584   30.4924 H   0  0  0  0  0  0
   35.6684    1.3668   30.2252 H   0  0  0  0  0  0
   31.3873    0.0494   25.8901 H   0  0  0  0  0  0
   32.9408   -0.7471   26.0308 H   0  0  0  0  0  0
   30.4600   -1.7534   24.9471 H   0  0  0  0  0  0
   31.9694   -2.6555   25.0682 H   0  0  0  0  0  0
   31.3664   -3.6358   27.0640 H   0  0  0  0  0  0
   29.7292   -3.3420   26.6640 H   0  0  0  0  0  0
   27.7924   -2.6672   27.4506 H   0  0  0  0  0  0
   26.0600    1.2376   27.3401 H   0  0  0  0  0  0
   28.1911    2.2579   27.7863 H   0  0  0  0  0  0
   25.5526   -2.2029   26.6170 H   0  0  0  0  0  0
  1  6  1  0  0  0
  1  2  2  0  0  0
  1 24  1  0  0  0
  2  3  1  0  0  0
  2 25  1  0  0  0
  3  4  2  0  0  0
  3 26  1  0  0  0
  4  5  1  0  0  0
  4  7  1  0  0  0
  5  6  2  0  0  0
  5 27  1  0  0  0
  6 28  1  0  0  0
  7 21  1  0  0  0
  7 19  1  0  0  0
  7  8  1  0  0  0
  8 22  1  0  0  0
  8 12  1  0  0  0
  8  9  1  0  0  0
  9 10  1  0  0  0
  9 29  1  0  0  0
  9 30  1  0  0  0
 10 11  1  0  0  0
 10 31  1  0  0  0
 10 32  1  0  0  0
 11 12  1  0  0  0
 11 33  1  0  0  0
 11 34  1  0  0  0
 12 23  1  0  0  0
 12 13  1  0  0  0
 13 18  2  0  0  0
 13 14  1  0  0  0
 14 15  2  0  0  0
 14 35  1  0  0  0
 15 16  1  0  0  0
 15 20  1  0  0  0
 16 17  2  0  0  0
 16 36  1  0  0  0
 17 18  1  0  0  0
 17 37  1  0  0  0
 18 19  1  0  0  0
 20 38  1  0  0  0
M  END
> <s_m_entry_id>
17456

> <s_m_entry_name>
ligand_docking-pose.383

> <s_m_Source_Path>
/home/csk/Desktop/cluster/DUD-E-result/esr1

> <s_m_Source_File>
ligand_docking-pose.sdf

> <i_m_Source_File_Index>
383

> <i_lp_mmshare_version>
53161

> <i_f3d_flags>
0

> <r_lp_tautomer_probability>
1

> <s_lp_Force_Field>
OPLS_2005

> <r_lp_Energy>
33.78643

> <b_lp_Chiralities_Consistent>
1

> <s_lp_Variant>
396498-1

> <s_i_glide_gridfile>
glide-grid_1sj0

> <i_i_glide_lignum>
478

> <i_i_glide_rotatable_bonds>
2

> <r_i_docking_score>
-8.30590188342717

> <r_i_glide_ligand_efficiency>
-0.415295094171359

> <r_i_glide_ligand_efficiency_sa>
-1.1272843185785

> <r_i_glide_ligand_efficiency_ln>
-2.07869329444325

> <r_i_glide_gscore>
-8.30590188342717

> <r_i_glide_lipo>
-3.97604633585454

> <r_i_glide_hbond>
-0.156716021752625

> <r_i_glide_metal>
0

> <r_i_glide_rewards>
-2.49317509090909

> <r_i_glide_evdw>
-25.7213325500488

> <r_i_glide_ecoul>
-3.79782485961914

> <r_i_glide_erotb>
0.175775921534391

> <r_i_glide_esite>
0

> <r_i_glide_emodel>
-35.4417306518628

> <r_i_glide_energy>
-29.519157409668

> <r_i_glide_einternal>
1.33813190460205

> <i_i_glide_confnum>
3

> <i_i_glide_posenum>
90

> <r_i_glide_eff_state_penalty>
0

> <s_user_duplicate_titles>
396498

> <s_m_subgroup_title>
dock_pv

> <s_m_subgroupid>
dock_pv1

> <b_m_subgroup_collapsed>
0

$$$$
301018
                    3D
 Schrodinger Suite 2021-1.
 41 43  0  0  1  0            999 V2000
   29.8586   -2.5396   27.4987 C   0  0  0  0  0  0
   30.5935   -1.3320   28.0596 C   0  0  0  0  0  0
   31.0370   -1.2816   29.3353 C   0  0  0  0  0  0
   31.7209   -0.0667   29.9728 C   0  0  0  0  0  0
   31.9999    1.0994   28.9590 C   0  0  2  0  0  0
   30.7913    1.1589   27.9871 C   0  0  0  0  0  0
   30.7885   -0.1310   27.1333 C   0  0  1  0  0  0
   32.1327   -0.2141   26.3641 C   0  0  1  0  0  0
   33.2270   -0.2044   27.2968 O   0  0  0  0  0  0
   33.3505    0.9380   28.1495 C   0  0  0  0  0  0
   33.6785    2.1835   27.2760 C   0  0  0  0  0  0
   34.5512    0.5956   29.0577 C   0  0  0  0  0  0
   32.2426   -1.3632   25.3656 C   0  0  0  0  0  0
   33.1162   -2.4294   25.5953 C   0  0  0  0  0  0
   33.3687   -3.3424   24.5839 C   0  0  0  0  0  0
   32.7037   -3.2362   23.3663 C   0  0  0  0  0  0
   31.7809   -2.2200   23.1554 C   0  0  0  0  0  0
   31.5441   -1.2879   24.1581 C   0  0  0  0  0  0
   32.9625   -4.1437   22.3787 O   0  0  0  0  0  0
   32.0608    2.0323   29.5209 H   0  0  0  0  0  0
   29.9574   -0.0779   26.4271 H   0  0  0  0  0  0
   32.2297    0.6573   25.7218 H   0  0  0  0  0  0
   30.4544   -3.0108   26.7206 H   0  0  0  0  0  0
   28.9040   -2.2398   27.0705 H   0  0  0  0  0  0
   29.6596   -3.2910   28.2628 H   0  0  0  0  0  0
   30.8587   -2.1418   29.9562 H   0  0  0  0  0  0
   31.0406    0.3018   30.7410 H   0  0  0  0  0  0
   32.6087   -0.3734   30.5231 H   0  0  0  0  0  0
   30.8151    2.0388   27.3557 H   0  0  0  0  0  0
   29.8548    1.2445   28.5438 H   0  0  0  0  0  0
   33.9889    3.0456   27.8640 H   0  0  0  0  0  0
   34.5071    1.9615   26.6024 H   0  0  0  0  0  0
   32.8605    2.5219   26.6476 H   0  0  0  0  0  0
   34.6421    1.2979   29.8858 H   0  0  0  0  0  0
   34.4867   -0.4137   29.4686 H   0  0  0  0  0  0
   35.4841    0.6283   28.4946 H   0  0  0  0  0  0
   33.6593   -2.5028   26.5263 H   0  0  0  0  0  0
   34.0762   -4.1410   24.7409 H   0  0  0  0  0  0
   31.2603   -2.1452   22.2149 H   0  0  0  0  0  0
   30.8477   -0.4819   23.9769 H   0  0  0  0  0  0
   32.3559   -4.1117   21.6310 H   0  0  0  0  0  0
  1  2  1  0  0  0
  1 23  1  0  0  0
  1 24  1  0  0  0
  1 25  1  0  0  0
  2  7  1  0  0  0
  2  3  2  0  0  0
  3  4  1  0  0  0
  3 26  1  0  0  0
  4  5  1  0  0  0
  4 27  1  0  0  0
  4 28  1  0  0  0
  5 20  1  0  0  0
  5 10  1  0  0  0
  5  6  1  0  0  0
  6  7  1  0  0  0
  6 29  1  0  0  0
  6 30  1  0  0  0
  7 21  1  0  0  0
  7  8  1  0  0  0
  8 22  1  0  0  0
  8  9  1  0  0  0
  8 13  1  0  0  0
  9 10  1  0  0  0
 10 11  1  0  0  0
 10 12  1  0  0  0
 11 31  1  0  0  0
 11 32  1  0  0  0
 11 33  1  0  0  0
 12 34  1  0  0  0
 12 35  1  0  0  0
 12 36  1  0  0  0
 13 18  1  0  0  0
 13 14  2  0  0  0
 14 15  1  0  0  0
 14 37  1  0  0  0
 15 16  2  0  0  0
 15 38  1  0  0  0
 16 17  1  0  0  0
 16 19  1  0  0  0
 17 18  2  0  0  0
 17 39  1  0  0  0
 18 40  1  0  0  0
 19 41  1  0  0  0
M  END
> <s_m_entry_id>
17457

> <s_m_entry_name>
ligand_docking-pose.384

> <s_m_Source_Path>
/home/csk/Desktop/cluster/DUD-E-result/esr1

> <s_m_Source_File>
ligand_docking-pose.sdf

> <i_m_Source_File_Index>
384

> <i_lp_mmshare_version>
53161

> <i_f3d_flags>
0

> <r_lp_tautomer_probability>
0.999999999997365

> <s_lp_Force_Field>
OPLS_2005

> <r_lp_Energy>
27.576481

> <b_lp_Chiralities_Consistent>
1

> <s_lp_Variant>
301018-1

> <s_i_glide_gridfile>
glide-grid_1sj0

> <i_i_glide_lignum>
1034

> <i_i_glide_rotatable_bonds>
2

> <r_i_docking_score>
-8.30267345809701

> <r_i_glide_ligand_efficiency>
-0.436982813584053

> <r_i_glide_ligand_efficiency_sa>
-1.16604565908639

> <r_i_glide_ligand_efficiency_ln>
-2.10490604670264

> <r_i_glide_gscore>
-8.30267345809701

> <r_i_glide_lipo>
-4.60704206013031

> <r_i_glide_hbond>
0

> <r_i_glide_metal>
0

> <r_i_glide_rewards>
-2.45734384308026

> <r_i_glide_evdw>
-28.9801368713379

> <r_i_glide_ecoul>
-0.359386742115021

> <r_i_glide_erotb>
0.264627299997704

> <r_i_glide_esite>
0

> <r_i_glide_emodel>
-40.2056399752677

> <r_i_glide_energy>
-29.3395236134529

> <r_i_glide_einternal>
0.226884186267853

> <i_i_glide_confnum>
2

> <i_i_glide_posenum>
57

> <r_i_glide_eff_state_penalty>
0

> <s_user_duplicate_titles>
301018

> <s_m_subgroup_title>
dock_pv

> <s_m_subgroupid>
dock_pv1

> <b_m_subgroup_collapsed>
0

$$$$
313647
                    3D
 Schrodinger Suite 2021-1.
 30 32  0  0  1  0            999 V2000
   28.4602    1.1974   26.7567 C   0  0  0  0  0  0
   29.0709    1.4577   27.9254 C   0  0  0  0  0  0
   30.3242    0.8614   28.4288 C   0  0  0  0  0  0
   30.7891    1.1826   29.7104 C   0  0  0  0  0  0
   31.9774    0.6632   30.2290 C   0  0  0  0  0  0
   32.7523   -0.2443   29.5100 C   0  0  0  0  0  0
   32.3110   -0.5957   28.2307 C   0  0  0  0  0  0
   31.1314   -0.0376   27.7086 C   0  0  0  0  0  0
   30.9829   -0.5245   26.4446 O   0  0  0  0  0  0
   32.0653   -1.3428   26.2755 C   0  0  0  0  0  0
   32.8603   -1.4417   27.3200 N   0  0  0  0  0  0
   32.2519   -2.0457   24.9711 C   0  0  0  0  0  0
   33.2463   -3.0231   24.8936 C   0  0  0  0  0  0
   33.4308   -3.7424   23.7224 C   0  0  0  0  0  0
   32.6491   -3.5195   22.6049 C   0  0  0  0  0  0
   31.6635   -2.5461   22.6631 C   0  0  0  0  0  0
   31.4650   -1.8031   23.8358 C   0  0  0  0  0  0
   30.4612   -0.9018   23.8746 F   0  0  0  0  0  0
   32.8539   -4.2854   21.4867 O   0  0  0  0  0  0
   32.3976    1.0581   31.4640 O   0  0  0  0  0  0
   27.5436    1.7075   26.4986 H   0  0  0  0  0  0
   28.8436    0.4878   26.0396 H   0  0  0  0  0  0
   28.6039    2.1868   28.5743 H   0  0  0  0  0  0
   30.2166    1.8556   30.3282 H   0  0  0  0  0  0
   33.6664   -0.6582   29.9094 H   0  0  0  0  0  0
   33.8541   -3.2641   25.7518 H   0  0  0  0  0  0
   34.1082   -4.5675   23.7042 H   0  0  0  0  0  0
   31.0325   -2.4163   21.8008 H   0  0  0  0  0  0
   32.0667   -4.5879   21.0128 H   0  0  0  0  0  0
   33.2475    0.6802   31.6981 H   0  0  0  0  0  0
  1  2  2  0  0  0
  1 21  1  0  0  0
  1 22  1  0  0  0
  2  3  1  0  0  0
  2 23  1  0  0  0
  3  8  1  0  0  0
  3  4  2  0  0  0
  4  5  1  0  0  0
  4 24  1  0  0  0
  5  6  2  0  0  0
  5 20  1  0  0  0
  6  7  1  0  0  0
  6 25  1  0  0  0
  7 11  1  0  0  0
  7  8  2  0  0  0
  8  9  1  0  0  0
  9 10  1  0  0  0
 10 11  2  0  0  0
 10 12  1  0  0  0
 12 17  1  0  0  0
 12 13  2  0  0  0
 13 14  1  0  0  0
 13 26  1  0  0  0
 14 15  2  0  0  0
 14 27  1  0  0  0
 15 16  1  0  0  0
 15 19  1  0  0  0
 16 17  2  0  0  0
 16 28  1  0  0  0
 17 18  1  0  0  0
 19 29  1  0  0  0
 20 30  1  0  0  0
M  END
> <s_m_entry_id>
17458

> <s_m_entry_name>
ligand_docking-pose.385

> <s_m_Source_Path>
/home/csk/Desktop/cluster/DUD-E-result/esr1

> <s_m_Source_File>
ligand_docking-pose.sdf

> <i_m_Source_File_Index>
385

> <i_lp_mmshare_version>
53161

> <i_f3d_flags>
0

> <r_lp_tautomer_probability>
0.999999999997365

> <s_lp_Force_Field>
OPLS_2005

> <r_lp_Energy>
14.941242

> <b_lp_Chiralities_Consistent>
1

> <s_lp_Variant>
313647-1

> <s_i_glide_gridfile>
glide-grid_1sj0

> <i_i_glide_lignum>
1156

> <i_i_glide_rotatable_bonds>
4

> <r_i_docking_score>
-8.3001604709304

> <r_i_glide_ligand_efficiency>
-0.41500802354652

> <r_i_glide_ligand_efficiency_sa>
-1.12650508901801

> <r_i_glide_ligand_efficiency_ln>
-2.07725640825977

> <r_i_glide_gscore>
-8.3001604709304

> <r_i_glide_lipo>
-4.11926204123328

> <r_i_glide_hbond>
-0.106027430833371

> <r_i_glide_metal>
0

> <r_i_glide_rewards>
-2.48680254802941

> <r_i_glide_evdw>
-32.4666862487793

> <r_i_glide_ecoul>
-3.00894355773926

> <r_i_glide_erotb>
0.486607395265523

> <r_i_glide_esite>
0

> <r_i_glide_emodel>
-49.9372680485439

> <r_i_glide_energy>
-35.4756298065186

> <r_i_glide_einternal>
4.55866479873657

> <i_i_glide_confnum>
5

> <i_i_glide_posenum>
201

> <r_i_glide_eff_state_penalty>
0

> <s_user_duplicate_titles>
313647

> <s_m_subgroup_title>
dock_pv

> <s_m_subgroupid>
dock_pv1

> <b_m_subgroup_collapsed>
0

$$$$
330270
                    3D
 Schrodinger Suite 2021-1.
 29 31  0  0  1  0            999 V2000
   33.0366   -2.9336   24.9807 C   0  0  0  0  0  0
   33.3558   -3.7416   23.8963 C   0  0  0  0  0  0
   32.6998   -3.5921   22.6852 C   0  0  0  0  0  0
   31.7663   -2.5792   22.5344 C   0  0  0  0  0  0
   31.4699   -1.7420   23.6117 C   0  0  0  0  0  0
   32.0684   -1.9226   24.8672 C   0  0  0  0  0  0
   31.6669   -1.0828   26.0499 C   0  0  0  0  0  0
   30.5242   -0.2714   26.0537 C   0  0  0  0  0  0
   30.1870    0.4667   27.1861 C   0  0  0  0  0  0
   31.0038    0.3681   28.3461 C   0  0  0  0  0  0
   30.7373    1.0553   29.5612 C   0  0  0  0  0  0
   31.5519    0.8508   30.6716 C   0  0  0  0  0  0
   32.6529    0.0104   30.5988 C   0  0  0  0  0  0
   32.9664   -0.6524   29.4168 C   0  0  0  0  0  0
   32.1431   -0.4916   28.2780 C   0  0  0  0  0  0
   32.4586   -1.1838   27.1520 N   0  0  0  0  0  0
   31.2603    1.4580   31.8598 O   0  0  0  0  0  0
   28.7682    1.4580   27.1455 Cl  0  0  0  0  0  0
   32.9654   -4.4648   21.6631 O   0  0  0  0  0  0
   33.5378   -3.1223   25.9179 H   0  0  0  0  0  0
   34.0600   -4.5420   24.0185 H   0  0  0  0  0  0
   31.2598   -2.4682   21.5881 H   0  0  0  0  0  0
   30.7313   -0.9724   23.4641 H   0  0  0  0  0  0
   29.8738   -0.2048   25.1961 H   0  0  0  0  0  0
   29.8780    1.7052   29.6284 H   0  0  0  0  0  0
   33.2618   -0.1385   31.4760 H   0  0  0  0  0  0
   33.8255   -1.3076   29.3708 H   0  0  0  0  0  0
   30.4926    2.0311   31.8067 H   0  0  0  0  0  0
   32.2361   -4.6454   21.0564 H   0  0  0  0  0  0
  1  6  1  0  0  0
  1  2  2  0  0  0
  1 20  1  0  0  0
  2  3  1  0  0  0
  2 21  1  0  0  0
  3  4  2  0  0  0
  3 19  1  0  0  0
  4  5  1  0  0  0
  4 22  1  0  0  0
  5  6  2  0  0  0
  5 23  1  0  0  0
  6  7  1  0  0  0
  7 16  1  0  0  0
  7  8  2  0  0  0
  8  9  1  0  0  0
  8 24  1  0  0  0
  9 10  2  0  0  0
  9 18  1  0  0  0
 10 15  1  0  0  0
 10 11  1  0  0  0
 11 12  2  0  0  0
 11 25  1  0  0  0
 12 13  1  0  0  0
 12 17  1  0  0  0
 13 14  2  0  0  0
 13 26  1  0  0  0
 14 15  1  0  0  0
 14 27  1  0  0  0
 15 16  2  0  0  0
 17 28  1  0  0  0
 19 29  1  0  0  0
M  END
> <s_m_entry_id>
17459

> <s_m_entry_name>
ligand_docking-pose.386

> <s_m_Source_Path>
/home/csk/Desktop/cluster/DUD-E-result/esr1

> <s_m_Source_File>
ligand_docking-pose.sdf

> <i_m_Source_File_Index>
386

> <i_lp_mmshare_version>
53161

> <i_f3d_flags>
0

> <r_lp_tautomer_probability>
0.999999999997365

> <s_lp_Force_Field>
OPLS_2005

> <r_lp_Energy>
12.50208

> <b_lp_Chiralities_Consistent>
1

> <s_lp_Variant>
330270-1

> <s_i_glide_gridfile>
glide-grid_1sj0

> <i_i_glide_lignum>
323

> <i_i_glide_rotatable_bonds>
3

> <r_i_docking_score>
-8.29609574384172

> <r_i_glide_ligand_efficiency>
-0.436636618096933

> <r_i_glide_ligand_efficiency_sa>
-1.16512187047869

> <r_i_glide_ligand_efficiency_ln>
-2.10323845486257

> <r_i_glide_gscore>
-8.29609574384172

> <r_i_glide_lipo>
-4.27553648320554

> <r_i_glide_hbond>
-0.0780890877006566

> <r_i_glide_metal>
0

> <r_i_glide_rewards>
-2.23777587169975

> <r_i_glide_evdw>
-31.7953929901123

> <r_i_glide_ecoul>
-2.38349151611328

> <r_i_glide_erotb>
0.242599075686829

> <r_i_glide_esite>
0

> <r_i_glide_emodel>
-50.1682688846699

> <r_i_glide_energy>
-34.1788845062256

> <r_i_glide_einternal>
1.35092628002167

> <i_i_glide_confnum>
1

> <i_i_glide_posenum>
115

> <r_i_glide_eff_state_penalty>
0

> <s_user_duplicate_titles>
330270

> <s_m_subgroup_title>
dock_pv

> <s_m_subgroupid>
dock_pv1

> <b_m_subgroup_collapsed>
0

$$$$
351034
                    3D
 Schrodinger Suite 2021-1.
 36 38  0  0  1  0            999 V2000
   35.2213   -0.1916   29.4570 C   0  0  0  0  0  0
   34.3203    1.0036   29.1319 C   0  0  0  0  0  0
   33.2987    0.7711   27.9939 C   0  0  0  0  0  0
   32.1782   -0.3116   28.1985 C   0  0  1  0  0  0
   31.4870   -0.2052   29.5864 C   0  0  0  0  0  0
   30.7272    1.1303   29.7487 C   0  0  0  0  0  0
   29.7883    1.4226   28.5655 C   0  0  0  0  0  0
   28.8942    2.2561   28.6640 O   0  0  0  0  0  0
   30.0411    0.7196   27.3038 C   0  0  0  0  0  0
   31.1042   -0.1049   27.1164 C   0  0  0  0  0  0
   31.5218   -0.9317   25.9569 C   0  0  0  0  0  0
   31.1133   -0.9453   24.6194 C   0  0  0  0  0  0
   31.6610   -1.8725   23.7303 C   0  0  0  0  0  0
   32.5745   -2.8221   24.1819 C   0  0  0  0  0  0
   32.9512   -2.8406   25.5219 C   0  0  0  0  0  0
   32.4598   -1.8678   26.3938 C   0  0  0  0  0  0
   32.6659   -1.7333   27.8728 C   0  0  0  0  0  0
   33.0972   -3.7424   23.3152 O   0  0  0  0  0  0
   28.6479    0.9013   25.9087 Br  0  0  0  0  0  0
   35.9612    0.0789   30.2047 H   0  0  0  0  0  0
   35.7631   -0.5370   28.5766 H   0  0  0  0  0  0
   34.6519   -1.0244   29.8639 H   0  0  0  0  0  0
   33.8119    1.3318   30.0391 H   0  0  0  0  0  0
   34.9626    1.8391   28.8473 H   0  0  0  0  0  0
   32.8212    1.7365   27.8182 H   0  0  0  0  0  0
   33.8403    0.5779   27.0674 H   0  0  0  0  0  0
   30.7858   -1.0314   29.7154 H   0  0  0  0  0  0
   32.2135   -0.3240   30.3907 H   0  0  0  0  0  0
   31.4569    1.9396   29.7565 H   0  0  0  0  0  0
   30.1710    1.1904   30.6840 H   0  0  0  0  0  0
   30.3933   -0.2390   24.2408 H   0  0  0  0  0  0
   31.3595   -1.8674   22.6944 H   0  0  0  0  0  0
   33.6391   -3.5991   25.8643 H   0  0  0  0  0  0
   33.6850   -1.9337   28.1701 H   0  0  0  0  0  0
   32.0654   -2.4864   28.3808 H   0  0  0  0  0  0
   32.7098   -3.7057   22.4372 H   0  0  0  0  0  0
  1  2  1  0  0  0
  1 20  1  0  0  0
  1 21  1  0  0  0
  1 22  1  0  0  0
  2  3  1  0  0  0
  2 23  1  0  0  0
  2 24  1  0  0  0
  3  4  1  0  0  0
  3 25  1  0  0  0
  3 26  1  0  0  0
  4 10  1  0  0  0
  4 17  1  0  0  0
  4  5  1  0  0  0
  5  6  1  0  0  0
  5 27  1  0  0  0
  5 28  1  0  0  0
  6  7  1  0  0  0
  6 29  1  0  0  0
  6 30  1  0  0  0
  7  8  2  0  0  0
  7  9  1  0  0  0
  9 10  2  0  0  0
  9 19  1  0  0  0
 10 11  1  0  0  0
 11 16  1  0  0  0
 11 12  2  0  0  0
 12 13  1  0  0  0
 12 31  1  0  0  0
 13 14  2  0  0  0
 13 32  1  0  0  0
 14 15  1  0  0  0
 14 18  1  0  0  0
 15 16  2  0  0  0
 15 33  1  0  0  0
 16 17  1  0  0  0
 17 34  1  0  0  0
 17 35  1  0  0  0
 18 36  1  0  0  0
M  END
> <s_m_entry_id>
17460

> <s_m_entry_name>
ligand_docking-pose.387

> <s_m_Source_Path>
/home/csk/Desktop/cluster/DUD-E-result/esr1

> <s_m_Source_File>
ligand_docking-pose.sdf

> <i_m_Source_File_Index>
387

> <i_lp_mmshare_version>
53161

> <i_f3d_flags>
0

> <r_lp_tautomer_probability>
1

> <s_lp_Force_Field>
OPLS_2005

> <r_lp_Energy>
22.140021

> <b_lp_Chiralities_Consistent>
1

> <s_lp_Variant>
351034-2

> <s_i_glide_gridfile>
glide-grid_1sj0

> <i_i_glide_lignum>
1226

> <i_i_glide_rotatable_bonds>
3

> <r_i_docking_score>
-8.29416129041278

> <r_i_glide_ligand_efficiency>
-0.436534804758567

> <r_i_glide_ligand_efficiency_sa>
-1.164850191599

> <r_i_glide_ligand_efficiency_ln>
-2.10274802937008

> <r_i_glide_gscore>
-8.29416129041278

> <r_i_glide_lipo>
-4.26202503395731

> <r_i_glide_hbond>
0

> <r_i_glide_metal>
0

> <r_i_glide_rewards>
-2.56902968181818

> <r_i_glide_evdw>
-31.9200859069824

> <r_i_glide_ecoul>
-0.321243822574615

> <r_i_glide_erotb>
0.181084294098027

> <r_i_glide_esite>
0

> <r_i_glide_emodel>
-47.9785866332644

> <r_i_glide_energy>
-32.241329729557

> <r_i_glide_einternal>
0.869734764099121

> <i_i_glide_confnum>
2

> <i_i_glide_posenum>
236

> <r_i_glide_eff_state_penalty>
0

> <s_user_duplicate_titles>
351034

> <s_m_subgroup_title>
dock_pv

> <s_m_subgroupid>
dock_pv1

> <b_m_subgroup_collapsed>
0

$$$$
312905
                    3D
 Schrodinger Suite 2021-1.
 44 46  0  0  1  0            999 V2000
   26.9252   -3.2392   27.8964 C   0  0  0  0  0  0
   26.1518   -1.9145   27.7795 C   0  0  0  0  0  0
   26.7077   -0.9139   26.7503 C   0  0  0  0  0  0
   28.0987   -0.3625   27.0717 C   0  0  0  0  0  0
   29.2172   -1.1473   26.7873 C   0  0  0  0  0  0
   30.5043   -0.6830   27.0764 C   0  0  0  0  0  0
   30.6927    0.5695   27.6857 C   0  0  0  0  0  0
   29.5738    1.3603   27.9453 C   0  0  0  0  0  0
   28.2964    0.9136   27.6231 C   0  0  0  0  0  0
   27.2599    1.7672   27.8548 O   0  0  0  0  0  0
   32.0785    1.1203   28.0287 C   0  0  0  0  0  0
   32.6133    0.6959   29.4154 C   0  0  0  0  0  0
   31.7702    1.1771   30.6058 C   0  0  0  0  0  0
   31.6078   -1.5723   26.6692 C   0  0  0  0  0  0
   31.9370   -1.9498   25.3355 C   0  0  0  0  0  0
   31.4897   -1.6729   24.0346 C   0  0  0  0  0  0
   32.1145   -2.3261   22.9680 C   0  0  0  0  0  0
   33.1812   -3.2021   23.1744 C   0  0  0  0  0  0
   33.6554   -3.4586   24.4587 C   0  0  0  0  0  0
   32.9977   -2.8372   25.5153 C   0  0  0  0  0  0
   33.2598   -2.9851   26.8412 O   0  0  0  0  0  0
   32.3956   -2.1472   27.5500 N   0  0  0  0  0  0
   33.7648   -3.8280   22.1087 O   0  0  0  0  0  0
   26.4109   -3.9281   28.5662 H   0  0  0  0  0  0
   27.9291   -3.0900   28.2938 H   0  0  0  0  0  0
   27.0135   -3.7329   26.9271 H   0  0  0  0  0  0
   25.1381   -2.1620   27.4682 H   0  0  0  0  0  0
   26.0618   -1.4329   28.7532 H   0  0  0  0  0  0
   26.7294   -1.3818   25.7648 H   0  0  0  0  0  0
   25.9932   -0.0968   26.6641 H   0  0  0  0  0  0
   29.0882   -2.1357   26.3509 H   0  0  0  0  0  0
   29.6967    2.3389   28.3877 H   0  0  0  0  0  0
   26.4149    1.4318   27.5451 H   0  0  0  0  0  0
   32.7851    0.8137   27.2565 H   0  0  0  0  0  0
   32.0599    2.2099   27.9697 H   0  0  0  0  0  0
   32.7103   -0.3884   29.4716 H   0  0  0  0  0  0
   33.6267    1.0846   29.5289 H   0  0  0  0  0  0
   32.2402    0.9041   31.5514 H   0  0  0  0  0  0
   31.6597    2.2579   30.5947 H   0  0  0  0  0  0
   30.7723    0.7361   30.5970 H   0  0  0  0  0  0
   30.6674   -0.9921   23.8626 H   0  0  0  0  0  0
   31.7626   -2.1422   21.9634 H   0  0  0  0  0  0
   34.4600   -4.1421   24.6432 H   0  0  0  0  0  0
   33.2462   -3.7718   21.3027 H   0  0  0  0  0  0
  1  2  1  0  0  0
  1 24  1  0  0  0
  1 25  1  0  0  0
  1 26  1  0  0  0
  2  3  1  0  0  0
  2 27  1  0  0  0
  2 28  1  0  0  0
  3  4  1  0  0  0
  3 29  1  0  0  0
  3 30  1  0  0  0
  4  9  1  0  0  0
  4  5  2  0  0  0
  5  6  1  0  0  0
  5 31  1  0  0  0
  6  7  2  0  0  0
  6 14  1  0  0  0
  7  8  1  0  0  0
  7 11  1  0  0  0
  8  9  2  0  0  0
  8 32  1  0  0  0
  9 10  1  0  0  0
 10 33  1  0  0  0
 11 12  1  0  0  0
 11 34  1  0  0  0
 11 35  1  0  0  0
 12 13  1  0  0  0
 12 36  1  0  0  0
 12 37  1  0  0  0
 13 38  1  0  0  0
 13 39  1  0  0  0
 13 40  1  0  0  0
 14 22  2  0  0  0
 14 15  1  0  0  0
 15 20  2  0  0  0
 15 16  1  0  0  0
 16 17  2  0  0  0
 16 41  1  0  0  0
 17 18  1  0  0  0
 17 42  1  0  0  0
 18 19  2  0  0  0
 18 23  1  0  0  0
 19 20  1  0  0  0
 19 43  1  0  0  0
 20 21  1  0  0  0
 21 22  1  0  0  0
 23 44  1  0  0  0
M  END
> <s_m_entry_id>
17461

> <s_m_entry_name>
ligand_docking-pose.388

> <s_m_Source_Path>
/home/csk/Desktop/cluster/DUD-E-result/esr1

> <s_m_Source_File>
ligand_docking-pose.sdf

> <i_m_Source_File_Index>
388

> <i_lp_mmshare_version>
53161

> <i_f3d_flags>
0

> <r_lp_tautomer_probability>
0.999999999997365

> <s_lp_Force_Field>
OPLS_2005

> <r_lp_Energy>
24.83616

> <b_lp_Chiralities_Consistent>
1

> <s_lp_Variant>
312905-1

> <s_i_glide_gridfile>
glide-grid_1sj0

> <i_i_glide_lignum>
1284

> <i_i_glide_rotatable_bonds>
7

> <r_i_docking_score>
-8.2879822042964

> <r_i_glide_ligand_efficiency>
-0.360347052360713

> <r_i_glide_ligand_efficiency_sa>
-1.02477908242441

> <r_i_glide_ligand_efficiency_ln>
-2.00410924826654

> <r_i_glide_gscore>
-8.2879822042964

> <r_i_glide_lipo>
-4.41971881504867

> <r_i_glide_hbond>
0

> <r_i_glide_metal>
0

> <r_i_glide_rewards>
-2.05153640454339

> <r_i_glide_evdw>
-40.4716453552246

> <r_i_glide_ecoul>
-2.44634485244751

> <r_i_glide_erotb>
0.573807010924029

> <r_i_glide_esite>
0

> <r_i_glide_emodel>
-62.357899249813

> <r_i_glide_energy>
-42.9179902076721

> <r_i_glide_einternal>
2.45784759521484

> <i_i_glide_confnum>
13

> <i_i_glide_posenum>
277

> <r_i_glide_eff_state_penalty>
0

> <s_user_duplicate_titles>
312905

> <s_m_subgroup_title>
dock_pv

> <s_m_subgroupid>
dock_pv1

> <b_m_subgroup_collapsed>
0

$$$$
223042
                    3D
 Schrodinger Suite 2021-1.
 31 32  0  0  1  0            999 V2000
   31.5193   -1.0109   24.8454 C   0  0  0  0  0  0
   31.7836   -1.9103   23.8168 C   0  0  0  0  0  0
   32.5783   -3.0261   24.0627 C   0  0  0  0  0  0
   33.0909   -3.2633   25.3343 C   0  0  0  0  0  0
   32.8349   -2.3624   26.3638 C   0  0  0  0  0  0
   32.0611   -1.2254   26.1145 C   0  0  0  0  0  0
   31.8507   -0.1983   27.2169 C   0  0  0  0  0  0
   30.8958   -0.6373   28.3476 C   0  0  1  0  0  0
   30.9919    0.3101   29.4759 C   0  0  0  0  0  0
   31.0709    1.0569   30.3574 N   0  0  0  0  0  0
   29.4493   -0.8265   27.8771 C   0  0  0  0  0  0
   29.0054   -2.0909   27.4683 C   0  0  0  0  0  0
   27.6824   -2.2706   27.0641 C   0  0  0  0  0  0
   26.8061   -1.1873   27.0639 C   0  0  0  0  0  0
   27.2423    0.0722   27.4639 C   0  0  0  0  0  0
   28.5622    0.2556   27.8630 C   0  0  0  0  0  0
   25.5063   -1.3420   26.6637 O   0  0  0  0  0  0
   32.8596   -3.9058   23.0524 O   0  0  0  0  0  0
   30.9079   -0.1422   24.6531 H   0  0  0  0  0  0
   31.3767   -1.7420   22.8333 H   0  0  0  0  0  0
   33.6917   -4.1417   25.5131 H   0  0  0  0  0  0
   33.2564   -2.5376   27.3434 H   0  0  0  0  0  0
   31.5099    0.7472   26.7893 H   0  0  0  0  0  0
   32.8298    0.0358   27.6385 H   0  0  0  0  0  0
   31.2474   -1.5841   28.7606 H   0  0  0  0  0  0
   29.6837   -2.9330   27.4614 H   0  0  0  0  0  0
   27.3455   -3.2467   26.7440 H   0  0  0  0  0  0
   26.5536    0.9051   27.4635 H   0  0  0  0  0  0
   28.8854    1.2401   28.1702 H   0  0  0  0  0  0
   25.2863   -2.2149   26.2807 H   0  0  0  0  0  0
   32.4077   -3.7185   22.2268 H   0  0  0  0  0  0
  1  6  1  0  0  0
  1  2  2  0  0  0
  1 19  1  0  0  0
  2  3  1  0  0  0
  2 20  1  0  0  0
  3  4  2  0  0  0
  3 18  1  0  0  0
  4  5  1  0  0  0
  4 21  1  0  0  0
  5  6  2  0  0  0
  5 22  1  0  0  0
  6  7  1  0  0  0
  7  8  1  0  0  0
  7 23  1  0  0  0
  7 24  1  0  0  0
  8  9  1  0  0  0
  8 11  1  0  0  0
  8 25  1  0  0  0
  9 10  3  0  0  0
 11 16  1  0  0  0
 11 12  2  0  0  0
 12 13  1  0  0  0
 12 26  1  0  0  0
 13 14  2  0  0  0
 13 27  1  0  0  0
 14 15  1  0  0  0
 14 17  1  0  0  0
 15 16  2  0  0  0
 15 28  1  0  0  0
 16 29  1  0  0  0
 17 30  1  0  0  0
 18 31  1  0  0  0
M  END
> <s_m_entry_id>
17462

> <s_m_entry_name>
ligand_docking-pose.389

> <s_m_Source_Path>
/home/csk/Desktop/cluster/DUD-E-result/esr1

> <s_m_Source_File>
ligand_docking-pose.sdf

> <i_m_Source_File_Index>
389

> <i_lp_mmshare_version>
53161

> <i_f3d_flags>
0

> <r_lp_tautomer_probability>
0.99999999999473

> <s_lp_Force_Field>
OPLS_2005

> <r_lp_Energy>
10.331148

> <b_lp_Chiralities_Consistent>
1

> <s_lp_Variant>
223042-2

> <s_i_glide_gridfile>
glide-grid_1sj0

> <i_i_glide_lignum>
431

> <i_i_glide_rotatable_bonds>
5

> <r_i_docking_score>
-8.28087133045325

> <r_i_glide_ligand_efficiency>
-0.460048407247403

> <r_i_glide_ligand_efficiency_sa>
-1.20566790305153

> <r_i_glide_ligand_efficiency_ln>
-2.12855527589255

> <r_i_glide_gscore>
-8.28087133045325

> <r_i_glide_lipo>
-3.5368886723388

> <r_i_glide_hbond>
-0.16

> <r_i_glide_metal>
0

> <r_i_glide_rewards>
-2.75247473685164

> <r_i_glide_evdw>
-31.4889888763428

> <r_i_glide_ecoul>
-5.93907451629639

> <r_i_glide_erotb>
0.633802699998799

> <r_i_glide_esite>
0

> <r_i_glide_emodel>
-56.9562582444903

> <r_i_glide_energy>
-37.4280633926392

> <r_i_glide_einternal>
1.4927145242691

> <i_i_glide_confnum>
11

> <i_i_glide_posenum>
305

> <r_i_glide_eff_state_penalty>
0

> <s_user_duplicate_titles>
223042

> <s_m_subgroup_title>
dock_pv

> <s_m_subgroupid>
dock_pv1

> <b_m_subgroup_collapsed>
0

$$$$
319295
                    3D
 Schrodinger Suite 2021-1.
 35 37  0  0  1  0            999 V2000
   27.0584   -0.9035   27.3640 C   0  0  0  0  0  0
   27.9819   -1.4565   26.2711 C   0  0  0  0  0  0
   29.1717   -0.2912   25.5266 S   0  0  0  0  0  0
   30.5640   -0.4295   26.6002 C   0  0  0  0  0  0
   31.7334   -1.0866   26.4271 C   0  0  0  0  0  0
   32.5432   -0.9109   27.6407 C   0  0  0  0  0  0
   33.6600   -1.3420   27.8640 O   0  0  0  0  0  0
   31.7364   -0.1205   28.5438 C   0  0  0  0  0  0
   30.5691    0.2173   27.8954 C   0  0  0  0  0  0
   29.6438    1.0439   28.5145 C   0  0  0  0  0  0
   29.8870    1.4580   29.8152 C   0  0  0  0  0  0
   31.0478    1.0730   30.4948 C   0  0  0  0  0  0
   31.9986    0.2938   29.8475 C   0  0  0  0  0  0
   31.2600    1.4580   31.7878 O   0  0  0  0  0  0
   32.1793   -1.8479   25.2153 C   0  0  0  0  0  0
   31.7205   -1.5222   23.9281 C   0  0  0  0  0  0
   32.0600   -2.3013   22.8237 C   0  0  0  0  0  0
   32.9201   -3.3747   22.9743 C   0  0  0  0  0  0
   33.4218   -3.6857   24.2263 C   0  0  0  0  0  0
   33.0344   -2.9513   25.3422 C   0  0  0  0  0  0
   33.2656   -4.1420   21.8966 O   0  0  0  0  0  0
   26.2695   -1.6203   27.5946 H   0  0  0  0  0  0
   27.6005   -0.7179   28.2893 H   0  0  0  0  0  0
   26.5785    0.0254   27.0545 H   0  0  0  0  0  0
   27.3612   -1.8459   25.4640 H   0  0  0  0  0  0
   28.5292   -2.3149   26.6640 H   0  0  0  0  0  0
   28.7357    1.3483   28.0154 H   0  0  0  0  0  0
   29.1310    2.0679   30.2640 H   0  0  0  0  0  0
   32.9087    0.0153   30.3606 H   0  0  0  0  0  0
   30.5576    2.0171   32.1259 H   0  0  0  0  0  0
   31.0878   -0.6670   23.7608 H   0  0  0  0  0  0
   31.6600   -2.0815   21.8477 H   0  0  0  0  0  0
   34.0600   -4.5420   24.3310 H   0  0  0  0  0  0
   33.3960   -3.2684   26.3080 H   0  0  0  0  0  0
   32.6672   -4.0675   21.1478 H   0  0  0  0  0  0
  1  2  1  0  0  0
  1 22  1  0  0  0
  1 23  1  0  0  0
  1 24  1  0  0  0
  2  3  1  0  0  0
  2 25  1  0  0  0
  2 26  1  0  0  0
  3  4  1  0  0  0
  4  9  1  0  0  0
  4  5  2  0  0  0
  5  6  1  0  0  0
  5 15  1  0  0  0
  6  7  2  0  0  0
  6  8  1  0  0  0
  8 13  2  0  0  0
  8  9  1  0  0  0
  9 10  2  0  0  0
 10 11  1  0  0  0
 10 27  1  0  0  0
 11 12  2  0  0  0
 11 28  1  0  0  0
 12 13  1  0  0  0
 12 14  1  0  0  0
 13 29  1  0  0  0
 14 30  1  0  0  0
 15 20  1  0  0  0
 15 16  2  0  0  0
 16 17  1  0  0  0
 16 31  1  0  0  0
 17 18  2  0  0  0
 17 32  1  0  0  0
 18 19  1  0  0  0
 18 21  1  0  0  0
 19 20  2  0  0  0
 19 33  1  0  0  0
 20 34  1  0  0  0
 21 35  1  0  0  0
M  END
> <s_m_entry_id>
17463

> <s_m_entry_name>
ligand_docking-pose.390

> <s_m_Source_Path>
/home/csk/Desktop/cluster/DUD-E-result/esr1

> <s_m_Source_File>
ligand_docking-pose.sdf

> <i_m_Source_File_Index>
390

> <i_lp_mmshare_version>
53161

> <i_f3d_flags>
0

> <r_lp_tautomer_probability>
1

> <s_lp_Force_Field>
OPLS_2005

> <r_lp_Energy>
26.658209

> <b_lp_Chiralities_Consistent>
1

> <s_lp_Variant>
319295-1

> <s_i_glide_gridfile>
glide-grid_1sj0

> <i_i_glide_lignum>
1666

> <i_i_glide_rotatable_bonds>
5

> <r_i_docking_score>
-8.27930512899455

> <r_i_glide_ligand_efficiency>
-0.394252625190217

> <r_i_glide_ligand_efficiency_sa>
-1.08771309813516

> <r_i_glide_ligand_efficiency_ln>
-2.04704146323263

> <r_i_glide_gscore>
-8.27930512899455

> <r_i_glide_lipo>
-4.45650453830977

> <r_i_glide_hbond>
0

> <r_i_glide_metal>
0

> <r_i_glide_rewards>
-2.59663227853551

> <r_i_glide_evdw>
-28.7295627593994

> <r_i_glide_ecoul>
-1.34643280506134

> <r_i_glide_erotb>
0.412274746579904

> <r_i_glide_esite>
0

> <r_i_glide_emodel>
-40.3718878267615

> <r_i_glide_energy>
-30.0759955644608

> <r_i_glide_einternal>
3.05875563621521

> <i_i_glide_confnum>
13

> <i_i_glide_posenum>
106

> <r_i_glide_eff_state_penalty>
0

> <s_user_duplicate_titles>
319295

> <s_m_subgroup_title>
dock_pv

> <s_m_subgroupid>
dock_pv1

> <b_m_subgroup_collapsed>
0

$$$$
339242
                    3D
 Schrodinger Suite 2021-1.
 37 38  0  0  1  0            999 V2000
   34.8608    2.2468   27.7367 C   0  0  0  0  0  0
   33.9748    1.0294   28.0177 C   0  0  0  0  0  0
   32.7267    0.9951   27.1227 C   0  0  0  0  0  0
   31.9210   -0.2099   27.3043 N   0  0  0  0  0  0
   32.0316   -1.2170   26.3310 C   0  0  0  0  0  0
   31.5739   -0.9425   25.0370 C   0  0  0  0  0  0
   31.7896   -1.8448   23.9986 C   0  0  0  0  0  0
   32.4594   -3.0390   24.2438 C   0  0  0  0  0  0
   32.8851   -3.3399   25.5351 C   0  0  0  0  0  0
   32.6752   -2.4414   26.5803 C   0  0  0  0  0  0
   33.2600   -2.8802   28.1450 Cl  0  0  0  0  0  0
   30.7657   -0.2665   28.6628 S   0  0  0  0  0  0
   30.8038    1.0400   29.3336 O   0  0  0  0  0  0
   31.0117   -1.4940   29.4226 O   0  0  0  0  0  0
   29.1458   -0.4559   27.9362 C   0  0  0  0  0  0
   28.2959    0.6462   27.8639 C   0  0  0  0  0  0
   26.9789    0.4668   27.4638 C   0  0  0  0  0  0
   26.5390   -0.7917   27.0637 C   0  0  0  0  0  0
   27.4043   -1.8837   27.0718 C   0  0  0  0  0  0
   28.7131   -1.7185   27.5200 C   0  0  0  0  0  0
   25.2485   -0.9420   26.6382 O   0  0  0  0  0  0
   35.7114    2.2726   28.4167 H   0  0  0  0  0  0
   35.2526    2.2313   26.7191 H   0  0  0  0  0  0
   34.3029    3.1734   27.8641 H   0  0  0  0  0  0
   33.6745    1.0266   29.0667 H   0  0  0  0  0  0
   34.5572    0.1168   27.8796 H   0  0  0  0  0  0
   33.0619    1.0877   26.0877 H   0  0  0  0  0  0
   32.1352    1.8962   27.2860 H   0  0  0  0  0  0
   31.0676   -0.0137   24.8284 H   0  0  0  0  0  0
   31.4439   -1.6191   23.0034 H   0  0  0  0  0  0
   32.6318   -3.7393   23.4384 H   0  0  0  0  0  0
   33.3968   -4.2692   25.7274 H   0  0  0  0  0  0
   28.6248    1.6238   28.1861 H   0  0  0  0  0  0
   26.3018    1.3069   27.4623 H   0  0  0  0  0  0
   27.0606   -2.8574   26.7514 H   0  0  0  0  0  0
   29.3764   -2.5716   27.5671 H   0  0  0  0  0  0
   25.0757   -1.8234   26.2642 H   0  0  0  0  0  0
  1  2  1  0  0  0
  1 22  1  0  0  0
  1 23  1  0  0  0
  1 24  1  0  0  0
  2  3  1  0  0  0
  2 25  1  0  0  0
  2 26  1  0  0  0
  3  4  1  0  0  0
  3 27  1  0  0  0
  3 28  1  0  0  0
  4  5  1  0  0  0
  4 12  1  0  0  0
  5 10  1  0  0  0
  5  6  2  0  0  0
  6  7  1  0  0  0
  6 29  1  0  0  0
  7  8  2  0  0  0
  7 30  1  0  0  0
  8  9  1  0  0  0
  8 31  1  0  0  0
  9 10  2  0  0  0
  9 32  1  0  0  0
 10 11  1  0  0  0
 12 13  2  0  0  0
 12 14  2  0  0  0
 12 15  1  0  0  0
 15 20  1  0  0  0
 15 16  2  0  0  0
 16 17  1  0  0  0
 16 33  1  0  0  0
 17 18  2  0  0  0
 17 34  1  0  0  0
 18 19  1  0  0  0
 18 21  1  0  0  0
 19 20  2  0  0  0
 19 35  1  0  0  0
 20 36  1  0  0  0
 21 37  1  0  0  0
M  END
> <s_m_entry_id>
17464

> <s_m_entry_name>
ligand_docking-pose.391

> <s_m_Source_Path>
/home/csk/Desktop/cluster/DUD-E-result/esr1

> <s_m_Source_File>
ligand_docking-pose.sdf

> <i_m_Source_File_Index>
391

> <i_lp_mmshare_version>
53161

> <i_f3d_flags>
0

> <r_lp_tautomer_probability>
0.999999999997365

> <s_lp_Force_Field>
OPLS_2005

> <r_lp_Energy>
9.745661

> <b_lp_Chiralities_Consistent>
1

> <s_lp_Variant>
339242-1

> <s_i_glide_gridfile>
glide-grid_1sj0

> <i_i_glide_lignum>
1537

> <i_i_glide_rotatable_bonds>
6

> <r_i_docking_score>
-8.27742261933404

> <r_i_glide_ligand_efficiency>
-0.39416298187305

> <r_i_glide_ligand_efficiency_sa>
-1.08746577902043

> <r_i_glide_ligand_efficiency_ln>
-2.04657601652304

> <r_i_glide_gscore>
-8.27742261933404

> <r_i_glide_lipo>
-3.92534761745455

> <r_i_glide_hbond>
-0.169904798267083

> <r_i_glide_metal>
0

> <r_i_glide_rewards>
-2.03218441865952

> <r_i_glide_evdw>
-40.2497406005859

> <r_i_glide_ecoul>
-4.21313428878784

> <r_i_glide_erotb>
0.494471388394591

> <r_i_glide_esite>
0

> <r_i_glide_emodel>
-65.1728229849333

> <r_i_glide_energy>
-44.4628748893738

> <r_i_glide_einternal>
4.38888216018677

> <i_i_glide_confnum>
17

> <i_i_glide_posenum>
398

> <r_i_glide_eff_state_penalty>
0

> <s_user_duplicate_titles>
339242

> <s_m_subgroup_title>
dock_pv

> <s_m_subgroupid>
dock_pv1

> <b_m_subgroup_collapsed>
0

$$$$
301039
                    3D
 Schrodinger Suite 2021-1.
 42 44  0  0  1  0            999 V2000
   29.6648   -2.6778   27.4320 C   0  0  0  0  0  0
   30.4021   -1.4438   27.9151 C   0  0  0  0  0  0
   30.8598   -1.3415   29.1799 C   0  0  0  0  0  0
   31.5217   -0.1051   29.7755 C   0  0  0  0  0  0
   31.7196    1.0538   28.7380 C   0  0  2  0  0  0
   30.5144    1.0331   27.7553 C   0  0  0  0  0  0
   30.5614   -0.2774   26.9376 C   0  0  1  0  0  0
   31.9079   -0.3113   26.1656 C   0  0  1  0  0  0
   33.0093   -0.1933   27.0731 O   0  0  0  0  0  0
   33.0844    0.9481   27.9295 C   0  0  0  0  0  0
   34.3062    0.6491   28.8337 C   0  0  0  0  0  0
   33.3767    2.1977   27.0514 C   0  0  0  0  0  0
   32.1149   -1.4795   25.1951 C   0  0  0  0  0  0
   31.6593   -1.3415   23.8769 C   0  0  0  0  0  0
   32.0310   -2.2533   22.8915 C   0  0  0  0  0  0
   32.8847   -3.2965   23.2043 C   0  0  0  0  0  0
   33.2863   -3.4834   24.5198 C   0  0  0  0  0  0
   32.8598   -2.6250   25.5301 C   0  0  0  0  0  0
   33.2570   -3.0440   27.1616 Cl  0  0  0  0  0  0
   33.3151   -4.1420   22.2244 O   0  0  0  0  0  0
   31.6599    2.2580   29.4635 O   0  0  0  0  0  0
   29.7319   -0.2782   26.2290 H   0  0  0  0  0  0
   31.9503    0.5658   25.5201 H   0  0  0  0  0  0
   30.2463   -3.1839   26.6639 H   0  0  0  0  0  0
   29.4914   -3.3903   28.2385 H   0  0  0  0  0  0
   28.6936   -2.4078   27.0167 H   0  0  0  0  0  0
   30.7084   -2.1688   29.8481 H   0  0  0  0  0  0
   30.8599    0.2256   30.5763 H   0  0  0  0  0  0
   32.4366   -0.3850   30.2914 H   0  0  0  0  0  0
   30.5215    1.8878   27.0841 H   0  0  0  0  0  0
   29.5717    1.1073   28.3022 H   0  0  0  0  0  0
   34.3635    1.3324   29.6811 H   0  0  0  0  0  0
   34.3026   -0.3711   29.2175 H   0  0  0  0  0  0
   35.2391    0.7455   28.2764 H   0  0  0  0  0  0
   33.5502    3.0852   27.6569 H   0  0  0  0  0  0
   34.2736    2.0431   26.4498 H   0  0  0  0  0  0
   32.5812    2.4374   26.3544 H   0  0  0  0  0  0
   31.0393   -0.5059   23.5997 H   0  0  0  0  0  0
   31.6809   -2.1402   21.8766 H   0  0  0  0  0  0
   33.9154   -4.3240   24.7561 H   0  0  0  0  0  0
   32.8109   -4.0843   21.4078 H   0  0  0  0  0  0
   32.3626    2.2525   30.1177 H   0  0  0  0  0  0
  1  2  1  0  0  0
  1 24  1  0  0  0
  1 25  1  0  0  0
  1 26  1  0  0  0
  2  7  1  0  0  0
  2  3  2  0  0  0
  3  4  1  0  0  0
  3 27  1  0  0  0
  4  5  1  0  0  0
  4 28  1  0  0  0
  4 29  1  0  0  0
  5 10  1  0  0  0
  5  6  1  0  0  0
  5 21  1  0  0  0
  6  7  1  0  0  0
  6 30  1  0  0  0
  6 31  1  0  0  0
  7 22  1  0  0  0
  7  8  1  0  0  0
  8 23  1  0  0  0
  8  9  1  0  0  0
  8 13  1  0  0  0
  9 10  1  0  0  0
 10 11  1  0  0  0
 10 12  1  0  0  0
 11 32  1  0  0  0
 11 33  1  0  0  0
 11 34  1  0  0  0
 12 35  1  0  0  0
 12 36  1  0  0  0
 12 37  1  0  0  0
 13 18  1  0  0  0
 13 14  2  0  0  0
 14 15  1  0  0  0
 14 38  1  0  0  0
 15 16  2  0  0  0
 15 39  1  0  0  0
 16 17  1  0  0  0
 16 20  1  0  0  0
 17 18  2  0  0  0
 17 40  1  0  0  0
 18 19  1  0  0  0
 20 41  1  0  0  0
 21 42  1  0  0  0
M  END
> <s_m_entry_id>
17465

> <s_m_entry_name>
ligand_docking-pose.392

> <s_m_Source_Path>
/home/csk/Desktop/cluster/DUD-E-result/esr1

> <s_m_Source_File>
ligand_docking-pose.sdf

> <i_m_Source_File_Index>
392

> <i_lp_mmshare_version>
53161

> <i_f3d_flags>
0

> <r_lp_tautomer_probability>
0.999999999997365

> <s_lp_Force_Field>
OPLS_2005

> <r_lp_Energy>
29.0632

> <b_lp_Chiralities_Consistent>
1

> <s_lp_Variant>
301039-1

> <s_i_glide_gridfile>
glide-grid_1sj0

> <i_i_glide_lignum>
935

> <i_i_glide_rotatable_bonds>
3

> <r_i_docking_score>
-8.27110168874843

> <r_i_glide_ligand_efficiency>
-0.393861985178496

> <r_i_glide_ligand_efficiency_sa>
-1.08663535196365

> <r_i_glide_ligand_efficiency_ln>
-2.04501317920839

> <r_i_glide_gscore>
-8.27110168874843

> <r_i_glide_lipo>
-4.62138976145882

> <r_i_glide_hbond>
0

> <r_i_glide_metal>
0

> <r_i_glide_rewards>
-2.17581484080484

> <r_i_glide_evdw>
-28.9021739959717

> <r_i_glide_ecoul>
-1.48578405380249

> <r_i_glide_erotb>
0.194079221384191

> <r_i_glide_esite>
0

> <r_i_glide_emodel>
-41.3085249990862

> <r_i_glide_energy>
-30.3879580497742

> <r_i_glide_einternal>
3.48628735542297

> <i_i_glide_confnum>
3

> <i_i_glide_posenum>
71

> <r_i_glide_eff_state_penalty>
0

> <s_user_duplicate_titles>
301039

> <s_m_subgroup_title>
dock_pv

> <s_m_subgroupid>
dock_pv1

> <b_m_subgroup_collapsed>
0

$$$$
341305
                    3D
 Schrodinger Suite 2021-1.
 38 40  0  0  1  0            999 V2000
   34.0743   -1.3637   29.3045 C   0  0  0  0  0  0
   32.7000   -0.7545   29.2272 C   0  0  0  0  0  0
   32.3088   -0.0020   30.3172 C   0  0  0  0  0  0
   31.1829    0.7865   30.2421 C   0  0  0  0  0  0
   30.4484    0.8758   29.0456 C   0  0  0  0  0  0
   30.8007    0.0645   27.9455 C   0  0  0  0  0  0
   31.9037   -0.8011   28.0646 C   0  0  0  0  0  0
   32.2048   -1.6748   26.8892 C   0  0  0  0  0  0
   32.8600   -2.9015   26.9977 C   0  0  0  0  0  0
   33.2017   -3.6168   25.8640 C   0  0  0  0  0  0
   32.8735   -3.1583   24.5999 C   0  0  0  0  0  0
   32.1168   -1.9946   24.4689 C   0  0  0  0  0  0
   31.7645   -1.2682   25.6206 C   0  0  0  0  0  0
   30.9759   -0.1420   25.4871 O   0  0  0  0  0  0
   30.0742    0.0963   26.5847 C   0  0  1  0  0  0
   28.8868   -0.8859   26.5308 C   0  0  0  0  0  0
   31.7091   -1.5547   23.0817 C   0  0  0  0  0  0
   33.2799   -3.8793   23.5064 O   0  0  0  0  0  0
   29.2751    1.8406   28.9183 C   0  0  0  0  0  0
   30.8600    1.4580   31.3829 O   0  0  0  0  0  0
   34.4600   -1.3420   28.2992 H   0  0  0  0  0  0
   34.0643   -2.3721   29.7181 H   0  0  0  0  0  0
   34.7673   -0.7386   29.8640 H   0  0  0  0  0  0
   32.9060    0.0038   31.2184 H   0  0  0  0  0  0
   33.1310   -3.3145   27.9551 H   0  0  0  0  0  0
   33.7168   -4.5420   25.9858 H   0  0  0  0  0  0
   29.6856    1.0990   26.4072 H   0  0  0  0  0  0
   28.1502   -0.6732   27.3049 H   0  0  0  0  0  0
   28.3807   -0.8231   25.5680 H   0  0  0  0  0  0
   29.2120   -1.9182   26.6640 H   0  0  0  0  0  0
   32.5205   -1.7420   22.3771 H   0  0  0  0  0  0
   30.8600   -2.1420   22.7393 H   0  0  0  0  0  0
   31.4914   -0.4922   23.0640 H   0  0  0  0  0  0
   33.7321   -4.6915   23.7472 H   0  0  0  0  0  0
   28.4109    1.3421   28.4823 H   0  0  0  0  0  0
   28.9463    2.2578   29.8640 H   0  0  0  0  0  0
   29.5531    2.6580   28.2552 H   0  0  0  0  0  0
   30.1191    2.0550   31.2664 H   0  0  0  0  0  0
  1  2  1  0  0  0
  1 21  1  0  0  0
  1 22  1  0  0  0
  1 23  1  0  0  0
  2  7  1  0  0  0
  2  3  2  0  0  0
  3  4  1  0  0  0
  3 24  1  0  0  0
  4  5  2  0  0  0
  4 20  1  0  0  0
  5  6  1  0  0  0
  5 19  1  0  0  0
  6 15  1  0  0  0
  6  7  2  0  0  0
  7  8  1  0  0  0
  8 13  2  0  0  0
  8  9  1  0  0  0
  9 10  2  0  0  0
  9 25  1  0  0  0
 10 11  1  0  0  0
 10 26  1  0  0  0
 11 12  2  0  0  0
 11 18  1  0  0  0
 12 13  1  0  0  0
 12 17  1  0  0  0
 13 14  1  0  0  0
 14 15  1  0  0  0
 15 16  1  0  0  0
 15 27  1  0  0  0
 16 28  1  0  0  0
 16 29  1  0  0  0
 16 30  1  0  0  0
 17 31  1  0  0  0
 17 32  1  0  0  0
 17 33  1  0  0  0
 18 34  1  0  0  0
 19 35  1  0  0  0
 19 36  1  0  0  0
 19 37  1  0  0  0
 20 38  1  0  0  0
M  END
> <s_m_entry_id>
17466

> <s_m_entry_name>
ligand_docking-pose.393

> <s_m_Source_Path>
/home/csk/Desktop/cluster/DUD-E-result/esr1

> <s_m_Source_File>
ligand_docking-pose.sdf

> <i_m_Source_File_Index>
393

> <i_lp_mmshare_version>
53161

> <i_f3d_flags>
0

> <r_lp_tautomer_probability>
0.999999999938865

> <s_lp_Force_Field>
OPLS_2005

> <r_lp_Energy>
23.183234

> <b_lp_Chiralities_Consistent>
1

> <s_lp_Variant>
341305-1

> <s_i_glide_gridfile>
glide-grid_1sj0

> <i_i_glide_lignum>
953

> <i_i_glide_rotatable_bonds>
2

> <r_i_docking_score>
-8.27064553528626

> <r_i_glide_ligand_efficiency>
-0.413532276764313

> <r_i_glide_ligand_efficiency_sa>
-1.12249929595875

> <r_i_glide_ligand_efficiency_ln>
-2.06986979333577

> <r_i_glide_gscore>
-8.27064553528626

> <r_i_glide_lipo>
-4.42881425512211

> <r_i_glide_hbond>
0

> <r_i_glide_metal>
0

> <r_i_glide_rewards>
-2.46597940909091

> <r_i_glide_evdw>
-26.0501842498779

> <r_i_glide_ecoul>
-0.488951057195663

> <r_i_glide_erotb>
0

> <r_i_glide_esite>
0

> <r_i_glide_emodel>
-40.0108874433905

> <r_i_glide_energy>
-26.5391353070736

> <r_i_glide_einternal>
0.267089277505875

> <i_i_glide_confnum>
1

> <i_i_glide_posenum>
14

> <r_i_glide_eff_state_penalty>
0

> <s_user_duplicate_titles>
341305

> <s_m_subgroup_title>
dock_pv

> <s_m_subgroupid>
dock_pv1

> <b_m_subgroup_collapsed>
0

$$$$
357064
                    3D
 Schrodinger Suite 2021-1.
 43 46  0  0  1  0            999 V2000
   27.2952   -1.9384   26.5847 C   0  0  0  0  0  0
   28.8125   -1.7083   26.4649 C   0  0  0  0  0  0
   29.3443   -0.3721   27.0422 C   0  0  1  0  0  0
   28.9613   -0.2278   28.5396 C   0  0  0  0  0  0
   29.4960    1.0684   29.1953 C   0  0  0  0  0  0
   30.9921    1.2944   28.9083 C   0  0  2  0  0  0
   31.1560    1.3997   27.3829 C   0  0  0  0  0  0
   30.8571    0.0077   26.7763 C   0  0  2  0  0  0
   31.1853   -0.0263   25.2894 C   0  0  0  0  0  0
   31.7648   -1.3580   25.0240 C   0  0  0  0  0  0
   32.0649   -1.9166   23.7857 C   0  0  0  0  0  0
   32.8280   -3.0713   23.7255 C   0  0  0  0  0  0
   33.2878   -3.6446   24.9049 C   0  0  0  0  0  0
   32.9695   -3.0927   26.1489 C   0  0  0  0  0  0
   32.2144   -1.9215   26.2168 C   0  0  0  0  0  0
   31.8527   -1.0127   27.3424 C   0  0  0  0  0  0
   32.3068   -0.9204   28.6236 C   0  0  0  0  0  0
   31.8680    0.1751   29.5361 C   0  0  0  0  0  0
   32.0904    0.1756   30.7478 O   0  0  0  0  0  0
   33.3311   -1.8883   29.2022 C   0  0  0  0  0  0
   33.1329   -3.6232   22.5118 O   0  0  0  0  0  0
   28.7839    0.4140   26.5310 H   0  0  0  0  0  0
   31.3004    2.2354   29.3651 H   0  0  0  0  0  0
   26.9954   -2.8284   26.0296 H   0  0  0  0  0  0
   26.9853   -2.0924   27.6181 H   0  0  0  0  0  0
   26.7289   -1.0981   26.1824 H   0  0  0  0  0  0
   29.3426   -2.5439   26.9246 H   0  0  0  0  0  0
   29.0565   -1.7411   25.4058 H   0  0  0  0  0  0
   27.8811   -0.2844   28.6635 H   0  0  0  0  0  0
   29.3586   -1.0982   29.0640 H   0  0  0  0  0  0
   28.9291    1.9156   28.8058 H   0  0  0  0  0  0
   29.3104    1.1011   30.2665 H   0  0  0  0  0  0
   30.4601    2.1353   26.9777 H   0  0  0  0  0  0
   32.1631    1.7416   27.1335 H   0  0  0  0  0  0
   30.3281    0.2150   24.6626 H   0  0  0  0  0  0
   32.0109    0.6564   25.0556 H   0  0  0  0  0  0
   31.7488   -1.4414   22.8702 H   0  0  0  0  0  0
   33.8901   -4.5304   24.8437 H   0  0  0  0  0  0
   33.3481   -3.5742   27.0348 H   0  0  0  0  0  0
   33.5517   -1.7412   30.2605 H   0  0  0  0  0  0
   33.0153   -2.9220   29.0734 H   0  0  0  0  0  0
   34.2627   -1.7421   28.6647 H   0  0  0  0  0  0
   33.5551   -4.4830   22.5678 H   0  0  0  0  0  0
  1  2  1  0  0  0
  1 24  1  0  0  0
  1 25  1  0  0  0
  1 26  1  0  0  0
  2  3  1  0  0  0
  2 27  1  0  0  0
  2 28  1  0  0  0
  3 22  1  0  0  0
  3  8  1  0  0  0
  3  4  1  0  0  0
  4  5  1  0  0  0
  4 29  1  0  0  0
  4 30  1  0  0  0
  5  6  1  0  0  0
  5 31  1  0  0  0
  5 32  1  0  0  0
  6 23  1  0  0  0
  6 18  1  0  0  0
  6  7  1  0  0  0
  7  8  1  0  0  0
  7 33  1  0  0  0
  7 34  1  0  0  0
  8 16  1  0  0  0
  8  9  1  0  0  0
  9 10  1  0  0  0
  9 35  1  0  0  0
  9 36  1  0  0  0
 10 15  2  0  0  0
 10 11  1  0  0  0
 11 12  2  0  0  0
 11 37  1  0  0  0
 12 13  1  0  0  0
 12 21  1  0  0  0
 13 14  2  0  0  0
 13 38  1  0  0  0
 14 15  1  0  0  0
 14 39  1  0  0  0
 15 16  1  0  0  0
 16 17  2  0  0  0
 17 18  1  0  0  0
 17 20  1  0  0  0
 18 19  2  0  0  0
 20 40  1  0  0  0
 20 41  1  0  0  0
 20 42  1  0  0  0
 21 43  1  0  0  0
M  END
> <s_m_entry_id>
17467

> <s_m_entry_name>
ligand_docking-pose.394

> <s_m_Source_Path>
/home/csk/Desktop/cluster/DUD-E-result/esr1

> <s_m_Source_File>
ligand_docking-pose.sdf

> <i_m_Source_File_Index>
394

> <i_lp_mmshare_version>
53161

> <i_f3d_flags>
0

> <r_lp_tautomer_probability>
1

> <s_lp_Force_Field>
OPLS_2005

> <r_lp_Energy>
31.953856

> <b_lp_Chiralities_Consistent>
1

> <s_lp_Variant>
357064-1

> <s_i_glide_gridfile>
glide-grid_1sj0

> <i_i_glide_lignum>
1495

> <i_i_glide_rotatable_bonds>
2

> <r_i_docking_score>
-8.26730543255565

> <r_i_glide_ligand_efficiency>
-0.393681211074079

> <r_i_glide_ligand_efficiency_sa>
-1.08613660991702

> <r_i_glide_ligand_efficiency_ln>
-2.04407456253578

> <r_i_glide_gscore>
-8.26730543255565

> <r_i_glide_lipo>
-4.33319253313942

> <r_i_glide_hbond>
0

> <r_i_glide_metal>
0

> <r_i_glide_rewards>
-2.72049236878856

> <r_i_glide_evdw>
-24.1285057067871

> <r_i_glide_ecoul>
-0.0479683019220829

> <r_i_glide_erotb>
0

> <r_i_glide_esite>
0

> <r_i_glide_emodel>
-30.7080718999012

> <r_i_glide_energy>
-24.1764740087092

> <r_i_glide_einternal>
0.130703881382942

> <i_i_glide_confnum>
1

> <i_i_glide_posenum>
329

> <r_i_glide_eff_state_penalty>
0

> <s_user_duplicate_titles>
357064

> <s_m_subgroup_title>
dock_pv

> <s_m_subgroupid>
dock_pv1

> <b_m_subgroup_collapsed>
0

$$$$
322836
                    3D
 Schrodinger Suite 2021-1.
 30 32  0  0  1  0            999 V2000
   33.2325   -0.4852   29.1196 C   0  0  0  0  0  0
   32.8634    0.2005   30.2673 C   0  0  0  0  0  0
   31.6363    0.8421   30.3441 C   0  0  0  0  0  0
   30.7531    0.8425   29.2593 C   0  0  0  0  0  0
   31.0830    0.1110   28.0828 C   0  0  0  0  0  0
   32.3443   -0.5538   28.0212 C   0  0  0  0  0  0
   32.6864   -1.2779   26.8604 C   0  0  0  0  0  0
   31.8106   -1.3931   25.7756 C   0  0  0  0  0  0
   30.5726   -0.7490   25.8524 C   0  0  0  0  0  0
   30.2093    0.0005   26.9678 C   0  0  0  0  0  0
   32.1998   -2.1824   24.5644 C   0  0  0  0  0  0
   31.7810   -1.7894   23.2906 C   0  0  0  0  0  0
   32.0951   -2.5429   22.1554 C   0  0  0  0  0  0
   32.9219   -3.6531   22.2608 C   0  0  0  0  0  0
   33.4049   -4.0149   23.5093 C   0  0  0  0  0  0
   32.9929   -3.3332   24.6541 C   0  0  0  0  0  0
   33.3347   -3.8195   25.8646 F   0  0  0  0  0  0
   33.2601   -4.3962   21.1612 O   0  0  0  0  0  0
   29.2605    1.7183   29.3651 Cl  0  0  0  0  0  0
   31.3053    1.4576   31.5196 O   0  0  0  0  0  0
   34.1904   -0.9844   29.0711 H   0  0  0  0  0  0
   33.5370    0.2290   31.1098 H   0  0  0  0  0  0
   33.6597   -1.7434   26.8313 H   0  0  0  0  0  0
   29.8702   -0.8250   25.0350 H   0  0  0  0  0  0
   29.2449    0.4866   26.9838 H   0  0  0  0  0  0
   31.1975   -0.8921   23.1795 H   0  0  0  0  0  0
   31.7258   -2.2430   21.1851 H   0  0  0  0  0  0
   34.0599   -4.8669   23.6129 H   0  0  0  0  0  0
   32.5029   -4.7553   20.6765 H   0  0  0  0  0  0
   30.4855    1.9516   31.4449 H   0  0  0  0  0  0
  1  6  1  0  0  0
  1  2  2  0  0  0
  1 21  1  0  0  0
  2  3  1  0  0  0
  2 22  1  0  0  0
  3  4  2  0  0  0
  3 20  1  0  0  0
  4  5  1  0  0  0
  4 19  1  0  0  0
  5 10  2  0  0  0
  5  6  1  0  0  0
  6  7  2  0  0  0
  7  8  1  0  0  0
  7 23  1  0  0  0
  8  9  2  0  0  0
  8 11  1  0  0  0
  9 10  1  0  0  0
  9 24  1  0  0  0
 10 25  1  0  0  0
 11 16  1  0  0  0
 11 12  2  0  0  0
 12 13  1  0  0  0
 12 26  1  0  0  0
 13 14  2  0  0  0
 13 27  1  0  0  0
 14 15  1  0  0  0
 14 18  1  0  0  0
 15 16  2  0  0  0
 15 28  1  0  0  0
 16 17  1  0  0  0
 18 29  1  0  0  0
 20 30  1  0  0  0
M  END
> <s_m_entry_id>
17468

> <s_m_entry_name>
ligand_docking-pose.395

> <s_m_Source_Path>
/home/csk/Desktop/cluster/DUD-E-result/esr1

> <s_m_Source_File>
ligand_docking-pose.sdf

> <i_m_Source_File_Index>
395

> <i_lp_mmshare_version>
53161

> <i_f3d_flags>
0

> <r_lp_tautomer_probability>
0.999999999997365

> <s_lp_Force_Field>
OPLS_2005

> <r_lp_Energy>
20.074633

> <b_lp_Chiralities_Consistent>
1

> <s_lp_Variant>
322836-1

> <s_i_glide_gridfile>
glide-grid_1sj0

> <i_i_glide_lignum>
118

> <i_i_glide_rotatable_bonds>
3

> <r_i_docking_score>
-8.25982808328499

> <r_i_glide_ligand_efficiency>
-0.41299140416425

> <r_i_glide_ligand_efficiency_sa>
-1.12103114184627

> <r_i_glide_ligand_efficiency_ln>
-2.0671625418833

> <r_i_glide_gscore>
-8.25982808328499

> <r_i_glide_lipo>
-4.12586199351412

> <r_i_glide_hbond>
-0.11216998646433

> <r_i_glide_metal>
0

> <r_i_glide_rewards>
-2.43256522316658

> <r_i_glide_evdw>
-26.9573230743408

> <r_i_glide_ecoul>
-3.06459808349609

> <r_i_glide_erotb>
0.218324986101495

> <r_i_glide_esite>
0

> <r_i_glide_emodel>
-43.1954187213664

> <r_i_glide_energy>
-30.0219211578369

> <r_i_glide_einternal>
4.77940940856934

> <i_i_glide_confnum>
1

> <i_i_glide_posenum>
342

> <r_i_glide_eff_state_penalty>
0

> <s_user_duplicate_titles>
322836

> <s_m_subgroup_title>
dock_pv

> <s_m_subgroupid>
dock_pv1

> <b_m_subgroup_collapsed>
0

$$$$
322837
                    3D
 Schrodinger Suite 2021-1.
 30 32  0  0  1  0            999 V2000
   30.7692   -1.1228   24.1817 C   0  0  0  0  0  0
   30.8376   -0.5427   25.4452 C   0  0  0  0  0  0
   31.8074   -0.9363   26.3686 C   0  0  0  0  0  0
   32.7102   -1.9409   26.0052 C   0  0  0  0  0  0
   32.6971   -2.5069   24.7093 C   0  0  0  0  0  0
   31.6919   -2.1157   23.7822 C   0  0  0  0  0  0
   31.6601   -2.7324   22.4968 C   0  0  0  0  0  0
   32.6583   -3.6133   22.1120 C   0  0  0  0  0  0
   33.6628   -3.9345   23.0005 C   0  0  0  0  0  0
   33.6749   -3.4321   24.2977 C   0  0  0  0  0  0
   32.6925   -4.1420   20.8505 O   0  0  0  0  0  0
   31.9265   -0.2690   27.6945 C   0  0  0  0  0  0
   33.1984    0.0665   28.1809 C   0  0  0  0  0  0
   33.3599    0.6589   29.4281 C   0  0  0  0  0  0
   32.2410    0.9318   30.2124 C   0  0  0  0  0  0
   30.9673    0.6599   29.7261 C   0  0  0  0  0  0
   30.8058    0.0485   28.4834 C   0  0  0  0  0  0
   29.5517   -0.2458   28.0674 F   0  0  0  0  0  0
   32.3866    1.4582   31.4640 O   0  0  0  0  0  0
   34.5993    0.9758   29.8638 F   0  0  0  0  0  0
   30.0217   -0.7980   23.4785 H   0  0  0  0  0  0
   30.1314    0.2358   25.6947 H   0  0  0  0  0  0
   33.4724   -2.2619   26.6994 H   0  0  0  0  0  0
   30.8596   -2.5420   21.8007 H   0  0  0  0  0  0
   34.4591   -4.5806   22.6641 H   0  0  0  0  0  0
   34.4589   -3.7216   24.9820 H   0  0  0  0  0  0
   31.9868   -4.7789   20.6411 H   0  0  0  0  0  0
   34.0789   -0.1293   27.5898 H   0  0  0  0  0  0
   30.1040    0.9176   30.3220 H   0  0  0  0  0  0
   33.3093    1.6195   31.6753 H   0  0  0  0  0  0
  1  6  1  0  0  0
  1  2  2  0  0  0
  1 21  1  0  0  0
  2  3  1  0  0  0
  2 22  1  0  0  0
  3  4  2  0  0  0
  3 12  1  0  0  0
  4  5  1  0  0  0
  4 23  1  0  0  0
  5 10  2  0  0  0
  5  6  1  0  0  0
  6  7  2  0  0  0
  7  8  1  0  0  0
  7 24  1  0  0  0
  8  9  2  0  0  0
  8 11  1  0  0  0
  9 10  1  0  0  0
  9 25  1  0  0  0
 10 26  1  0  0  0
 11 27  1  0  0  0
 12 17  1  0  0  0
 12 13  2  0  0  0
 13 14  1  0  0  0
 13 28  1  0  0  0
 14 15  2  0  0  0
 14 20  1  0  0  0
 15 16  1  0  0  0
 15 19  1  0  0  0
 16 17  2  0  0  0
 16 29  1  0  0  0
 17 18  1  0  0  0
 19 30  1  0  0  0
M  END
> <s_m_entry_id>
17469

> <s_m_entry_name>
ligand_docking-pose.396

> <s_m_Source_Path>
/home/csk/Desktop/cluster/DUD-E-result/esr1

> <s_m_Source_File>
ligand_docking-pose.sdf

> <i_m_Source_File_Index>
396

> <i_lp_mmshare_version>
53161

> <i_f3d_flags>
0

> <r_lp_tautomer_probability>
0.999999999997365

> <s_lp_Force_Field>
OPLS_2005

> <r_lp_Energy>
17.933295

> <b_lp_Chiralities_Consistent>
1

> <s_lp_Variant>
322837-1

> <s_i_glide_gridfile>
glide-grid_1sj0

> <i_i_glide_lignum>
142

> <i_i_glide_rotatable_bonds>
3

> <r_i_docking_score>
-8.2543174639944

> <r_i_glide_ligand_efficiency>
-0.41271587319972

> <r_i_glide_ligand_efficiency_sa>
-1.12028323574298

> <r_i_glide_ligand_efficiency_ln>
-2.06578341562725

> <r_i_glide_gscore>
-8.2543174639944

> <r_i_glide_lipo>
-3.75529570835287

> <r_i_glide_hbond>
-0.16

> <r_i_glide_metal>
0

> <r_i_glide_rewards>
-2.77069507229551

> <r_i_glide_evdw>
-26.7830543518066

> <r_i_glide_ecoul>
-3.13952088356018

> <r_i_glide_erotb>
0.241754166778343

> <r_i_glide_esite>
0

> <r_i_glide_emodel>
-41.5055457726216

> <r_i_glide_energy>
-29.9225752353668

> <r_i_glide_einternal>
4.41711091995239

> <i_i_glide_confnum>
4

> <i_i_glide_posenum>
28

> <r_i_glide_eff_state_penalty>
0

> <s_user_duplicate_titles>
322837

> <s_m_subgroup_title>
dock_pv

> <s_m_subgroupid>
dock_pv1

> <b_m_subgroup_collapsed>
0

$$$$
353946
                    3D
 Schrodinger Suite 2021-1.
 35 38  0  0  1  0            999 V2000
   31.2080    1.1308   30.9243 C   0  0  0  0  0  0
   32.0590   -0.1504   30.8004 C   0  0  0  0  0  0
   32.2984   -0.7371   29.3601 C   0  0  2  0  0  0
   33.7387   -1.3030   29.2136 C   0  0  0  0  0  0
   34.8351   -0.2058   29.2444 C   0  0  0  0  0  0
   34.4714    1.0405   28.4212 C   0  0  0  0  0  0
   35.2600    1.9667   28.2637 O   0  0  0  0  0  0
   33.1375    1.1000   27.8424 C   0  0  0  0  0  0
   32.1167    0.2992   28.2409 C   0  0  0  0  0  0
   30.7139    0.1712   27.7749 C   0  0  0  0  0  0
   29.9246    1.0142   27.0019 C   0  0  0  0  0  0
   28.6230    0.6996   26.6284 C   0  0  0  0  0  0
   28.1431   -0.5554   27.0096 C   0  0  0  0  0  0
   28.9252   -1.4559   27.7758 C   0  0  0  0  0  0
   30.2061   -1.0504   28.2019 C   0  0  0  0  0  0
   31.2464   -1.7911   28.9802 C   0  0  0  0  0  0
   28.0995   -2.6195   27.8640 C   0  0  0  0  0  0
   26.9345   -2.4408   27.3047 N   0  0  0  0  0  0
   26.9453   -1.2049   26.7784 N   0  0  0  0  0  0
   28.4600   -3.7345   28.4528 F   0  0  0  0  0  0
   32.9877    2.2581   26.2642 Br  0  0  0  0  0  0
   26.1427   -0.8712   26.2633 H   0  0  0  0  0  0
   31.0479    1.3929   31.9703 H   0  0  0  0  0  0
   31.7064    1.9785   30.4545 H   0  0  0  0  0  0
   30.2306    1.0330   30.4580 H   0  0  0  0  0  0
   31.6332   -0.9190   31.4460 H   0  0  0  0  0  0
   33.0141    0.0802   31.2714 H   0  0  0  0  0  0
   33.8122   -1.8326   28.2639 H   0  0  0  0  0  0
   33.9343   -2.0552   29.9774 H   0  0  0  0  0  0
   34.9548    0.1449   30.2639 H   0  0  0  0  0  0
   35.7970   -0.5887   28.9018 H   0  0  0  0  0  0
   30.3031    1.9547   26.6772 H   0  0  0  0  0  0
   28.0596    1.3991   26.0352 H   0  0  0  0  0  0
   31.6742   -2.5415   28.3152 H   0  0  0  0  0  0
   30.8584   -2.3032   29.8572 H   0  0  0  0  0  0
  1  2  1  0  0  0
  1 23  1  0  0  0
  1 24  1  0  0  0
  1 25  1  0  0  0
  2  3  1  0  0  0
  2 26  1  0  0  0
  2 27  1  0  0  0
  3  9  1  0  0  0
  3 16  1  0  0  0
  3  4  1  0  0  0
  4  5  1  0  0  0
  4 28  1  0  0  0
  4 29  1  0  0  0
  5  6  1  0  0  0
  5 30  1  0  0  0
  5 31  1  0  0  0
  6  7  2  0  0  0
  6  8  1  0  0  0
  8  9  2  0  0  0
  8 21  1  0  0  0
  9 10  1  0  0  0
 10 15  1  0  0  0
 10 11  2  0  0  0
 11 12  1  0  0  0
 11 32  1  0  0  0
 12 13  2  0  0  0
 12 33  1  0  0  0
 13 19  1  0  0  0
 13 14  1  0  0  0
 14 15  2  0  0  0
 14 17  1  0  0  0
 15 16  1  0  0  0
 16 34  1  0  0  0
 16 35  1  0  0  0
 17 18  2  0  0  0
 17 20  1  0  0  0
 18 19  1  0  0  0
 19 22  1  0  0  0
M  END
> <s_m_entry_id>
17470

> <s_m_entry_name>
ligand_docking-pose.397

> <s_m_Source_Path>
/home/csk/Desktop/cluster/DUD-E-result/esr1

> <s_m_Source_File>
ligand_docking-pose.sdf

> <i_m_Source_File_Index>
397

> <i_lp_mmshare_version>
53161

> <i_f3d_flags>
0

> <r_lp_tautomer_probability>
1

> <s_lp_Force_Field>
OPLS_2005

> <r_lp_Energy>
39.153856

> <b_lp_Chiralities_Consistent>
1

> <s_lp_Variant>
353946-2

> <s_i_glide_gridfile>
glide-grid_1sj0

> <i_i_glide_lignum>
1075

> <i_i_glide_rotatable_bonds>
1

> <r_i_docking_score>
-8.24423005025129

> <r_i_glide_ligand_efficiency>
-0.3925823833453

> <r_i_glide_ligand_efficiency_sa>
-1.08310502753349

> <r_i_glide_ligand_efficiency_ln>
-2.03836922088923

> <r_i_glide_gscore>
-8.24423005025129

> <r_i_glide_lipo>
-3.9715569139294

> <r_i_glide_hbond>
0

> <r_i_glide_metal>
0

> <r_i_glide_rewards>
-2.68486782344995

> <r_i_glide_evdw>
-35.6140823364258

> <r_i_glide_ecoul>
1.28599202632904

> <r_i_glide_erotb>
0

> <r_i_glide_esite>
0

> <r_i_glide_emodel>
-38.7327909441054

> <r_i_glide_energy>
-34.3280903100967

> <r_i_glide_einternal>
1.60682821273804

> <i_i_glide_confnum>
1

> <i_i_glide_posenum>
282

> <r_i_glide_eff_state_penalty>
0

> <s_user_duplicate_titles>
353946

> <s_m_subgroup_title>
dock_pv

> <s_m_subgroupid>
dock_pv1

> <b_m_subgroup_collapsed>
0

$$$$
223735
                    3D
 Schrodinger Suite 2021-1.
 32 33  0  0  1  0            999 V2000
   31.2585    0.7339   30.5894 C   0  0  0  0  0  0
   31.0844    0.0590   29.5850 C   0  0  0  0  0  0
   30.9212   -0.7556   28.3566 C   0  0  2  0  0  0
   31.8576   -0.2565   27.2266 C   0  0  0  0  0  0
   32.0720   -1.2570   26.0994 C   0  0  0  0  0  0
   31.5215   -1.0246   24.8359 C   0  0  0  0  0  0
   31.7855   -1.9109   23.7944 C   0  0  0  0  0  0
   32.5938   -3.0214   24.0179 C   0  0  0  0  0  0
   33.1248   -3.2679   25.2789 C   0  0  0  0  0  0
   32.8599   -2.3897   26.3243 C   0  0  0  0  0  0
   32.8635   -3.8909   22.9959 O   0  0  0  0  0  0
   29.4582   -0.8990   27.8952 C   0  0  0  0  0  0
   28.9850   -2.1515   27.4828 C   0  0  0  0  0  0
   27.6634   -2.3053   27.0652 C   0  0  0  0  0  0
   26.8077   -1.2068   27.0668 C   0  0  0  0  0  0
   27.2669    0.0456   27.4635 C   0  0  0  0  0  0
   28.5907    0.2032   27.8637 C   0  0  0  0  0  0
   25.5058   -1.3413   26.6641 O   0  0  0  0  0  0
   31.4081    1.3262   31.4636 H   0  0  0  0  0  0
   31.2694   -1.7398   28.6800 H   0  0  0  0  0  0
   31.4901    0.6899   26.8238 H   0  0  0  0  0  0
   32.8477   -0.0161   27.6229 H   0  0  0  0  0  0
   30.9022   -0.1569   24.6596 H   0  0  0  0  0  0
   31.3648   -1.7409   22.8163 H   0  0  0  0  0  0
   33.7385   -4.1411   25.4402 H   0  0  0  0  0  0
   33.2790   -2.5810   27.3007 H   0  0  0  0  0  0
   32.3935   -3.7018   22.1816 H   0  0  0  0  0  0
   29.6433   -3.0095   27.4786 H   0  0  0  0  0  0
   27.3080   -3.2750   26.7472 H   0  0  0  0  0  0
   26.5988    0.8948   27.4523 H   0  0  0  0  0  0
   28.9348    1.1822   28.1617 H   0  0  0  0  0  0
   25.2741   -2.2050   26.2638 H   0  0  0  0  0  0
  1  2  3  0  0  0
  1 19  1  0  0  0
  2  3  1  0  0  0
  3  4  1  0  0  0
  3 12  1  0  0  0
  3 20  1  0  0  0
  4  5  1  0  0  0
  4 21  1  0  0  0
  4 22  1  0  0  0
  5 10  1  0  0  0
  5  6  2  0  0  0
  6  7  1  0  0  0
  6 23  1  0  0  0
  7  8  2  0  0  0
  7 24  1  0  0  0
  8  9  1  0  0  0
  8 11  1  0  0  0
  9 10  2  0  0  0
  9 25  1  0  0  0
 10 26  1  0  0  0
 11 27  1  0  0  0
 12 17  1  0  0  0
 12 13  2  0  0  0
 13 14  1  0  0  0
 13 28  1  0  0  0
 14 15  2  0  0  0
 14 29  1  0  0  0
 15 16  1  0  0  0
 15 18  1  0  0  0
 16 17  2  0  0  0
 16 30  1  0  0  0
 17 31  1  0  0  0
 18 32  1  0  0  0
M  END
> <s_m_entry_id>
17471

> <s_m_entry_name>
ligand_docking-pose.398

> <s_m_Source_Path>
/home/csk/Desktop/cluster/DUD-E-result/esr1

> <s_m_Source_File>
ligand_docking-pose.sdf

> <i_m_Source_File_Index>
398

> <i_lp_mmshare_version>
53161

> <i_f3d_flags>
0

> <r_lp_tautomer_probability>
0.99999999999473

> <s_lp_Force_Field>
OPLS_2005

> <r_lp_Energy>
10.638131

> <b_lp_Chiralities_Consistent>
1

> <s_lp_Variant>
223735-1

> <s_i_glide_gridfile>
glide-grid_1sj0

> <i_i_glide_lignum>
1393

> <i_i_glide_rotatable_bonds>
6

> <r_i_docking_score>
-8.24108478643684

> <r_i_glide_ligand_efficiency>
-0.457838043690936

> <r_i_glide_ligand_efficiency_sa>
-1.19987511178843

> <r_i_glide_ligand_efficiency_ln>
-2.11832834990902

> <r_i_glide_gscore>
-8.24108478643684

> <r_i_glide_lipo>
-3.99343296727234

> <r_i_glide_hbond>
-0.16

> <r_i_glide_metal>
0

> <r_i_glide_rewards>
-2.47846787248779

> <r_i_glide_evdw>
-32.569091796875

> <r_i_glide_ecoul>
-5.54521560668945

> <r_i_glide_erotb>
0.851052984170453

> <r_i_glide_esite>
0

> <r_i_glide_emodel>
-57.0928272205033

> <r_i_glide_energy>
-38.1143074035645

> <r_i_glide_einternal>
2.78543567657471

> <i_i_glide_confnum>
8

> <i_i_glide_posenum>
390

> <r_i_glide_eff_state_penalty>
0

> <s_user_duplicate_titles>
223735

> <s_m_subgroup_title>
dock_pv

> <s_m_subgroupid>
dock_pv1

> <b_m_subgroup_collapsed>
0

$$$$
357173
                    3D
 Schrodinger Suite 2021-1.
 47 51  0  0  1  0            999 V2000
   24.8892   -0.7131   26.8492 C   0  0  0  0  0  0
   26.2515   -0.8567   27.5347 C   0  0  0  0  0  0
   27.2107   -1.7633   26.7341 C   0  0  0  0  0  0
   28.7098   -1.6964   27.1389 C   0  0  0  0  0  0
   29.5875   -0.6326   26.3863 C   0  0  1  0  0  0
   29.0762    0.8155   26.6153 C   0  0  0  0  0  0
   29.1711    1.2230   28.1029 C   0  0  0  0  0  0
   30.5603    0.9557   28.7009 C   0  0  0  0  0  0
   30.8760    1.4581   29.7793 O   0  0  0  0  0  0
   31.4482    0.0346   27.9617 C   0  0  0  0  0  0
   31.0372   -0.6878   26.8861 C   0  0  0  0  0  0
   31.7910   -1.5812   25.9599 C   0  0  0  0  0  0
   33.0244   -2.2268   26.0790 C   0  0  0  0  0  0
   33.6062   -2.9420   25.0205 C   0  0  0  0  0  0
   32.9156   -2.9702   23.8208 C   0  0  0  0  0  0
   31.6733   -2.3288   23.6668 C   0  0  0  0  0  0
   31.0891   -1.6580   24.7652 C   0  0  0  0  0  0
   29.7523   -0.9873   24.9022 C   0  0  0  0  0  0
   31.2600   -2.5420   22.3829 N   0  0  0  0  0  0
   32.1989   -3.3090   21.7371 N   0  0  0  0  0  0
   33.1886   -3.5603   22.6011 N   0  0  0  0  0  0
   32.8372    0.0633   28.3376 C   0  0  0  0  0  0
   33.5758   -0.6684   29.2438 C   0  0  0  0  0  0
   34.8594   -0.1419   29.2110 C   0  0  0  0  0  0
   34.8600    0.8722   28.2695 C   0  0  0  0  0  0
   33.6203    1.0006   27.7400 O   0  0  0  0  0  0
   33.9777   -4.1261   22.3244 H   0  0  0  0  0  0
   24.1965   -0.1418   27.4635 H   0  0  0  0  0  0
   24.9542   -0.2124   25.8848 H   0  0  0  0  0  0
   24.4600   -1.6925   26.6641 H   0  0  0  0  0  0
   26.1174   -1.2658   28.5368 H   0  0  0  0  0  0
   26.6487    0.1432   27.6764 H   0  0  0  0  0  0
   27.0910   -1.5524   25.6726 H   0  0  0  0  0  0
   26.8643   -2.7927   26.8464 H   0  0  0  0  0  0
   29.1471   -2.6819   26.9683 H   0  0  0  0  0  0
   28.7816   -1.5658   28.2193 H   0  0  0  0  0  0
   28.0617    0.9351   26.2408 H   0  0  0  0  0  0
   29.6601    1.5185   26.0259 H   0  0  0  0  0  0
   28.4882    0.6028   28.6777 H   0  0  0  0  0  0
   28.8905    2.2603   28.2732 H   0  0  0  0  0  0
   33.5579   -2.1736   27.0116 H   0  0  0  0  0  0
   34.5571   -3.4366   25.0640 H   0  0  0  0  0  0
   28.9860   -1.7093   24.6640 H   0  0  0  0  0  0
   29.6599   -0.1249   24.2471 H   0  0  0  0  0  0
   33.2210   -1.4739   29.8648 H   0  0  0  0  0  0
   35.6779   -0.4728   29.8233 H   0  0  0  0  0  0
   35.6162    1.5496   27.8977 H   0  0  0  0  0  0
  1  2  1  0  0  0
  1 28  1  0  0  0
  1 29  1  0  0  0
  1 30  1  0  0  0
  2  3  1  0  0  0
  2 31  1  0  0  0
  2 32  1  0  0  0
  3  4  1  0  0  0
  3 33  1  0  0  0
  3 34  1  0  0  0
  4  5  1  0  0  0
  4 35  1  0  0  0
  4 36  1  0  0  0
  5 11  1  0  0  0
  5 18  1  0  0  0
  5  6  1  0  0  0
  6  7  1  0  0  0
  6 37  1  0  0  0
  6 38  1  0  0  0
  7  8  1  0  0  0
  7 39  1  0  0  0
  7 40  1  0  0  0
  8  9  2  0  0  0
  8 10  1  0  0  0
 10 11  2  0  0  0
 10 22  1  0  0  0
 11 12  1  0  0  0
 12 17  1  0  0  0
 12 13  2  0  0  0
 13 14  1  0  0  0
 13 41  1  0  0  0
 14 15  2  0  0  0
 14 42  1  0  0  0
 15 21  1  0  0  0
 15 16  1  0  0  0
 16 17  2  0  0  0
 16 19  1  0  0  0
 17 18  1  0  0  0
 18 43  1  0  0  0
 18 44  1  0  0  0
 19 20  2  0  0  0
 20 21  1  0  0  0
 21 27  1  0  0  0
 22 26  1  0  0  0
 22 23  2  0  0  0
 23 24  1  0  0  0
 23 45  1  0  0  0
 24 25  2  0  0  0
 24 46  1  0  0  0
 25 26  1  0  0  0
 25 47  1  0  0  0
M  END
> <s_m_entry_id>
17472

> <s_m_entry_name>
ligand_docking-pose.399

> <s_m_Source_Path>
/home/csk/Desktop/cluster/DUD-E-result/esr1

> <s_m_Source_File>
ligand_docking-pose.sdf

> <i_m_Source_File_Index>
399

> <i_lp_mmshare_version>
53161

> <i_f3d_flags>
0

> <r_lp_tautomer_probability>
0.25

> <s_lp_Force_Field>
OPLS_2005

> <r_lp_Energy>
50.366732

> <b_lp_Chiralities_Consistent>
1

> <s_lp_Variant>
357173-3

> <s_i_glide_gridfile>
glide-grid_1sj0

> <i_i_glide_lignum>
1319

> <i_i_glide_rotatable_bonds>
4

> <r_i_docking_score>
-8.23858291577934

> <r_i_glide_ligand_efficiency>
-0.316868573683821

> <r_i_glide_ligand_efficiency_sa>
-0.938721902720688

> <r_i_glide_ligand_efficiency_ln>
-1.93480416477532

> <r_i_glide_gscore>
-8.23858291577934

> <r_i_glide_lipo>
-4.57737382724718

> <r_i_glide_hbond>
0

> <r_i_glide_metal>
0

> <r_i_glide_rewards>
-2.30023040420184

> <r_i_glide_evdw>
-32.7663650512695

> <r_i_glide_ecoul>
-1.05125546455383

> <r_i_glide_erotb>
0.472866537413079

> <r_i_glide_esite>
-0.0378386494968498

> <r_i_glide_emodel>
-33.8324707509761

> <r_i_glide_energy>
-33.8176205158234

> <r_i_glide_einternal>
4.67413473129272

> <i_i_glide_confnum>
25

> <i_i_glide_posenum>
228

> <r_i_glide_eff_state_penalty>
0

> <s_user_duplicate_titles>
357173

> <s_m_subgroup_title>
dock_pv

> <s_m_subgroupid>
dock_pv1

> <b_m_subgroup_collapsed>
0

$$$$
339142
                    3D
 Schrodinger Suite 2021-1.
 54 57  0  0  1  0            999 V2000
   33.4422    1.0580   26.5757 C   0  0  0  0  0  0
   33.3210    0.5483   28.0397 C   0  0  2  0  0  0
   33.0115   -0.9934   28.1614 C   0  0  0  0  0  0
   31.6562   -1.4311   27.6678 C   0  0  0  0  0  0
   30.4872   -0.5658   28.2197 C   0  0  1  0  0  0
   30.8346    0.9570   28.1198 C   0  0  2  0  0  0
   32.1939    1.3550   28.7024 C   0  0  1  0  0  0
   32.3910    1.2087   30.2044 C   0  0  0  0  0  0
   33.8985    1.0580   30.3357 C   0  0  0  0  0  0
   34.5401    0.9253   28.9377 C   0  0  1  0  0  0
   35.5933   -0.0967   28.9872 C   0  0  0  0  0  0
   36.4599   -0.9420   29.0617 C   0  0  0  0  0  0
   35.2287    2.0934   28.5282 O   0  0  0  0  0  0
   29.7826    1.8580   28.7561 C   0  0  0  0  0  0
   28.4404    1.4574   28.2640 C   0  0  0  0  0  0
   28.1159    0.2486   27.7825 C   0  0  0  0  0  0
   29.1258   -0.8909   27.5057 C   0  0  2  0  0  0
   28.4947   -2.2287   27.9837 C   0  0  0  0  0  0
   27.0757   -2.5056   27.4259 C   0  0  0  0  0  0
   26.1057   -1.3232   27.6432 C   0  0  1  0  0  0
   26.7208    0.0210   27.3046 C   0  0  0  0  0  0
   25.0103   -1.3420   26.7529 O   0  0  0  0  0  0
   29.4237   -1.0652   26.0196 C   0  0  0  0  0  0
   29.3540   -0.1420   25.0640 C   0  0  0  0  0  0
   25.7222   -1.3409   28.6639 H   0  0  0  0  0  0
   32.8730    0.4604   25.8650 H   0  0  0  0  0  0
   33.1240    2.0936   26.4485 H   0  0  0  0  0  0
   34.4773    1.0580   26.2632 H   0  0  0  0  0  0
   33.7576   -1.5799   27.6357 H   0  0  0  0  0  0
   33.0659   -1.3131   29.2034 H   0  0  0  0  0  0
   31.4768   -2.4916   27.8435 H   0  0  0  0  0  0
   31.7545   -1.3487   26.5880 H   0  0  0  0  0  0
   30.3976   -0.7915   29.2829 H   0  0  0  0  0  0
   30.8592    1.2199   27.0612 H   0  0  0  0  0  0
   32.3463    2.4147   28.4806 H   0  0  0  0  0  0
   31.8655    0.3422   30.6081 H   0  0  0  0  0  0
   32.0310    2.0824   30.7488 H   0  0  0  0  0  0
   34.0379    0.1618   30.9402 H   0  0  0  0  0  0
   34.3478    1.8592   30.9140 H   0  0  0  0  0  0
   37.2885   -1.6098   29.0619 H   0  0  0  0  0  0
   36.1677    1.9360   28.7005 H   0  0  0  0  0  0
   29.7888    1.8214   29.8456 H   0  0  0  0  0  0
   29.9509    2.8915   28.4741 H   0  0  0  0  0  0
   27.6558    2.1970   28.3373 H   0  0  0  0  0  0
   29.1421   -3.0735   27.7404 H   0  0  0  0  0  0
   28.4601   -2.2221   29.0640 H   0  0  0  0  0  0
   26.6682   -3.4045   27.8906 H   0  0  0  0  0  0
   27.1460   -2.7341   26.3599 H   0  0  0  0  0  0
   26.0585    0.8673   27.4741 H   0  0  0  0  0  0
   26.9032   -0.0137   26.2640 H   0  0  0  0  0  0
   24.8682   -2.2472   26.3974 H   0  0  0  0  0  0
   29.7889   -2.0419   25.7504 H   0  0  0  0  0  0
   29.6600   -0.3710   24.0546 H   0  0  0  0  0  0
   28.9992    0.8530   25.2823 H   0  0  0  0  0  0
  1  2  1  0  0  0
  1 26  1  0  0  0
  1 27  1  0  0  0
  1 28  1  0  0  0
  2  7  1  0  0  0
  2 10  1  0  0  0
  2  3  1  0  0  0
  3  4  1  0  0  0
  3 29  1  0  0  0
  3 30  1  0  0  0
  4  5  1  0  0  0
  4 31  1  0  0  0
  4 32  1  0  0  0
  5 17  1  0  0  0
  5  6  1  0  0  0
  5 33  1  0  0  0
  6  7  1  0  0  0
  6 14  1  0  0  0
  6 34  1  0  0  0
  7  8  1  0  0  0
  7 35  1  0  0  0
  8  9  1  0  0  0
  8 36  1  0  0  0
  8 37  1  0  0  0
  9 10  1  0  0  0
  9 38  1  0  0  0
  9 39  1  0  0  0
 10 11  1  0  0  0
 10 13  1  0  0  0
 11 12  3  0  0  0
 12 40  1  0  0  0
 13 41  1  0  0  0
 14 15  1  0  0  0
 14 42  1  0  0  0
 14 43  1  0  0  0
 15 16  2  0  0  0
 15 44  1  0  0  0
 16 21  1  0  0  0
 16 17  1  0  0  0
 17 18  1  0  0  0
 17 23  1  0  0  0
 18 19  1  0  0  0
 18 45  1  0  0  0
 18 46  1  0  0  0
 19 20  1  0  0  0
 19 47  1  0  0  0
 19 48  1  0  0  0
 20 25  1  0  0  0
 20 21  1  0  0  0
 20 22  1  0  0  0
 21 49  1  0  0  0
 21 50  1  0  0  0
 22 51  1  0  0  0
 23 24  2  0  0  0
 23 52  1  0  0  0
 24 53  1  0  0  0
 24 54  1  0  0  0
M  END
> <s_m_entry_id>
17473

> <s_m_entry_name>
ligand_docking-pose.400

> <s_m_Source_Path>
/home/csk/Desktop/cluster/DUD-E-result/esr1

> <s_m_Source_File>
ligand_docking-pose.sdf

> <i_m_Source_File_Index>
400

> <i_lp_mmshare_version>
53161

> <i_f3d_flags>
0

> <r_lp_tautomer_probability>
1

> <s_lp_Force_Field>
OPLS_2005

> <r_lp_Energy>
49.554173

> <b_lp_Chiralities_Consistent>
1

> <s_lp_Variant>
339142-1

> <s_i_glide_gridfile>
glide-grid_1sj0

> <i_i_glide_lignum>
769

> <i_i_glide_rotatable_bonds>
4

> <r_i_docking_score>
-8.23663094127168

> <r_i_glide_ligand_efficiency>
-0.34319295588632

> <r_i_glide_ligand_efficiency_sa>
-0.989939785270454

> <r_i_glide_ligand_efficiency_ln>
-1.97140373861237

> <r_i_glide_gscore>
-8.23663094127168

> <r_i_glide_lipo>
-4.47310623711147

> <r_i_glide_hbond>
-0.570436385749714

> <r_i_glide_metal>
0

> <r_i_glide_rewards>
-2.08314272727273

> <r_i_glide_evdw>
-4.36588335037231

> <r_i_glide_ecoul>
-7.58669185638428

> <r_i_glide_erotb>
0.246352354838494

> <r_i_glide_esite>
0

> <r_i_glide_emodel>
-22.4410679725085

> <r_i_glide_energy>
-11.9525752067566

> <r_i_glide_einternal>
6.38918495178223

> <i_i_glide_confnum>
1

> <i_i_glide_posenum>
64

> <r_i_glide_eff_state_penalty>
0

> <s_user_duplicate_titles>
339142

> <s_m_subgroup_title>
dock_pv

> <s_m_subgroupid>
dock_pv1

> <b_m_subgroup_collapsed>
0

$$$$
125528
                    3D
 Schrodinger Suite 2021-1.
 38 41  0  0  1  0            999 V2000
   27.0105   -1.1745   27.3205 C   0  0  0  0  0  0
   27.9086   -1.7962   26.2399 C   0  0  0  0  0  0
   28.9375   -0.8567   25.5603 C   0  0  0  0  0  0
   30.1554   -0.5548   26.4028 C   0  0  0  0  0  0
   30.1217    0.2728   27.5467 C   0  0  0  0  0  0
   29.2308    1.0918   28.2582 C   0  0  0  0  0  0
   29.6605    1.6560   29.4639 C   0  0  0  0  0  0
   30.9584    1.4579   29.9726 C   0  0  0  0  0  0
   31.8476    0.7002   29.2224 C   0  0  0  0  0  0
   31.3790    0.1675   28.0846 N   0  0  0  0  0  0
   32.2506   -0.5582   27.3853 C   0  0  0  0  0  0
   31.5122   -0.9893   26.2643 C   0  0  0  0  0  0
   32.0870   -1.7986   25.1519 C   0  0  0  0  0  0
   31.6822   -1.6248   23.8234 C   0  0  0  0  0  0
   32.2096   -2.4277   22.8145 C   0  0  0  0  0  0
   33.2021   -3.3495   23.1209 C   0  0  0  0  0  0
   33.6603   -3.4700   24.4267 C   0  0  0  0  0  0
   33.0836   -2.7277   25.4459 C   0  0  0  0  0  0
   33.7333   -4.1413   22.1400 O   0  0  0  0  0  0
   33.4852   -0.4847   28.1638 C   0  0  0  0  0  0
   33.2378    0.2572   29.2704 C   0  0  0  0  0  0
   26.1897   -1.8506   27.5656 H   0  0  0  0  0  0
   27.5562   -0.9966   28.2455 H   0  0  0  0  0  0
   26.5683   -0.2358   26.9854 H   0  0  0  0  0  0
   27.2512   -2.1925   25.4642 H   0  0  0  0  0  0
   28.4172   -2.6642   26.6642 H   0  0  0  0  0  0
   28.4595    0.0694   25.2416 H   0  0  0  0  0  0
   29.2601   -1.3424   24.6505 H   0  0  0  0  0  0
   28.2265    1.2591   27.9001 H   0  0  0  0  0  0
   28.9546    2.2576   30.0064 H   0  0  0  0  0  0
   31.2599    1.9038   30.9086 H   0  0  0  0  0  0
   30.9664   -0.8636   23.5576 H   0  0  0  0  0  0
   31.8673   -2.3134   21.7973 H   0  0  0  0  0  0
   34.4589   -4.1469   24.6638 H   0  0  0  0  0  0
   33.4284   -2.8660   26.4595 H   0  0  0  0  0  0
   33.2024   -4.1719   21.3392 H   0  0  0  0  0  0
   34.4261   -0.9398   27.9021 H   0  0  0  0  0  0
   33.9338    0.5025   30.0599 H   0  0  0  0  0  0
  1  2  1  0  0  0
  1 22  1  0  0  0
  1 23  1  0  0  0
  1 24  1  0  0  0
  2  3  1  0  0  0
  2 25  1  0  0  0
  2 26  1  0  0  0
  3  4  1  0  0  0
  3 27  1  0  0  0
  3 28  1  0  0  0
  4 12  1  0  0  0
  4  5  2  0  0  0
  5 10  1  0  0  0
  5  6  1  0  0  0
  6  7  2  0  0  0
  6 29  1  0  0  0
  7  8  1  0  0  0
  7 30  1  0  0  0
  8  9  2  0  0  0
  8 31  1  0  0  0
  9 21  1  0  0  0
  9 10  1  0  0  0
 10 11  1  0  0  0
 11 12  2  0  0  0
 11 20  1  0  0  0
 12 13  1  0  0  0
 13 18  1  0  0  0
 13 14  2  0  0  0
 14 15  1  0  0  0
 14 32  1  0  0  0
 15 16  2  0  0  0
 15 33  1  0  0  0
 16 17  1  0  0  0
 16 19  1  0  0  0
 17 18  2  0  0  0
 17 34  1  0  0  0
 18 35  1  0  0  0
 19 36  1  0  0  0
 20 21  2  0  0  0
 20 37  1  0  0  0
 21 38  1  0  0  0
M  END
> <s_m_entry_id>
17474

> <s_m_entry_name>
ligand_docking-pose.401

> <s_m_Source_Path>
/home/csk/Desktop/cluster/DUD-E-result/esr1

> <s_m_Source_File>
ligand_docking-pose.sdf

> <i_m_Source_File_Index>
401

> <i_lp_mmshare_version>
53161

> <i_f3d_flags>
0

> <r_lp_tautomer_probability>
0.999999999997365

> <s_lp_Force_Field>
OPLS_2005

> <r_lp_Energy>
62.144938

> <b_lp_Chiralities_Consistent>
1

> <s_lp_Variant>
125528-1

> <s_i_glide_gridfile>
glide-grid_1sj0

> <i_i_glide_lignum>
1243

> <i_i_glide_rotatable_bonds>
4

> <r_i_docking_score>
-8.23384070303179

> <r_i_glide_ligand_efficiency>
-0.392087652525323

> <r_i_glide_ligand_efficiency_sa>
-1.08174010271484

> <r_i_glide_ligand_efficiency_ln>
-2.03580047578286

> <r_i_glide_gscore>
-8.23384070303179

> <r_i_glide_lipo>
-4.86365364751761

> <r_i_glide_hbond>
0

> <r_i_glide_metal>
0

> <r_i_glide_rewards>
-2.2233031074538

> <r_i_glide_evdw>
-32.0179214477539

> <r_i_glide_ecoul>
-0.13406465947628

> <r_i_glide_erotb>
0.474121823248759

> <r_i_glide_esite>
0

> <r_i_glide_emodel>
-47.1027853475984

> <r_i_glide_energy>
-32.1519861072302

> <r_i_glide_einternal>
0.698661506175995

> <i_i_glide_confnum>
2

> <i_i_glide_posenum>
141

> <r_i_glide_eff_state_penalty>
0

> <s_user_duplicate_titles>
125528

> <s_m_subgroup_title>
dock_pv

> <s_m_subgroupid>
dock_pv1

> <b_m_subgroup_collapsed>
0

$$$$
322833
                    3D
 Schrodinger Suite 2021-1.
 31 33  0  0  1  0            999 V2000
   33.2726   -0.6939   29.0862 C   0  0  0  0  0  0
   32.9488    0.0387   30.2220 C   0  0  0  0  0  0
   31.7657    0.7579   30.2868 C   0  0  0  0  0  0
   30.8857    0.7644   29.2077 C   0  0  0  0  0  0
   31.1735    0.0198   28.0202 C   0  0  0  0  0  0
   32.3948   -0.7179   27.9738 C   0  0  0  0  0  0
   32.7167   -1.4593   26.8166 C   0  0  0  0  0  0
   31.8744   -1.5109   25.6977 C   0  0  0  0  0  0
   30.6704   -0.7978   25.7650 C   0  0  0  0  0  0
   30.3102   -0.0314   26.8795 C   0  0  0  0  0  0
   29.0525    0.7099   26.8393 C   0  0  0  0  0  0
   28.0603    1.3026   26.8143 N   0  0  0  0  0  0
   32.2572   -2.3209   24.4839 C   0  0  0  0  0  0
   33.2103   -3.3418   24.5702 C   0  0  0  0  0  0
   33.5347   -4.1191   23.4639 C   0  0  0  0  0  0
   32.9140   -3.9388   22.2414 C   0  0  0  0  0  0
   31.9466   -2.9534   22.1279 C   0  0  0  0  0  0
   31.6600   -2.1305   23.2254 C   0  0  0  0  0  0
   31.2601   -2.8352   20.9681 F   0  0  0  0  0  0
   33.2598   -4.7345   21.1780 O   0  0  0  0  0  0
   31.4730    1.4580   31.4250 O   0  0  0  0  0  0
   34.1995   -1.2494   29.0550 H   0  0  0  0  0  0
   33.6268    0.0478   31.0630 H   0  0  0  0  0  0
   29.9715    1.3346   29.2795 H   0  0  0  0  0  0
   33.6594   -1.9812   26.8196 H   0  0  0  0  0  0
   29.9878   -0.8342   24.9276 H   0  0  0  0  0  0
   33.6857   -3.5939   25.5033 H   0  0  0  0  0  0
   34.2043   -4.9389   23.5892 H   0  0  0  0  0  0
   30.9134   -1.3697   23.0951 H   0  0  0  0  0  0
   32.5041   -5.0546   20.6634 H   0  0  0  0  0  0
   30.6452    1.9393   31.3687 H   0  0  0  0  0  0
  1  6  1  0  0  0
  1  2  2  0  0  0
  1 22  1  0  0  0
  2  3  1  0  0  0
  2 23  1  0  0  0
  3  4  2  0  0  0
  3 21  1  0  0  0
  4  5  1  0  0  0
  4 24  1  0  0  0
  5 10  2  0  0  0
  5  6  1  0  0  0
  6  7  2  0  0  0
  7  8  1  0  0  0
  7 25  1  0  0  0
  8  9  2  0  0  0
  8 13  1  0  0  0
  9 10  1  0  0  0
  9 26  1  0  0  0
 10 11  1  0  0  0
 11 12  3  0  0  0
 13 18  1  0  0  0
 13 14  2  0  0  0
 14 15  1  0  0  0
 14 27  1  0  0  0
 15 16  2  0  0  0
 15 28  1  0  0  0
 16 17  1  0  0  0
 16 20  1  0  0  0
 17 18  2  0  0  0
 17 19  1  0  0  0
 18 29  1  0  0  0
 20 30  1  0  0  0
 21 31  1  0  0  0
M  END
> <s_m_entry_id>
17475

> <s_m_entry_name>
ligand_docking-pose.402

> <s_m_Source_Path>
/home/csk/Desktop/cluster/DUD-E-result/esr1

> <s_m_Source_File>
ligand_docking-pose.sdf

> <i_m_Source_File_Index>
402

> <i_lp_mmshare_version>
53161

> <i_f3d_flags>
0

> <r_lp_tautomer_probability>
0.999999999997365

> <s_lp_Force_Field>
OPLS_2005

> <r_lp_Energy>
17.745511

> <b_lp_Chiralities_Consistent>
1

> <s_lp_Variant>
322833-1

> <s_i_glide_gridfile>
glide-grid_1sj0

> <i_i_glide_lignum>
127

> <i_i_glide_rotatable_bonds>
3

> <r_i_docking_score>
-8.23198410401112

> <r_i_glide_ligand_efficiency>
-0.391999243048149

> <r_i_glide_ligand_efficiency_sa>
-1.08149618767109

> <r_i_glide_ligand_efficiency_ln>
-2.03534143542661

> <r_i_glide_gscore>
-8.23198410401112

> <r_i_glide_lipo>
-3.67341229228441

> <r_i_glide_hbond>
-0.16

> <r_i_glide_metal>
0

> <r_i_glide_rewards>
-2.74557166993785

> <r_i_glide_evdw>
-29.9075393676758

> <r_i_glide_ecoul>
-2.30047345161438

> <r_i_glide_erotb>
0.231316312571725

> <r_i_glide_esite>
-0.0438684682346406

> <r_i_glide_emodel>
-46.1055640868815

> <r_i_glide_energy>
-32.2080128192902

> <r_i_glide_einternal>
3.11439561843872

> <i_i_glide_confnum>
2

> <i_i_glide_posenum>
337

> <r_i_glide_eff_state_penalty>
0

> <s_user_duplicate_titles>
322833

> <s_m_subgroup_title>
dock_pv

> <s_m_subgroupid>
dock_pv1

> <b_m_subgroup_collapsed>
0

$$$$
373392
                    3D
 Schrodinger Suite 2021-1.
 34 36  0  0  1  0            999 V2000
   32.6798    0.9126   29.9830 C   0  0  0  0  0  0
   32.3752    1.6912   28.6909 C   0  0  0  0  0  0
   31.7171    0.8296   27.7172 N   0  0  0  0  0  0
   30.3640    0.6548   27.4854 C   0  0  0  0  0  0
   29.2203    1.2898   27.9760 C   0  0  0  0  0  0
   27.9983    0.8165   27.5021 C   0  0  0  0  0  0
   27.8977   -0.2849   26.6635 C   0  0  0  0  0  0
   29.0358   -0.8997   26.1579 C   0  0  0  0  0  0
   30.2854   -0.4051   26.5496 C   0  0  0  0  0  0
   31.6345   -0.6985   26.2219 C   0  0  0  0  0  0
   32.4609   -0.0109   26.9710 N   0  0  0  0  0  0
   32.0975   -1.6378   25.1744 C   0  0  0  0  0  0
   31.6577   -1.4398   23.8635 C   0  0  0  0  0  0
   32.0770   -2.2925   22.8424 C   0  0  0  0  0  0
   32.9685   -3.3217   23.1212 C   0  0  0  0  0  0
   33.3999   -3.5259   24.4271 C   0  0  0  0  0  0
   32.9302   -2.7206   25.4602 C   0  0  0  0  0  0
   33.2600   -3.0106   26.7548 O   0  0  0  0  0  0
   33.4080   -4.1421   22.1221 O   0  0  0  0  0  0
   26.8602    1.4580   27.8638 O   0  0  0  0  0  0
   33.1658    1.5513   30.7206 H   0  0  0  0  0  0
   31.7677    0.5226   30.4364 H   0  0  0  0  0  0
   33.3461    0.0701   29.7939 H   0  0  0  0  0  0
   33.2937    2.0833   28.2494 H   0  0  0  0  0  0
   31.7287    2.5447   28.8969 H   0  0  0  0  0  0
   29.2691    2.1230   28.6603 H   0  0  0  0  0  0
   26.9278   -0.6450   26.3506 H   0  0  0  0  0  0
   28.9562   -1.7302   25.4722 H   0  0  0  0  0  0
   30.9905   -0.6221   23.6328 H   0  0  0  0  0  0
   31.7256   -2.1420   21.8327 H   0  0  0  0  0  0
   34.0600   -4.3470   24.6422 H   0  0  0  0  0  0
   32.9121   -2.3425   27.3509 H   0  0  0  0  0  0
   32.8941   -4.0776   21.3134 H   0  0  0  0  0  0
   26.0831    1.1514   27.3889 H   0  0  0  0  0  0
  1  2  1  0  0  0
  1 21  1  0  0  0
  1 22  1  0  0  0
  1 23  1  0  0  0
  2  3  1  0  0  0
  2 24  1  0  0  0
  2 25  1  0  0  0
  3 11  1  0  0  0
  3  4  1  0  0  0
  4  9  2  0  0  0
  4  5  1  0  0  0
  5  6  2  0  0  0
  5 26  1  0  0  0
  6  7  1  0  0  0
  6 20  1  0  0  0
  7  8  2  0  0  0
  7 27  1  0  0  0
  8  9  1  0  0  0
  8 28  1  0  0  0
  9 10  1  0  0  0
 10 11  2  0  0  0
 10 12  1  0  0  0
 12 17  1  0  0  0
 12 13  2  0  0  0
 13 14  1  0  0  0
 13 29  1  0  0  0
 14 15  2  0  0  0
 14 30  1  0  0  0
 15 16  1  0  0  0
 15 19  1  0  0  0
 16 17  2  0  0  0
 16 31  1  0  0  0
 17 18  1  0  0  0
 18 32  1  0  0  0
 19 33  1  0  0  0
 20 34  1  0  0  0
M  END
> <s_m_entry_id>
17476

> <s_m_entry_name>
ligand_docking-pose.403

> <s_m_Source_Path>
/home/csk/Desktop/cluster/DUD-E-result/esr1

> <s_m_Source_File>
ligand_docking-pose.sdf

> <i_m_Source_File_Index>
403

> <i_lp_mmshare_version>
53161

> <i_f3d_flags>
0

> <r_lp_tautomer_probability>
0.999999999898

> <s_lp_Force_Field>
OPLS_2005

> <r_lp_Energy>
20.140782

> <b_lp_Chiralities_Consistent>
1

> <s_lp_Variant>
373392-1

> <s_i_glide_gridfile>
glide-grid_1sj0

> <i_i_glide_lignum>
1612

> <i_i_glide_rotatable_bonds>
5

> <r_i_docking_score>
-8.23073767025647

> <r_i_glide_ligand_efficiency>
-0.411536883512824

> <r_i_glide_ligand_efficiency_sa>
-1.11708296537028

> <r_i_glide_ligand_efficiency_ln>
-2.05988217096829

> <r_i_glide_gscore>
-8.23073767025647

> <r_i_glide_lipo>
-4.08172263352492

> <r_i_glide_hbond>
-0.131216733013448

> <r_i_glide_metal>
0

> <r_i_glide_rewards>
-2.31154020525322

> <r_i_glide_evdw>
-31.072961807251

> <r_i_glide_ecoul>
-2.64940547943115

> <r_i_glide_erotb>
0.244800813812343

> <r_i_glide_esite>
0

> <r_i_glide_emodel>
-45.8332529651479

> <r_i_glide_energy>
-33.7223672866821

> <r_i_glide_einternal>
4.91239881515503

> <i_i_glide_confnum>
4

> <i_i_glide_posenum>
167

> <r_i_glide_eff_state_penalty>
0

> <s_user_duplicate_titles>
373392

> <s_m_subgroup_title>
dock_pv

> <s_m_subgroupid>
dock_pv1

> <b_m_subgroup_collapsed>
0

$$$$
215739
                    3D
 Schrodinger Suite 2021-1.
 41 43  0  0  1  0            999 V2000
   33.2600   -3.9866   27.0576 C   0  0  0  0  0  0
   33.6335   -3.2414   25.8640 N   0  0  0  0  0  0
   32.6921   -2.3476   25.3581 C   0  0  0  0  0  0
   32.4731   -2.4212   23.9725 C   0  0  0  0  0  0
   31.4229   -1.6855   23.4640 C   0  0  0  0  0  0
   30.5777   -0.9420   24.2639 C   0  0  0  0  0  0
   30.8014   -0.8306   25.6197 C   0  0  0  0  0  0
   31.9125   -1.4881   26.1845 C   0  0  0  0  0  0
   32.1623   -1.2745   27.6382 C   0  0  0  0  0  0
   31.1869   -1.6965   28.5396 C   0  0  0  0  0  0
   31.2600   -1.3140   29.8640 C   0  0  0  0  0  0
   32.3254   -0.5420   30.3200 C   0  0  0  0  0  0
   33.3443   -0.1765   29.4499 C   0  0  0  0  0  0
   33.2623   -0.5443   28.1113 C   0  0  0  0  0  0
   29.8091   -0.0375   26.3955 C   0  0  0  0  0  0
   30.2020    1.0748   27.1446 C   0  0  0  0  0  0
   29.2600    1.8112   27.8502 C   0  0  0  0  0  0
   27.9172    1.4580   27.7724 C   0  0  0  0  0  0
   27.5139    0.3340   27.0640 C   0  0  0  0  0  0
   28.4610   -0.4140   26.3773 C   0  0  0  0  0  0
   33.2492   -3.2564   23.0234 C   0  0  0  0  0  0
   32.6991   -3.8572   22.0486 N   0  0  0  0  0  0
   33.6264   -4.5420   21.2558 O   0  0  0  0  0  0
   33.7296   -4.9643   27.0739 H   0  0  0  0  0  0
   33.5513   -3.4623   27.9679 H   0  0  0  0  0  0
   32.1826   -4.1420   27.0640 H   0  0  0  0  0  0
   34.0600   -3.8269   25.1592 H   0  0  0  0  0  0
   31.2600   -1.7420   22.4050 H   0  0  0  0  0  0
   29.7331   -0.4296   23.8399 H   0  0  0  0  0  0
   30.3363   -2.2695   28.1984 H   0  0  0  0  0  0
   30.4989   -1.6535   30.5480 H   0  0  0  0  0  0
   32.3799   -0.2580   31.3604 H   0  0  0  0  0  0
   34.1853    0.4012   29.8055 H   0  0  0  0  0  0
   34.0485   -0.2045   27.4640 H   0  0  0  0  0  0
   31.2409    1.3688   27.1804 H   0  0  0  0  0  0
   29.5726    2.6580   28.4387 H   0  0  0  0  0  0
   27.1707    2.0588   28.2643 H   0  0  0  0  0  0
   26.4702    0.0560   27.0336 H   0  0  0  0  0  0
   28.1438   -1.2859   25.8235 H   0  0  0  0  0  0
   34.3186   -3.3082   23.2175 H   0  0  0  0  0  0
   33.0498   -5.0450   20.6640 H   0  0  0  0  0  0
  1  2  1  0  0  0
  1 24  1  0  0  0
  1 25  1  0  0  0
  1 26  1  0  0  0
  2  3  1  0  0  0
  2 27  1  0  0  0
  3  8  1  0  0  0
  3  4  2  0  0  0
  4  5  1  0  0  0
  4 21  1  0  0  0
  5  6  2  0  0  0
  5 28  1  0  0  0
  6  7  1  0  0  0
  6 29  1  0  0  0
  7  8  2  0  0  0
  7 15  1  0  0  0
  8  9  1  0  0  0
  9 14  1  0  0  0
  9 10  2  0  0  0
 10 11  1  0  0  0
 10 30  1  0  0  0
 11 12  2  0  0  0
 11 31  1  0  0  0
 12 13  1  0  0  0
 12 32  1  0  0  0
 13 14  2  0  0  0
 13 33  1  0  0  0
 14 34  1  0  0  0
 15 20  1  0  0  0
 15 16  2  0  0  0
 16 17  1  0  0  0
 16 35  1  0  0  0
 17 18  2  0  0  0
 17 36  1  0  0  0
 18 19  1  0  0  0
 18 37  1  0  0  0
 19 20  2  0  0  0
 19 38  1  0  0  0
 20 39  1  0  0  0
 21 22  2  0  0  0
 21 40  1  0  0  0
 22 23  1  0  0  0
 23 41  1  0  0  0
M  END
> <s_m_entry_id>
17477

> <s_m_entry_name>
ligand_docking-pose.404

> <s_m_Source_Path>
/home/csk/Desktop/cluster/DUD-E-result/esr1

> <s_m_Source_File>
ligand_docking-pose.sdf

> <i_m_Source_File_Index>
404

> <i_lp_mmshare_version>
53161

> <i_f3d_flags>
0

> <r_lp_tautomer_probability>
1

> <s_lp_Force_Field>
OPLS_2005

> <r_lp_Energy>
35.444453

> <b_lp_Chiralities_Consistent>
1

> <s_lp_Variant>
215739-1

> <s_i_glide_gridfile>
glide-grid_1sj0

> <i_i_glide_lignum>
1695

> <i_i_glide_rotatable_bonds>
5

> <r_i_docking_score>
-8.22825930549484

> <r_i_glide_ligand_efficiency>
-0.357750404586732

> <r_i_glide_ligand_efficiency_sa>
-1.0173945615694

> <r_i_glide_ligand_efficiency_ln>
-1.98966770979902

> <r_i_glide_gscore>
-8.22825930549484

> <r_i_glide_lipo>
-4.81934153624767

> <r_i_glide_hbond>
-0.0136026840807027

> <r_i_glide_metal>
0

> <r_i_glide_rewards>
-2.63716293561076

> <r_i_glide_evdw>
-27.5837249755859

> <r_i_glide_ecoul>
-0.668611347675323

> <r_i_glide_erotb>
0.805494328942217

> <r_i_glide_esite>
-0.0841685275673392

> <r_i_glide_emodel>
-29.979463617839

> <r_i_glide_energy>
-28.2523363232613

> <r_i_glide_einternal>
2.29101014137268

> <i_i_glide_confnum>
65

> <i_i_glide_posenum>
50

> <r_i_glide_eff_state_penalty>
0

> <s_user_duplicate_titles>
215739

> <s_m_subgroup_title>
dock_pv

> <s_m_subgroupid>
dock_pv1

> <b_m_subgroup_collapsed>
0

$$$$
313616
                    3D
 Schrodinger Suite 2021-1.
 32 35  0  0  1  0            999 V2000
   28.7296    0.7749   27.0501 C   0  0  0  0  0  0
   29.2610    1.2050   28.2542 C   0  0  0  0  0  0
   30.5643    0.8207   28.6377 C   0  0  0  0  0  0
   31.0910    1.2466   29.8794 C   0  0  0  0  0  0
   32.3725    0.8834   30.2642 C   0  0  0  0  0  0
   33.1594    0.0977   29.4378 C   0  0  0  0  0  0
   32.6724   -0.3393   28.2099 C   0  0  0  0  0  0
   31.3555   -0.0014   27.7669 C   0  0  0  0  0  0
   30.7872   -0.4296   26.5112 C   0  0  0  0  0  0
   29.4769   -0.0299   26.2038 C   0  0  0  0  0  0
   31.4843   -1.2683   25.4648 C   0  0  0  0  0  0
   32.6458   -1.8894   25.5477 N   0  0  0  0  0  0
   32.8291   -2.4329   24.3095 C   0  0  0  0  0  0
   33.8970   -3.1465   23.7533 C   0  0  0  0  0  0
   33.7952   -3.5494   22.4146 C   0  0  0  0  0  0
   32.6305   -3.3360   21.6704 C   0  0  0  0  0  0
   31.5527   -2.6694   22.2285 C   0  0  0  0  0  0
   31.7055   -2.1760   23.5250 C   0  0  0  0  0  0
   30.8590   -1.4060   24.2535 O   0  0  0  0  0  0
   32.5243   -3.7420   20.3674 O   0  0  0  0  0  0
   34.8505   -4.1419   21.8286 F   0  0  0  0  0  0
   32.8596    1.3125   31.4640 O   0  0  0  0  0  0
   27.7290    1.0686   26.7670 H   0  0  0  0  0  0
   28.6747    1.8343   28.9082 H   0  0  0  0  0  0
   30.4822    1.8578   30.5277 H   0  0  0  0  0  0
   34.1575   -0.1746   29.7502 H   0  0  0  0  0  0
   33.3319   -0.9412   27.6114 H   0  0  0  0  0  0
   29.0102   -0.3330   25.2779 H   0  0  0  0  0  0
   34.7872   -3.3418   24.3280 H   0  0  0  0  0  0
   30.6460   -2.5420   21.6599 H   0  0  0  0  0  0
   32.1040   -4.6133   20.2642 H   0  0  0  0  0  0
   32.2333    1.8708   31.9281 H   0  0  0  0  0  0
  1 10  1  0  0  0
  1  2  2  0  0  0
  1 23  1  0  0  0
  2  3  1  0  0  0
  2 24  1  0  0  0
  3  8  2  0  0  0
  3  4  1  0  0  0
  4  5  2  0  0  0
  4 25  1  0  0  0
  5  6  1  0  0  0
  5 22  1  0  0  0
  6  7  2  0  0  0
  6 26  1  0  0  0
  7  8  1  0  0  0
  7 27  1  0  0  0
  8  9  1  0  0  0
  9 10  2  0  0  0
  9 11  1  0  0  0
 10 28  1  0  0  0
 11 19  1  0  0  0
 11 12  2  0  0  0
 12 13  1  0  0  0
 13 18  2  0  0  0
 13 14  1  0  0  0
 14 15  2  0  0  0
 14 29  1  0  0  0
 15 16  1  0  0  0
 15 21  1  0  0  0
 16 17  2  0  0  0
 16 20  1  0  0  0
 17 18  1  0  0  0
 17 30  1  0  0  0
 18 19  1  0  0  0
 20 31  1  0  0  0
 22 32  1  0  0  0
M  END
> <s_m_entry_id>
17478

> <s_m_entry_name>
ligand_docking-pose.405

> <s_m_Source_Path>
/home/csk/Desktop/cluster/DUD-E-result/esr1

> <s_m_Source_File>
ligand_docking-pose.sdf

> <i_m_Source_File_Index>
405

> <i_lp_mmshare_version>
53161

> <i_f3d_flags>
0

> <r_lp_tautomer_probability>
1

> <s_lp_Force_Field>
OPLS_2005

> <r_lp_Energy>
20.239127

> <b_lp_Chiralities_Consistent>
1

> <s_lp_Variant>
313616-1

> <s_i_glide_gridfile>
glide-grid_1sj0

> <i_i_glide_lignum>
47

> <i_i_glide_rotatable_bonds>
3

> <r_i_docking_score>
-8.2268015370398

> <r_i_glide_ligand_efficiency>
-0.3739455244109

> <r_i_glide_ligand_efficiency_sa>
-1.04781006584229

> <r_i_glide_ligand_efficiency_ln>
-2.0109303755297

> <r_i_glide_gscore>
-8.2268015370398

> <r_i_glide_lipo>
-4.13541502961397

> <r_i_glide_hbond>
-0.16

> <r_i_glide_metal>
0

> <r_i_glide_rewards>
-2.12730741022832

> <r_i_glide_evdw>
-31.9466094970703

> <r_i_glide_ecoul>
-2.74849486351013

> <r_i_glide_erotb>
0.209926262947753

> <r_i_glide_esite>
-0.00440065576522761

> <r_i_glide_emodel>
-50.1644973469489

> <r_i_glide_energy>
-34.6951043605804

> <r_i_glide_einternal>
2.13523459434509

> <i_i_glide_confnum>
4

> <i_i_glide_posenum>
231

> <r_i_glide_eff_state_penalty>
0

> <s_user_duplicate_titles>
313616

> <s_m_subgroup_title>
dock_pv

> <s_m_subgroupid>
dock_pv1

> <b_m_subgroup_collapsed>
0

$$$$
339097
                    3D
 Schrodinger Suite 2021-1.
 32 34  0  0  1  0            999 V2000
   34.1376    1.8789   26.8547 C   0  0  0  0  0  0
   35.0876    1.9224   27.8642 C   0  0  0  0  0  0
   34.7699    1.4579   29.1364 C   0  0  0  0  0  0
   33.4990    0.9532   29.4061 C   0  0  0  0  0  0
   32.5863    0.7415   28.3485 C   0  0  0  0  0  0
   32.9063    1.2868   27.0956 C   0  0  0  0  0  0
   31.4644   -0.1211   28.5036 N   0  0  0  0  0  0
   31.7589   -1.4673   28.9840 C   0  0  0  0  0  0
   32.6813   -2.1522   27.9542 C   0  0  0  0  0  0
   32.2027   -2.0905   26.5049 C   0  0  0  0  0  0
   32.8602   -2.8703   25.5482 C   0  0  0  0  0  0
   32.5779   -2.7460   24.1950 C   0  0  0  0  0  0
   31.6203   -1.8329   23.7710 C   0  0  0  0  0  0
   30.9096   -1.0807   24.7073 C   0  0  0  0  0  0
   31.1834   -1.2124   26.0736 C   0  0  0  0  0  0
   30.2019   -0.2313   27.2387 S   0  0  0  0  0  0
   29.8813    1.0798   26.6640 O   0  0  0  0  0  0
   29.0879   -1.0684   27.7008 O   0  0  0  0  0  0
   33.2461   -3.5219   23.2876 O   0  0  0  0  0  0
   33.1032    0.6305   31.0637 Cl  0  0  0  0  0  0
   34.3745    2.2573   25.8708 H   0  0  0  0  0  0
   36.0601    2.3447   27.6695 H   0  0  0  0  0  0
   35.4985    1.5489   29.9284 H   0  0  0  0  0  0
   32.2460    1.1931   26.2565 H   0  0  0  0  0  0
   32.3219   -1.4449   29.9092 H   0  0  0  0  0  0
   30.8555   -2.0455   29.1860 H   0  0  0  0  0  0
   32.8678   -3.1866   28.2381 H   0  0  0  0  0  0
   33.6596   -1.6742   27.9906 H   0  0  0  0  0  0
   33.6349   -3.5600   25.8523 H   0  0  0  0  0  0
   31.4011   -1.7422   22.7176 H   0  0  0  0  0  0
   30.1379   -0.4006   24.3711 H   0  0  0  0  0  0
   32.8973   -3.4480   22.3970 H   0  0  0  0  0  0
  1  6  1  0  0  0
  1  2  2  0  0  0
  1 21  1  0  0  0
  2  3  1  0  0  0
  2 22  1  0  0  0
  3  4  2  0  0  0
  3 23  1  0  0  0
  4  5  1  0  0  0
  4 20  1  0  0  0
  5  6  2  0  0  0
  5  7  1  0  0  0
  6 24  1  0  0  0
  7 16  1  0  0  0
  7  8  1  0  0  0
  8  9  1  0  0  0
  8 25  1  0  0  0
  8 26  1  0  0  0
  9 10  1  0  0  0
  9 27  1  0  0  0
  9 28  1  0  0  0
 10 15  2  0  0  0
 10 11  1  0  0  0
 11 12  2  0  0  0
 11 29  1  0  0  0
 12 13  1  0  0  0
 12 19  1  0  0  0
 13 14  2  0  0  0
 13 30  1  0  0  0
 14 15  1  0  0  0
 14 31  1  0  0  0
 15 16  1  0  0  0
 16 17  2  0  0  0
 16 18  2  0  0  0
 19 32  1  0  0  0
M  END
> <s_m_entry_id>
17479

> <s_m_entry_name>
ligand_docking-pose.406

> <s_m_Source_Path>
/home/csk/Desktop/cluster/DUD-E-result/esr1

> <s_m_Source_File>
ligand_docking-pose.sdf

> <i_m_Source_File_Index>
406

> <i_lp_mmshare_version>
53161

> <i_f3d_flags>
0

> <r_lp_tautomer_probability>
0.999999999997365

> <s_lp_Force_Field>
OPLS_2005

> <r_lp_Energy>
17.734616

> <b_lp_Chiralities_Consistent>
1

> <s_lp_Variant>
339097-1

> <s_i_glide_gridfile>
glide-grid_1sj0

> <i_i_glide_lignum>
624

> <i_i_glide_rotatable_bonds>
2

> <r_i_docking_score>
-8.22433160710341

> <r_i_glide_ligand_efficiency>
-0.411216580355171

> <r_i_glide_ligand_efficiency_sa>
-1.11621352883736

> <r_i_glide_ligand_efficiency_ln>
-2.05827894464719

> <r_i_glide_gscore>
-8.22433160710341

> <r_i_glide_lipo>
-3.94666522197429

> <r_i_glide_hbond>
0

> <r_i_glide_metal>
0

> <r_i_glide_rewards>
-2.44628496168878

> <r_i_glide_evdw>
-37.4811897277832

> <r_i_glide_ecoul>
-1.00224256515503

> <r_i_glide_erotb>
0.193014447722069

> <r_i_glide_esite>
0

> <r_i_glide_emodel>
-55.3080522380742

> <r_i_glide_energy>
-38.4834322929382

> <r_i_glide_einternal>
0.732783198356628

> <i_i_glide_confnum>
3

> <i_i_glide_posenum>
169

> <r_i_glide_eff_state_penalty>
0

> <s_user_duplicate_titles>
339097

> <s_m_subgroup_title>
dock_pv

> <s_m_subgroupid>
dock_pv1

> <b_m_subgroup_collapsed>
0

$$$$
222932
                    3D
 Schrodinger Suite 2021-1.
 34 35  0  0  1  0            999 V2000
   31.8963    1.1739   27.1128 C   0  0  0  0  0  0
   32.0327   -0.3184   27.4958 C   0  0  2  0  0  0
   32.1176   -1.2640   26.2979 C   0  0  0  0  0  0
   32.8601   -2.4403   26.4226 C   0  0  0  0  0  0
   33.0510   -3.2651   25.3213 C   0  0  0  0  0  0
   32.4597   -2.9404   24.1045 C   0  0  0  0  0  0
   31.6636   -1.8049   23.9902 C   0  0  0  0  0  0
   31.4921   -0.9658   25.0836 C   0  0  0  0  0  0
   32.6665   -3.7492   23.0223 O   0  0  0  0  0  0
   31.0125   -0.7938   28.5626 C   0  0  1  0  0  0
   31.1405    0.0261   29.7844 C   0  0  0  0  0  0
   31.2601    0.6710   30.7401 N   0  0  0  0  0  0
   29.5685   -0.9248   28.0512 C   0  0  0  0  0  0
   28.7312    0.1904   27.9392 C   0  0  0  0  0  0
   27.4272    0.0440   27.4640 C   0  0  0  0  0  0
   26.9536   -1.2152   27.1064 C   0  0  0  0  0  0
   27.7797   -2.3309   27.2050 C   0  0  0  0  0  0
   29.0847   -2.1841   27.6734 C   0  0  0  0  0  0
   25.6627   -1.3420   26.6640 O   0  0  0  0  0  0
   33.0165   -0.3705   27.9678 H   0  0  0  0  0  0
   31.3196   -1.7872   28.8916 H   0  0  0  0  0  0
   32.6446    1.4618   26.3734 H   0  0  0  0  0  0
   30.9178    1.4050   26.6949 H   0  0  0  0  0  0
   32.0388    1.8236   27.9779 H   0  0  0  0  0  0
   33.3300   -2.6938   27.3611 H   0  0  0  0  0  0
   33.6608   -4.1488   25.4074 H   0  0  0  0  0  0
   31.1807   -1.5617   23.0632 H   0  0  0  0  0  0
   30.8827   -0.0858   24.9709 H   0  0  0  0  0  0
   32.1582   -3.5081   22.2446 H   0  0  0  0  0  0
   29.0852    1.1710   28.2235 H   0  0  0  0  0  0
   26.7806    0.9054   27.3857 H   0  0  0  0  0  0
   27.4160   -3.3069   26.9200 H   0  0  0  0  0  0
   29.7207   -3.0541   27.7373 H   0  0  0  0  0  0
   25.4219   -2.2158   26.3019 H   0  0  0  0  0  0
  1  2  1  0  0  0
  1 22  1  0  0  0
  1 23  1  0  0  0
  1 24  1  0  0  0
  2 20  1  0  0  0
  2  3  1  0  0  0
  2 10  1  0  0  0
  3  8  1  0  0  0
  3  4  2  0  0  0
  4  5  1  0  0  0
  4 25  1  0  0  0
  5  6  2  0  0  0
  5 26  1  0  0  0
  6  7  1  0  0  0
  6  9  1  0  0  0
  7  8  2  0  0  0
  7 27  1  0  0  0
  8 28  1  0  0  0
  9 29  1  0  0  0
 10 21  1  0  0  0
 10 11  1  0  0  0
 10 13  1  0  0  0
 11 12  3  0  0  0
 13 18  1  0  0  0
 13 14  2  0  0  0
 14 15  1  0  0  0
 14 30  1  0  0  0
 15 16  2  0  0  0
 15 31  1  0  0  0
 16 17  1  0  0  0
 16 19  1  0  0  0
 17 18  2  0  0  0
 17 32  1  0  0  0
 18 33  1  0  0  0
 19 34  1  0  0  0
M  END
> <s_m_entry_id>
17480

> <s_m_entry_name>
ligand_docking-pose.407

> <s_m_Source_Path>
/home/csk/Desktop/cluster/DUD-E-result/esr1

> <s_m_Source_File>
ligand_docking-pose.sdf

> <i_m_Source_File_Index>
407

> <i_lp_mmshare_version>
53161

> <i_f3d_flags>
0

> <r_lp_tautomer_probability>
0.99999999999473

> <s_lp_Force_Field>
OPLS_2005

> <r_lp_Energy>
12.171238

> <b_lp_Chiralities_Consistent>
1

> <s_lp_Variant>
222932-1

> <s_i_glide_gridfile>
glide-grid_1sj0

> <i_i_glide_lignum>
1586

> <i_i_glide_rotatable_bonds>
5

> <r_i_docking_score>
-8.21994642171001

> <r_i_glide_ligand_efficiency>
-0.432628759037369

> <r_i_glide_ligand_efficiency_sa>
-1.1544272927668

> <r_i_glide_ligand_efficiency_ln>
-2.08393296616471

> <r_i_glide_gscore>
-8.21994642171001

> <r_i_glide_lipo>
-3.80303655277647

> <r_i_glide_hbond>
-0.16

> <r_i_glide_metal>
0

> <r_i_glide_rewards>
-2.6321769229256

> <r_i_glide_evdw>
-33.862174987793

> <r_i_glide_ecoul>
-5.01973485946655

> <r_i_glide_erotb>
0.8213360323017

> <r_i_glide_esite>
0

> <r_i_glide_emodel>
-58.0941205797151

> <r_i_glide_energy>
-38.8819098472595

> <r_i_glide_einternal>
1.41697752475739

> <i_i_glide_confnum>
1

> <i_i_glide_posenum>
336

> <r_i_glide_eff_state_penalty>
0

> <s_user_duplicate_titles>
222932

> <s_m_subgroup_title>
dock_pv

> <s_m_subgroupid>
dock_pv1

> <b_m_subgroup_collapsed>
0

$$$$
322873
                    3D
 Schrodinger Suite 2021-1.
 29 31  0  0  1  0            999 V2000
   31.5544    1.2589   30.8534 C   0  0  0  0  0  0
   32.8239    0.6984   30.7690 C   0  0  0  0  0  0
   33.2074   -0.0181   29.6388 C   0  0  0  0  0  0
   32.3004   -0.1882   28.5626 C   0  0  0  0  0  0
   32.6573   -0.9122   27.4038 C   0  0  0  0  0  0
   31.7559   -1.0974   26.3470 C   0  0  0  0  0  0
   30.4749   -0.5394   26.4552 C   0  0  0  0  0  0
   30.0922    0.1980   27.5740 C   0  0  0  0  0  0
   30.9963    0.3841   28.6485 C   0  0  0  0  0  0
   30.6434    1.1170   29.8085 C   0  0  0  0  0  0
   32.1574   -1.8847   25.1430 C   0  0  0  0  0  0
   31.6722   -1.5718   23.8622 C   0  0  0  0  0  0
   32.0579   -2.3325   22.7543 C   0  0  0  0  0  0
   32.9420   -3.3872   22.9093 C   0  0  0  0  0  0
   33.4343   -3.6973   24.1641 C   0  0  0  0  0  0
   33.0350   -2.9687   25.2782 C   0  0  0  0  0  0
   33.3089   -4.1424   21.8294 O   0  0  0  0  0  0
   31.2747    1.8177   31.7364 H   0  0  0  0  0  0
   33.5176    0.8232   31.5881 H   0  0  0  0  0  0
   34.1966   -0.4525   29.5825 H   0  0  0  0  0  0
   33.6568   -1.3227   27.3527 H   0  0  0  0  0  0
   29.7543   -0.6824   25.6612 H   0  0  0  0  0  0
   29.0989    0.6234   27.6304 H   0  0  0  0  0  0
   29.6602    1.5597   29.8823 H   0  0  0  0  0  0
   30.9867   -0.7491   23.7192 H   0  0  0  0  0  0
   31.6599   -2.1381   21.7723 H   0  0  0  0  0  0
   34.0814   -4.5420   24.2654 H   0  0  0  0  0  0
   33.4013   -3.2637   26.2511 H   0  0  0  0  0  0
   32.7056   -4.0857   21.0827 H   0  0  0  0  0  0
  1 10  1  0  0  0
  1  2  2  0  0  0
  1 18  1  0  0  0
  2  3  1  0  0  0
  2 19  1  0  0  0
  3  4  2  0  0  0
  3 20  1  0  0  0
  4  9  1  0  0  0
  4  5  1  0  0  0
  5  6  2  0  0  0
  5 21  1  0  0  0
  6  7  1  0  0  0
  6 11  1  0  0  0
  7  8  2  0  0  0
  7 22  1  0  0  0
  8  9  1  0  0  0
  8 23  1  0  0  0
  9 10  2  0  0  0
 10 24  1  0  0  0
 11 16  1  0  0  0
 11 12  2  0  0  0
 12 13  1  0  0  0
 12 25  1  0  0  0
 13 14  2  0  0  0
 13 26  1  0  0  0
 14 15  1  0  0  0
 14 17  1  0  0  0
 15 16  2  0  0  0
 15 27  1  0  0  0
 16 28  1  0  0  0
 17 29  1  0  0  0
M  END
> <s_m_entry_id>
17481

> <s_m_entry_name>
ligand_docking-pose.408

> <s_m_Source_Path>
/home/csk/Desktop/cluster/DUD-E-result/esr1

> <s_m_Source_File>
ligand_docking-pose.sdf

> <i_m_Source_File_Index>
408

> <i_lp_mmshare_version>
53161

> <i_f3d_flags>
0

> <r_lp_tautomer_probability>
0.999999999997365

> <s_lp_Force_Field>
OPLS_2005

> <r_lp_Energy>
15.914082

> <b_lp_Chiralities_Consistent>
1

> <s_lp_Variant>
322873-1

> <s_i_glide_gridfile>
glide-grid_1sj0

> <i_i_glide_lignum>
111

> <i_i_glide_rotatable_bonds>
2

> <r_i_docking_score>
-8.21587665259034

> <r_i_glide_ligand_efficiency>
-0.483286861917079

> <r_i_glide_ligand_efficiency_sa>
-1.24266660988079

> <r_i_glide_ligand_efficiency_ln>
-2.14333926008316

> <r_i_glide_gscore>
-8.21587665259034

> <r_i_glide_lipo>
-4.27896269500026

> <r_i_glide_hbond>
0

> <r_i_glide_metal>
0

> <r_i_glide_rewards>
-2.72863646552833

> <r_i_glide_evdw>
-29.2804508209229

> <r_i_glide_ecoul>
-0.610384464263916

> <r_i_glide_erotb>
0.347302718623987

> <r_i_glide_esite>
0

> <r_i_glide_emodel>
-44.4837416365464

> <r_i_glide_energy>
-29.8908352851868

> <r_i_glide_einternal>
0.509099841117859

> <i_i_glide_confnum>
3

> <i_i_glide_posenum>
363

> <r_i_glide_eff_state_penalty>
0

> <s_user_duplicate_titles>
322873

> <s_m_subgroup_title>
dock_pv

> <s_m_subgroupid>
dock_pv1

> <b_m_subgroup_collapsed>
0

$$$$
354368
                    3D
 Schrodinger Suite 2021-1.
 34 37  0  0  1  0            999 V2000
   31.1905    1.4580   31.5478 C   0  0  0  0  0  0
   31.4685    0.4126   30.4827 C   0  0  0  0  0  0
   31.2989    0.8556   28.9840 C   0  0  1  0  0  0
   32.2490    1.9868   28.5248 C   0  0  0  0  0  0
   33.7259    1.6113   28.7104 C   0  0  0  0  0  0
   34.0526    0.1880   28.2640 C   0  0  0  0  0  0
   35.2305   -0.1420   28.2640 O   0  0  0  0  0  0
   32.9150   -0.6995   27.8874 C   0  0  0  0  0  0
   31.6252   -0.3725   28.1605 C   0  0  0  0  0  0
   30.3200   -1.0130   27.8820 C   0  0  0  0  0  0
   29.9986   -2.3026   27.4649 C   0  0  0  0  0  0
   28.6790   -2.7168   27.2813 C   0  0  0  0  0  0
   27.7066   -1.7242   27.2737 C   0  0  0  0  0  0
   27.9990   -0.3936   27.6396 C   0  0  0  0  0  0
   29.3020   -0.0761   28.0602 C   0  0  0  0  0  0
   29.8337    1.1535   28.6511 C   0  0  0  0  0  0
   29.2418    2.2155   28.8267 O   0  0  0  0  0  0
   26.7591    0.2825   27.4640 C   0  0  0  0  0  0
   25.8119   -0.5279   27.0642 N   0  0  0  0  0  0
   26.3664   -1.7420   26.9517 N   0  0  0  0  0  0
   33.2600   -2.3224   26.8100 Br  0  0  0  0  0  0
   25.8146   -2.5187   26.5877 H   0  0  0  0  0  0
   31.2600    1.0580   32.5540 H   0  0  0  0  0  0
   31.9184    2.2580   31.4812 H   0  0  0  0  0  0
   30.1921    1.8580   31.4238 H   0  0  0  0  0  0
   32.4841    0.0529   30.6547 H   0  0  0  0  0  0
   30.8600   -0.4655   30.6947 H   0  0  0  0  0  0
   32.0788    2.2232   27.4721 H   0  0  0  0  0  0
   32.0362    2.9054   29.0640 H   0  0  0  0  0  0
   34.3886    2.3072   28.1954 H   0  0  0  0  0  0
   33.9597    1.6384   29.7746 H   0  0  0  0  0  0
   30.7736   -3.0277   27.3208 H   0  0  0  0  0  0
   28.4356   -3.7420   27.0640 H   0  0  0  0  0  0
   26.5614    1.3309   27.6269 H   0  0  0  0  0  0
  1  2  1  0  0  0
  1 23  1  0  0  0
  1 24  1  0  0  0
  1 25  1  0  0  0
  2  3  1  0  0  0
  2 26  1  0  0  0
  2 27  1  0  0  0
  3  9  1  0  0  0
  3 16  1  0  0  0
  3  4  1  0  0  0
  4  5  1  0  0  0
  4 28  1  0  0  0
  4 29  1  0  0  0
  5  6  1  0  0  0
  5 30  1  0  0  0
  5 31  1  0  0  0
  6  7  2  0  0  0
  6  8  1  0  0  0
  8  9  2  0  0  0
  8 21  1  0  0  0
  9 10  1  0  0  0
 10 15  1  0  0  0
 10 11  2  0  0  0
 11 12  1  0  0  0
 11 32  1  0  0  0
 12 13  2  0  0  0
 12 33  1  0  0  0
 13 20  1  0  0  0
 13 14  1  0  0  0
 14 15  2  0  0  0
 14 18  1  0  0  0
 15 16  1  0  0  0
 16 17  2  0  0  0
 18 19  2  0  0  0
 18 34  1  0  0  0
 19 20  1  0  0  0
 20 22  1  0  0  0
M  END
> <s_m_entry_id>
17482

> <s_m_entry_name>
ligand_docking-pose.409

> <s_m_Source_Path>
/home/csk/Desktop/cluster/DUD-E-result/esr1

> <s_m_Source_File>
ligand_docking-pose.sdf

> <i_m_Source_File_Index>
409

> <i_lp_mmshare_version>
53161

> <i_f3d_flags>
0

> <r_lp_tautomer_probability>
1

> <s_lp_Force_Field>
OPLS_2005

> <r_lp_Energy>
46.41565

> <b_lp_Chiralities_Consistent>
1

> <s_lp_Variant>
354368-1

> <s_i_glide_gridfile>
glide-grid_1sj0

> <i_i_glide_lignum>
1093

> <i_i_glide_rotatable_bonds>
1

> <r_i_docking_score>
-8.21210545834018

> <r_i_glide_ligand_efficiency>
-0.391052640873342

> <r_i_glide_ligand_efficiency_sa>
-1.07888458404825

> <r_i_glide_ligand_efficiency_ln>
-2.03042648045306

> <r_i_glide_gscore>
-8.21210545834018

> <r_i_glide_lipo>
-3.38489846935709

> <r_i_glide_hbond>
-0.16

> <r_i_glide_metal>
0

> <r_i_glide_rewards>
-2.67955936809568

> <r_i_glide_evdw>
-30.2041492462158

> <r_i_glide_ecoul>
-2.86495876312256

> <r_i_glide_erotb>
0

> <r_i_glide_esite>
-0.0476963441082311

> <r_i_glide_emodel>
-45.4166693394334

> <r_i_glide_energy>
-33.0691080093384

> <r_i_glide_einternal>
0.00110790098551661

> <i_i_glide_confnum>
1

> <i_i_glide_posenum>
283

> <r_i_glide_eff_state_penalty>
0

> <s_user_duplicate_titles>
354368

> <s_m_subgroup_title>
dock_pv

> <s_m_subgroupid>
dock_pv1

> <b_m_subgroup_collapsed>
0

$$$$
339232
                    3D
 Schrodinger Suite 2021-1.
 41 43  0  0  1  0            999 V2000
   33.2646   -3.5414   23.6947 C   0  0  0  0  0  0
   32.4634   -2.6789   22.9599 C   0  0  0  0  0  0
   31.8573   -1.6117   23.6090 C   0  0  0  0  0  0
   32.0230   -1.4062   24.9751 C   0  0  0  0  0  0
   32.8089   -2.2918   25.7154 C   0  0  0  0  0  0
   33.4373   -3.3480   25.0625 C   0  0  0  0  0  0
   31.3729   -0.1442   25.5239 C   0  0  0  0  0  0
   31.3768    0.0868   26.9691 N   0  0  0  0  0  0
   32.5875    0.4069   27.5899 C   0  0  0  0  0  0
   33.3692    1.4805   27.1465 C   0  0  0  0  0  0
   34.5147    1.8316   27.8503 C   0  0  0  0  0  0
   34.8598    1.1140   28.9900 C   0  0  0  0  0  0
   34.1106    0.0230   29.4057 C   0  0  0  0  0  0
   32.9629   -0.3265   28.7143 C   0  0  0  0  0  0
   29.8722    0.7425   27.6682 S   0  0  0  0  0  0
   30.1196    1.0568   29.0801 O   0  0  0  0  0  0
   29.3578    1.7659   26.7521 O   0  0  0  0  0  0
   28.7284   -0.6156   27.6478 C   0  0  0  0  0  0
   29.1839   -1.8892   27.9912 C   0  0  0  0  0  0
   28.2859   -2.9466   28.0354 C   0  0  0  0  0  0
   26.9450   -2.7154   27.7502 C   0  0  0  0  0  0
   26.4923   -1.4525   27.3784 C   0  0  0  0  0  0
   27.3887   -0.3917   27.3317 C   0  0  0  0  0  0
   26.0600   -3.7419   27.8641 O   0  0  0  0  0  0
   33.7457   -4.3745   23.2033 H   0  0  0  0  0  0
   32.3248   -2.8296   21.8986 H   0  0  0  0  0  0
   31.2598   -0.9069   23.0640 H   0  0  0  0  0  0
   32.9608   -2.1640   26.7746 H   0  0  0  0  0  0
   34.0535   -4.0406   25.6085 H   0  0  0  0  0  0
   31.9348    0.6579   25.0539 H   0  0  0  0  0  0
   30.3530   -0.0810   25.1399 H   0  0  0  0  0  0
   33.0817    2.0627   26.2837 H   0  0  0  0  0  0
   35.1271    2.6580   27.5266 H   0  0  0  0  0  0
   35.7135    1.4106   29.5711 H   0  0  0  0  0  0
   34.4148   -0.5431   30.2642 H   0  0  0  0  0  0
   32.3614   -1.1531   29.0629 H   0  0  0  0  0  0
   30.2211   -2.0616   28.2355 H   0  0  0  0  0  0
   28.6213   -3.9361   28.3075 H   0  0  0  0  0  0
   25.4515   -1.2892   27.1429 H   0  0  0  0  0  0
   27.0393    0.5964   27.0672 H   0  0  0  0  0  0
   25.3985   -3.7350   27.1500 H   0  0  0  0  0  0
  1  6  1  0  0  0
  1  2  2  0  0  0
  1 25  1  0  0  0
  2  3  1  0  0  0
  2 26  1  0  0  0
  3  4  2  0  0  0
  3 27  1  0  0  0
  4  5  1  0  0  0
  4  7  1  0  0  0
  5  6  2  0  0  0
  5 28  1  0  0  0
  6 29  1  0  0  0
  7  8  1  0  0  0
  7 30  1  0  0  0
  7 31  1  0  0  0
  8  9  1  0  0  0
  8 15  1  0  0  0
  9 14  1  0  0  0
  9 10  2  0  0  0
 10 11  1  0  0  0
 10 32  1  0  0  0
 11 12  2  0  0  0
 11 33  1  0  0  0
 12 13  1  0  0  0
 12 34  1  0  0  0
 13 14  2  0  0  0
 13 35  1  0  0  0
 14 36  1  0  0  0
 15 16  2  0  0  0
 15 17  2  0  0  0
 15 18  1  0  0  0
 18 23  1  0  0  0
 18 19  2  0  0  0
 19 20  1  0  0  0
 19 37  1  0  0  0
 20 21  2  0  0  0
 20 38  1  0  0  0
 21 22  1  0  0  0
 21 24  1  0  0  0
 22 23  2  0  0  0
 22 39  1  0  0  0
 23 40  1  0  0  0
 24 41  1  0  0  0
M  END
> <s_m_entry_id>
17483

> <s_m_entry_name>
ligand_docking-pose.410

> <s_m_Source_Path>
/home/csk/Desktop/cluster/DUD-E-result/esr1

> <s_m_Source_File>
ligand_docking-pose.sdf

> <i_m_Source_File_Index>
410

> <i_lp_mmshare_version>
53161

> <i_f3d_flags>
0

> <r_lp_tautomer_probability>
0.999999999997365

> <s_lp_Force_Field>
OPLS_2005

> <r_lp_Energy>
13.129052

> <b_lp_Chiralities_Consistent>
1

> <s_lp_Variant>
339232-1

> <s_i_glide_gridfile>
glide-grid_1sj0

> <i_i_glide_lignum>
584

> <i_i_glide_rotatable_bonds>
6

> <r_i_docking_score>
-8.21142925041918

> <r_i_glide_ligand_efficiency>
-0.342142885434132

> <r_i_glide_ligand_efficiency_sa>
-0.986910857956743

> <r_i_glide_ligand_efficiency_ln>
-1.96537181756113

> <r_i_glide_gscore>
-8.21142925041918

> <r_i_glide_lipo>
-4.71222246566892

> <r_i_glide_hbond>
-0.16

> <r_i_glide_metal>
0

> <r_i_glide_rewards>
-1.02104460707829

> <r_i_glide_evdw>
-42.447151184082

> <r_i_glide_ecoul>
-6.78122138977051

> <r_i_glide_erotb>
0.821378589997712

> <r_i_glide_esite>
0

> <r_i_glide_emodel>
-54.3757106642177

> <r_i_glide_energy>
-49.2283725738525

> <r_i_glide_einternal>
11.5191659927368

> <i_i_glide_confnum>
15

> <i_i_glide_posenum>
358

> <r_i_glide_eff_state_penalty>
0

> <s_user_duplicate_titles>
339232

> <s_m_subgroup_title>
dock_pv

> <s_m_subgroupid>
dock_pv1

> <b_m_subgroup_collapsed>
0

$$$$
42644
                    3D
 Schrodinger Suite 2021-1.
 51 54  0  0  1  0            999 V2000
   33.3312    1.0097   26.6447 C   0  0  0  0  0  0
   33.3973    0.0010   27.8514 C   0  0  2  0  0  0
   33.0253   -1.4450   27.4387 C   0  0  0  0  0  0
   31.5569   -1.5988   26.9627 C   0  0  0  0  0  0
   30.4881   -0.7639   27.7664 C   0  0  1  0  0  0
   31.0505    0.5521   28.3573 C   0  0  2  0  0  0
   32.4188    0.3221   28.9885 C   0  0  2  0  0  0
   33.0142    1.4571   29.8086 C   0  0  0  0  0  0
   34.4990    1.4540   29.4392 C   0  0  0  0  0  0
   34.7152    0.1921   28.6136 C   0  0  2  0  0  0
   35.8771    0.2956   27.8640 O   0  0  0  0  0  0
   30.1136    1.2513   29.3148 C   0  0  0  0  0  0
   28.7903    1.3943   28.6544 C   0  0  0  0  0  0
   28.2969    0.5916   27.6953 C   0  0  0  0  0  0
   29.1242   -0.5386   27.0249 C   0  0  2  0  0  0
   28.3048   -1.8402   27.1381 C   0  0  0  0  0  0
   26.9055   -1.7560   26.5453 C   0  0  0  0  0  0
   26.1133   -0.6150   27.1917 C   0  0  1  0  0  0
   26.8609    0.7513   27.2190 C   0  0  0  0  0  0
   24.8532   -0.5439   26.5623 O   0  0  0  0  0  0
   29.3511   -0.1435   25.5408 C   0  0  0  0  0  0
   30.2971   -1.3599   28.6640 H   0  0  0  0  0  0
   31.1146    1.2589   27.5330 H   0  0  0  0  0  0
   32.3376   -0.5243   29.6811 H   0  0  0  0  0  0
   34.8719   -0.6487   29.2929 H   0  0  0  0  0  0
   25.9051   -0.9015   28.2226 H   0  0  0  0  0  0
   32.5534    0.7613   25.9295 H   0  0  0  0  0  0
   33.1433    2.0309   26.9756 H   0  0  0  0  0  0
   34.2410    1.0603   26.0600 H   0  0  0  0  0  0
   33.6629   -1.7683   26.6324 H   0  0  0  0  0  0
   33.1928   -2.1324   28.2666 H   0  0  0  0  0  0
   31.2606   -2.6428   26.8603 H   0  0  0  0  0  0
   31.6090   -1.2269   25.9401 H   0  0  0  0  0  0
   32.8621    1.2946   30.8757 H   0  0  0  0  0  0
   32.4600    2.3428   29.5305 H   0  0  0  0  0  0
   35.1817    1.4682   30.2712 H   0  0  0  0  0  0
   34.7523    2.3095   28.8154 H   0  0  0  0  0  0
   36.5976    0.6616   28.4049 H   0  0  0  0  0  0
   30.0642    0.7701   30.2864 H   0  0  0  0  0  0
   30.4284    2.2620   29.4838 H   0  0  0  0  0  0
   28.1555    2.1846   29.0170 H   0  0  0  0  0  0
   28.8517   -2.6356   26.6648 H   0  0  0  0  0  0
   28.2161   -2.1257   28.1863 H   0  0  0  0  0  0
   26.4178   -2.7115   26.7150 H   0  0  0  0  0  0
   26.9494   -1.6337   25.4653 H   0  0  0  0  0  0
   26.3166    1.4370   27.8658 H   0  0  0  0  0  0
   26.9247    1.2844   26.2787 H   0  0  0  0  0  0
   24.6416   -1.4246   26.2171 H   0  0  0  0  0  0
   29.6850   -0.9814   24.9298 H   0  0  0  0  0  0
   28.4582    0.2392   25.0603 H   0  0  0  0  0  0
   30.0883    0.6490   25.4657 H   0  0  0  0  0  0
  1  2  1  0  0  0
  1 27  1  0  0  0
  1 28  1  0  0  0
  1 29  1  0  0  0
  2  7  1  0  0  0
  2 10  1  0  0  0
  2  3  1  0  0  0
  3  4  1  0  0  0
  3 30  1  0  0  0
  3 31  1  0  0  0
  4  5  1  0  0  0
  4 32  1  0  0  0
  4 33  1  0  0  0
  5 22  1  0  0  0
  5 15  1  0  0  0
  5  6  1  0  0  0
  6 23  1  0  0  0
  6  7  1  0  0  0
  6 12  1  0  0  0
  7 24  1  0  0  0
  7  8  1  0  0  0
  8  9  1  0  0  0
  8 34  1  0  0  0
  8 35  1  0  0  0
  9 10  1  0  0  0
  9 36  1  0  0  0
  9 37  1  0  0  0
 10 25  1  0  0  0
 10 11  1  0  0  0
 11 38  1  0  0  0
 12 13  1  0  0  0
 12 39  1  0  0  0
 12 40  1  0  0  0
 13 14  2  0  0  0
 13 41  1  0  0  0
 14 19  1  0  0  0
 14 15  1  0  0  0
 15 16  1  0  0  0
 15 21  1  0  0  0
 16 17  1  0  0  0
 16 42  1  0  0  0
 16 43  1  0  0  0
 17 18  1  0  0  0
 17 44  1  0  0  0
 17 45  1  0  0  0
 18 26  1  0  0  0
 18 19  1  0  0  0
 18 20  1  0  0  0
 19 46  1  0  0  0
 19 47  1  0  0  0
 20 48  1  0  0  0
 21 49  1  0  0  0
 21 50  1  0  0  0
 21 51  1  0  0  0
M  END
> <s_m_entry_id>
17484

> <s_m_entry_name>
ligand_docking-pose.411

> <s_m_Source_Path>
/home/csk/Desktop/cluster/DUD-E-result/esr1

> <s_m_Source_File>
ligand_docking-pose.sdf

> <i_m_Source_File_Index>
411

> <i_lp_mmshare_version>
53161

> <i_f3d_flags>
0

> <r_lp_tautomer_probability>
1

> <s_lp_Force_Field>
OPLS_2005

> <r_lp_Energy>
52.402094

> <b_lp_Chiralities_Consistent>
1

> <s_lp_Variant>
42644-1

> <s_i_glide_gridfile>
glide-grid_1sj0

> <i_i_glide_lignum>
816

> <i_i_glide_rotatable_bonds>
2

> <r_i_docking_score>
-8.20629347983436

> <r_i_glide_ligand_efficiency>
-0.390775879992112

> <r_i_glide_ligand_efficiency_sa>
-1.07812102176273

> <r_i_glide_ligand_efficiency_ln>
-2.0289894805117

> <r_i_glide_gscore>
-8.20629347983436

> <r_i_glide_lipo>
-4.23497324394602

> <r_i_glide_hbond>
-0.435638788855761

> <r_i_glide_metal>
0

> <r_i_glide_rewards>
-2.32881613636364

> <r_i_glide_evdw>
-6.70093631744385

> <r_i_glide_ecoul>
-5.81212329864502

> <r_i_glide_erotb>
0

> <r_i_glide_esite>
0

> <r_i_glide_emodel>
-43.3810542871625

> <r_i_glide_energy>
-12.5130596160889

> <r_i_glide_einternal>
0.462539970874786

> <i_i_glide_confnum>
1

> <i_i_glide_posenum>
41

> <r_i_glide_eff_state_penalty>
0

> <s_user_duplicate_titles>
42644,121765

> <s_m_subgroup_title>
dock_pv

> <s_m_subgroupid>
dock_pv1

> <b_m_subgroup_collapsed>
0

$$$$
323193
                    3D
 Schrodinger Suite 2021-1.
 30 32  0  0  1  0            999 V2000
   30.3808    1.6076   28.7307 C   0  0  0  0  0  0
   30.5584    1.0582   27.4665 C   0  0  0  0  0  0
   31.3744   -0.0848   27.2883 C   0  0  0  0  0  0
   31.5761   -0.6485   26.0057 C   0  0  0  0  0  0
   32.3139   -1.8258   25.8205 C   0  0  0  0  0  0
   32.8600   -2.4344   26.9555 C   0  0  0  0  0  0
   32.7488   -1.8700   28.2242 C   0  0  0  0  0  0
   32.0006   -0.6813   28.4240 C   0  0  0  0  0  0
   31.8338   -0.0655   29.7008 C   0  0  0  0  0  0
   31.0234    1.0586   29.8331 C   0  0  0  0  0  0
   32.4588   -0.5416   30.8236 O   0  0  0  0  0  0
   32.4901   -2.4223   24.4528 C   0  0  0  0  0  0
   33.5514   -3.2879   24.1486 C   0  0  0  0  0  0
   33.6601   -3.8596   22.8815 C   0  0  0  0  0  0
   32.7244   -3.5896   21.8981 C   0  0  0  0  0  0
   31.6684   -2.7430   22.1776 C   0  0  0  0  0  0
   31.5761   -2.1419   23.4305 C   0  0  0  0  0  0
   32.8600   -4.1420   20.6532 O   0  0  0  0  0  0
   29.7499    2.4756   28.8549 H   0  0  0  0  0  0
   30.0627    1.5007   26.6147 H   0  0  0  0  0  0
   31.1275   -0.1420   25.1658 H   0  0  0  0  0  0
   33.3992   -3.3644   26.8657 H   0  0  0  0  0  0
   33.2122   -2.3659   29.0645 H   0  0  0  0  0  0
   30.8918    1.5089   30.8061 H   0  0  0  0  0  0
   33.1566   -1.1716   30.6328 H   0  0  0  0  0  0
   34.3010   -3.5312   24.8853 H   0  0  0  0  0  0
   34.4600   -4.5385   22.6481 H   0  0  0  0  0  0
   30.9298   -2.5422   21.4162 H   0  0  0  0  0  0
   30.7298   -1.4967   23.6043 H   0  0  0  0  0  0
   32.1482   -4.7576   20.4055 H   0  0  0  0  0  0
  1 10  1  0  0  0
  1  2  2  0  0  0
  1 19  1  0  0  0
  2  3  1  0  0  0
  2 20  1  0  0  0
  3  8  2  0  0  0
  3  4  1  0  0  0
  4  5  2  0  0  0
  4 21  1  0  0  0
  5  6  1  0  0  0
  5 12  1  0  0  0
  6  7  2  0  0  0
  6 22  1  0  0  0
  7  8  1  0  0  0
  7 23  1  0  0  0
  8  9  1  0  0  0
  9 10  2  0  0  0
  9 11  1  0  0  0
 10 24  1  0  0  0
 11 25  1  0  0  0
 12 17  1  0  0  0
 12 13  2  0  0  0
 13 14  1  0  0  0
 13 26  1  0  0  0
 14 15  2  0  0  0
 14 27  1  0  0  0
 15 16  1  0  0  0
 15 18  1  0  0  0
 16 17  2  0  0  0
 16 28  1  0  0  0
 17 29  1  0  0  0
 18 30  1  0  0  0
M  END
> <s_m_entry_id>
17485

> <s_m_entry_name>
ligand_docking-pose.412

> <s_m_Source_Path>
/home/csk/Desktop/cluster/DUD-E-result/esr1

> <s_m_Source_File>
ligand_docking-pose.sdf

> <i_m_Source_File_Index>
412

> <i_lp_mmshare_version>
53161

> <i_f3d_flags>
0

> <r_lp_tautomer_probability>
0.999999999997365

> <s_lp_Force_Field>
OPLS_2005

> <r_lp_Energy>
17.229883

> <b_lp_Chiralities_Consistent>
1

> <s_lp_Variant>
323193-1

> <s_i_glide_gridfile>
glide-grid_1sj0

> <i_i_glide_lignum>
51

> <i_i_glide_rotatable_bonds>
3

> <r_i_docking_score>
-8.20513161667858

> <r_i_glide_ligand_efficiency>
-0.455840645371032

> <r_i_glide_ligand_efficiency_sa>
-1.19464044733578

> <r_i_glide_ligand_efficiency_ln>
-2.10908677301209

> <r_i_glide_gscore>
-8.20513161667858

> <r_i_glide_lipo>
-3.79005937272095

> <r_i_glide_hbond>
-0.16

> <r_i_glide_metal>
0

> <r_i_glide_rewards>
-2.54400989688349

> <r_i_glide_evdw>
-28.2083358764648

> <r_i_glide_ecoul>
-4.06016063690186

> <r_i_glide_erotb>
0.308378542284384

> <r_i_glide_esite>
0

> <r_i_glide_emodel>
-46.1465075407284

> <r_i_glide_energy>
-32.2684965133667

> <r_i_glide_einternal>
3.96153545379639

> <i_i_glide_confnum>
2

> <i_i_glide_posenum>
282

> <r_i_glide_eff_state_penalty>
0

> <s_user_duplicate_titles>
323193

> <s_m_subgroup_title>
dock_pv

> <s_m_subgroupid>
dock_pv1

> <b_m_subgroup_collapsed>
0

$$$$
357442
                    3D
 Schrodinger Suite 2021-1.
 46 49  0  0  1  0            999 V2000
   26.2398   -2.9572   27.9197 C   0  0  0  0  0  0
   27.6451   -3.5775   27.9795 C   0  0  0  0  0  0
   28.8064   -2.5619   27.9291 C   0  0  0  0  0  0
   28.7282   -1.5652   26.7454 C   0  0  0  0  0  0
   29.9696   -0.6358   26.4562 C   0  0  1  0  0  0
   29.6987    0.8094   26.9591 C   0  0  0  0  0  0
   29.6277    0.8757   28.4925 C   0  0  0  0  0  0
   30.8793    0.2771   29.1517 C   0  0  0  0  0  0
   31.2057    0.6580   30.2777 O   0  0  0  0  0  0
   31.6379   -0.7548   28.3874 C   0  0  0  0  0  0
   31.2833   -1.1188   27.1145 C   0  0  0  0  0  0
   31.9759   -1.9564   26.0856 C   0  0  0  0  0  0
   33.1050   -2.7727   26.1756 C   0  0  0  0  0  0
   33.6600   -3.3786   25.0494 C   0  0  0  0  0  0
   33.0442   -3.2212   23.8261 C   0  0  0  0  0  0
   31.9011   -2.4198   23.7221 C   0  0  0  0  0  0
   31.3703   -1.7416   24.8405 C   0  0  0  0  0  0
   30.3192   -0.6810   24.9593 C   0  0  0  0  0  0
   31.5754   -2.5420   22.3809 N   0  0  0  0  0  0
   32.4467   -3.3208   21.7222 N   0  0  0  0  0  0
   33.3907   -3.7420   22.6193 N   0  0  0  0  0  0
   32.8521   -1.3128   29.1478 C   0  0  0  0  0  0
   34.1604   -0.5420   28.9165 C   0  0  0  0  0  0
   30.7895   -2.1450   21.8906 H   0  0  0  0  0  0
   25.4714   -3.7176   28.0653 H   0  0  0  0  0  0
   26.0600   -2.4969   26.9502 H   0  0  0  0  0  0
   26.0905   -2.1797   28.6640 H   0  0  0  0  0  0
   27.7354   -4.1730   28.8889 H   0  0  0  0  0  0
   27.7482   -4.2832   27.1531 H   0  0  0  0  0  0
   28.8600   -2.0177   28.8712 H   0  0  0  0  0  0
   29.7297   -3.1375   27.8640 H   0  0  0  0  0  0
   28.4606   -2.1420   25.8640 H   0  0  0  0  0  0
   27.8471   -0.9382   26.8870 H   0  0  0  0  0  0
   30.4979    1.4818   26.6477 H   0  0  0  0  0  0
   28.7832    1.2080   26.5188 H   0  0  0  0  0  0
   28.7831    0.2761   28.8272 H   0  0  0  0  0  0
   29.4676    1.8882   28.8635 H   0  0  0  0  0  0
   33.5956   -2.9420   27.1125 H   0  0  0  0  0  0
   34.5328   -3.9919   25.0640 H   0  0  0  0  0  0
   29.4615   -0.8396   24.3136 H   0  0  0  0  0  0
   30.7675    0.2580   24.6640 H   0  0  0  0  0  0
   32.6611   -1.3296   30.2221 H   0  0  0  0  0  0
   32.9714   -2.3703   28.9352 H   0  0  0  0  0  0
   34.9854   -0.9991   29.4640 H   0  0  0  0  0  0
   34.4336   -0.5247   27.8640 H   0  0  0  0  0  0
   34.0755    0.4916   29.2540 H   0  0  0  0  0  0
  1  2  1  0  0  0
  1 25  1  0  0  0
  1 26  1  0  0  0
  1 27  1  0  0  0
  2  3  1  0  0  0
  2 28  1  0  0  0
  2 29  1  0  0  0
  3  4  1  0  0  0
  3 30  1  0  0  0
  3 31  1  0  0  0
  4  5  1  0  0  0
  4 32  1  0  0  0
  4 33  1  0  0  0
  5 11  1  0  0  0
  5 18  1  0  0  0
  5  6  1  0  0  0
  6  7  1  0  0  0
  6 34  1  0  0  0
  6 35  1  0  0  0
  7  8  1  0  0  0
  7 36  1  0  0  0
  7 37  1  0  0  0
  8  9  2  0  0  0
  8 10  1  0  0  0
 10 11  2  0  0  0
 10 22  1  0  0  0
 11 12  1  0  0  0
 12 17  2  0  0  0
 12 13  1  0  0  0
 13 14  2  0  0  0
 13 38  1  0  0  0
 14 15  1  0  0  0
 14 39  1  0  0  0
 15 16  2  0  0  0
 15 21  1  0  0  0
 16 17  1  0  0  0
 16 19  1  0  0  0
 17 18  1  0  0  0
 18 40  1  0  0  0
 18 41  1  0  0  0
 19 24  1  0  0  0
 19 20  1  0  0  0
 20 21  2  0  0  0
 22 23  1  0  0  0
 22 42  1  0  0  0
 22 43  1  0  0  0
 23 44  1  0  0  0
 23 45  1  0  0  0
 23 46  1  0  0  0
M  END
> <s_m_entry_id>
17486

> <s_m_entry_name>
ligand_docking-pose.413

> <s_m_Source_Path>
/home/csk/Desktop/cluster/DUD-E-result/esr1

> <s_m_Source_File>
ligand_docking-pose.sdf

> <i_m_Source_File_Index>
413

> <i_lp_mmshare_version>
53161

> <i_f3d_flags>
0

> <r_lp_tautomer_probability>
0.25

> <s_lp_Force_Field>
OPLS_2005

> <r_lp_Energy>
35.372801

> <b_lp_Chiralities_Consistent>
1

> <s_lp_Variant>
357442-3

> <s_i_glide_gridfile>
glide-grid_1sj0

> <i_i_glide_lignum>
1331

> <i_i_glide_rotatable_bonds>
4

> <r_i_docking_score>
-8.20392324062477

> <r_i_glide_ligand_efficiency>
-0.356692314809773

> <r_i_glide_ligand_efficiency_sa>
-1.01438549499413

> <r_i_glide_ligand_efficiency_ln>
-1.9837830286462

> <r_i_glide_gscore>
-8.20392324062477

> <r_i_glide_lipo>
-4.65142348900541

> <r_i_glide_hbond>
0

> <r_i_glide_metal>
0

> <r_i_glide_rewards>
-2.46826833713277

> <r_i_glide_evdw>
-32.6896667480469

> <r_i_glide_ecoul>
1.29189968109131

> <r_i_glide_erotb>
0.386825036327341

> <r_i_glide_esite>
-0.0303580655752871

> <r_i_glide_emodel>
-42.3423203257195

> <r_i_glide_energy>
-31.3977670669556

> <r_i_glide_einternal>
7.28786182403564

> <i_i_glide_confnum>
3

> <i_i_glide_posenum>
281

> <r_i_glide_eff_state_penalty>
0

> <s_user_duplicate_titles>
357442

> <s_m_subgroup_title>
dock_pv

> <s_m_subgroupid>
dock_pv1

> <b_m_subgroup_collapsed>
0

$$$$
328916
                    3D
 Schrodinger Suite 2021-1.
 38 40  0  0  1  0            999 V2000
   28.1197   -1.5226   26.4208 C   0  0  0  0  0  0
   29.1875   -0.7784   25.5953 C   0  0  0  0  0  0
   30.5494   -0.6619   26.2805 C   0  0  0  0  0  0
   31.7930   -1.1448   25.9724 C   0  0  0  0  0  0
   32.7181   -0.9210   27.1802 C   0  0  1  0  0  0
   31.9267   -0.0029   28.0547 C   0  0  0  0  0  0
   30.6432    0.1074   27.5456 C   0  0  0  0  0  0
   29.6939    0.8644   28.2422 C   0  0  0  0  0  0
   30.0324    1.4578   29.4597 C   0  0  0  0  0  0
   31.3256    1.3289   29.9689 C   0  0  0  0  0  0
   32.2867    0.6371   29.2442 C   0  0  0  0  0  0
   31.6600    1.8461   31.1905 O   0  0  0  0  0  0
   33.0489   -2.2262   27.9338 C   0  0  0  0  0  0
   32.8600   -3.3421   27.4641 O   0  0  0  0  0  0
   33.6599   -2.0152   29.1327 O   0  0  0  0  0  0
   32.1962   -1.8897   24.7103 C   0  0  0  0  0  0
   33.2391   -2.8312   24.6903 C   0  0  0  0  0  0
   33.4022   -3.7147   23.6306 C   0  0  0  0  0  0
   32.6252   -3.6104   22.4956 C   0  0  0  0  0  0
   31.6713   -2.6072   22.4228 C   0  0  0  0  0  0
   31.4865   -1.7419   23.5119 C   0  0  0  0  0  0
   32.8405   -4.4954   21.4691 O   0  0  0  0  0  0
   27.1864   -1.6116   25.8636 H   0  0  0  0  0  0
   28.4484   -2.5336   26.6645 H   0  0  0  0  0  0
   27.8842   -1.0233   27.3585 H   0  0  0  0  0  0
   28.8392    0.2197   25.3270 H   0  0  0  0  0  0
   29.2601   -1.3416   24.6764 H   0  0  0  0  0  0
   33.6600   -0.4284   26.9756 H   0  0  0  0  0  0
   28.6888    0.9876   27.8681 H   0  0  0  0  0  0
   29.2725    1.9878   30.0101 H   0  0  0  0  0  0
   33.2884    0.5683   29.6391 H   0  0  0  0  0  0
   32.5801    1.7084   31.4228 H   0  0  0  0  0  0
   33.7616   -1.0852   29.3285 H   0  0  0  0  0  0
   33.9290   -2.9515   25.5031 H   0  0  0  0  0  0
   34.0796   -4.5391   23.7084 H   0  0  0  0  0  0
   31.0659   -2.5416   21.5317 H   0  0  0  0  0  0
   30.7650   -0.9494   23.4406 H   0  0  0  0  0  0
   32.0731   -4.7492   20.9357 H   0  0  0  0  0  0
  1  2  1  0  0  0
  1 23  1  0  0  0
  1 24  1  0  0  0
  1 25  1  0  0  0
  2  3  1  0  0  0
  2 26  1  0  0  0
  2 27  1  0  0  0
  3  7  1  0  0  0
  3  4  2  0  0  0
  4  5  1  0  0  0
  4 16  1  0  0  0
  5  6  1  0  0  0
  5 13  1  0  0  0
  5 28  1  0  0  0
  6 11  2  0  0  0
  6  7  1  0  0  0
  7  8  2  0  0  0
  8  9  1  0  0  0
  8 29  1  0  0  0
  9 10  2  0  0  0
  9 30  1  0  0  0
 10 11  1  0  0  0
 10 12  1  0  0  0
 11 31  1  0  0  0
 12 32  1  0  0  0
 13 14  2  0  0  0
 13 15  1  0  0  0
 15 33  1  0  0  0
 16 21  1  0  0  0
 16 17  2  0  0  0
 17 18  1  0  0  0
 17 34  1  0  0  0
 18 19  2  0  0  0
 18 35  1  0  0  0
 19 20  1  0  0  0
 19 22  1  0  0  0
 20 21  2  0  0  0
 20 36  1  0  0  0
 21 37  1  0  0  0
 22 38  1  0  0  0
M  END
> <s_m_entry_id>
17487

> <s_m_entry_name>
ligand_docking-pose.414

> <s_m_Source_Path>
/home/csk/Desktop/cluster/DUD-E-result/esr1

> <s_m_Source_File>
ligand_docking-pose.sdf

> <i_m_Source_File_Index>
414

> <i_lp_mmshare_version>
53161

> <i_f3d_flags>
0

> <r_lp_tautomer_probability>
1

> <s_lp_Force_Field>
OPLS_2005

> <r_lp_Energy>
33.552396

> <b_lp_Chiralities_Consistent>
1

> <s_lp_Variant>
328916-1

> <s_i_glide_gridfile>
glide-grid_1sj0

> <i_i_glide_lignum>
1138

> <i_i_glide_rotatable_bonds>
6

> <r_i_docking_score>
-8.20390268316124

> <r_i_glide_ligand_efficiency>
-0.37290466741642

> <r_i_glide_ligand_efficiency_sa>
-1.04489354360917

> <r_i_glide_ligand_efficiency_ln>
-2.00533306038579

> <r_i_glide_gscore>
-8.20390268316124

> <r_i_glide_lipo>
-4.28767883665652

> <r_i_glide_hbond>
-0.159053559102209

> <r_i_glide_metal>
0

> <r_i_glide_rewards>
-2.31137217399569

> <r_i_glide_evdw>
-27.6238231658936

> <r_i_glide_ecoul>
-3.21237874031067

> <r_i_glide_erotb>
0.417249855934455

> <r_i_glide_esite>
0

> <r_i_glide_emodel>
-40.5919516564461

> <r_i_glide_energy>
-30.8362019062042

> <r_i_glide_einternal>
7.00479745864868

> <i_i_glide_confnum>
8

> <i_i_glide_posenum>
19

> <r_i_glide_eff_state_penalty>
0

> <s_user_duplicate_titles>
328916

> <s_m_subgroup_title>
dock_pv

> <s_m_subgroupid>
dock_pv1

> <b_m_subgroup_collapsed>
0

$$$$
339277
                    3D
 Schrodinger Suite 2021-1.
 40 41  0  0  1  0            999 V2000
   31.2598    0.9021   31.1829 C   0  0  0  0  0  0
   31.6578   -0.5714   30.9684 C   0  0  0  0  0  0
   31.0134   -1.3109   29.7679 C   0  0  0  0  0  0
   30.8159   -0.4838   28.5798 N   0  0  0  0  0  0
   29.5165   -0.4261   28.0206 C   0  0  0  0  0  0
   28.8144   -1.5839   27.6001 C   0  0  0  0  0  0
   27.5054   -1.4786   27.1217 C   0  0  0  0  0  0
   26.8726   -0.2441   27.0641 C   0  0  0  0  0  0
   27.5504    0.9008   27.4641 C   0  0  0  0  0  0
   28.8503    0.8117   27.9596 C   0  0  0  0  0  0
   29.5662    2.2580   28.5678 Cl  0  0  0  0  0  0
   29.4225   -2.9742   27.6438 C   0  0  0  0  0  0
   32.2623   -0.0574   27.6275 S   0  0  0  0  0  0
   32.0407    1.2771   27.0639 O   0  0  0  0  0  0
   33.4470   -0.3314   28.4497 O   0  0  0  0  0  0
   32.2873   -1.2136   26.2675 C   0  0  0  0  0  0
   31.6420   -0.8951   25.0743 C   0  0  0  0  0  0
   31.7403   -1.7583   23.9882 C   0  0  0  0  0  0
   32.4765   -2.9350   24.1029 C   0  0  0  0  0  0
   33.0855   -3.2690   25.3079 C   0  0  0  0  0  0
   32.9713   -2.4208   26.4014 C   0  0  0  0  0  0
   32.6110   -3.7744   23.0319 O   0  0  0  0  0  0
   31.6660    1.2855   32.1194 H   0  0  0  0  0  0
   31.6622    1.5297   30.3862 H   0  0  0  0  0  0
   30.1808    1.0569   31.2116 H   0  0  0  0  0  0
   31.4099   -1.1452   31.8611 H   0  0  0  0  0  0
   32.7437   -0.6247   30.8883 H   0  0  0  0  0  0
   30.0600   -1.7421   30.0665 H   0  0  0  0  0  0
   31.6529   -2.1405   29.4637 H   0  0  0  0  0  0
   26.9634   -2.3570   26.7976 H   0  0  0  0  0  0
   25.8590   -0.1724   26.6961 H   0  0  0  0  0  0
   27.0478    1.8565   27.4261 H   0  0  0  0  0  0
   30.4303   -2.9724   27.2381 H   0  0  0  0  0  0
   29.4627   -3.3427   28.6640 H   0  0  0  0  0  0
   28.8462   -3.6966   27.0643 H   0  0  0  0  0  0
   31.0844    0.0244   24.9826 H   0  0  0  0  0  0
   31.2581   -1.5020   23.0638 H   0  0  0  0  0  0
   33.6593   -4.1754   25.3890 H   0  0  0  0  0  0
   33.4545   -2.6784   27.3333 H   0  0  0  0  0  0
   32.1083   -3.5165   22.2552 H   0  0  0  0  0  0
  1  2  1  0  0  0
  1 23  1  0  0  0
  1 24  1  0  0  0
  1 25  1  0  0  0
  2  3  1  0  0  0
  2 26  1  0  0  0
  2 27  1  0  0  0
  3  4  1  0  0  0
  3 28  1  0  0  0
  3 29  1  0  0  0
  4  5  1  0  0  0
  4 13  1  0  0  0
  5 10  1  0  0  0
  5  6  2  0  0  0
  6  7  1  0  0  0
  6 12  1  0  0  0
  7  8  2  0  0  0
  7 30  1  0  0  0
  8  9  1  0  0  0
  8 31  1  0  0  0
  9 10  2  0  0  0
  9 32  1  0  0  0
 10 11  1  0  0  0
 12 33  1  0  0  0
 12 34  1  0  0  0
 12 35  1  0  0  0
 13 14  2  0  0  0
 13 15  2  0  0  0
 13 16  1  0  0  0
 16 21  1  0  0  0
 16 17  2  0  0  0
 17 18  1  0  0  0
 17 36  1  0  0  0
 18 19  2  0  0  0
 18 37  1  0  0  0
 19 20  1  0  0  0
 19 22  1  0  0  0
 20 21  2  0  0  0
 20 38  1  0  0  0
 21 39  1  0  0  0
 22 40  1  0  0  0
M  END
> <s_m_entry_id>
17488

> <s_m_entry_name>
ligand_docking-pose.415

> <s_m_Source_Path>
/home/csk/Desktop/cluster/DUD-E-result/esr1

> <s_m_Source_File>
ligand_docking-pose.sdf

> <i_m_Source_File_Index>
415

> <i_lp_mmshare_version>
53161

> <i_f3d_flags>
0

> <r_lp_tautomer_probability>
0.999999999997365

> <s_lp_Force_Field>
OPLS_2005

> <r_lp_Energy>
9.865595

> <b_lp_Chiralities_Consistent>
1

> <s_lp_Variant>
339277-1

> <s_i_glide_gridfile>
glide-grid_1sj0

> <i_i_glide_lignum>
1535

> <i_i_glide_rotatable_bonds>
6

> <r_i_docking_score>
-8.19884630976265

> <r_i_glide_ligand_efficiency>
-0.372674832261939

> <r_i_glide_ligand_efficiency_sa>
-1.04424953646741

> <r_i_glide_ligand_efficiency_ln>
-2.00409709829148

> <r_i_glide_gscore>
-8.19884630976265

> <r_i_glide_lipo>
-4.34894208515499

> <r_i_glide_hbond>
0

> <r_i_glide_metal>
0

> <r_i_glide_rewards>
-2.30790781198631

> <r_i_glide_evdw>
-39.6876831054688

> <r_i_glide_ecoul>
-1.42164731025696

> <r_i_glide_erotb>
0.655634839190626

> <r_i_glide_esite>
0

> <r_i_glide_emodel>
-58.7080604510584

> <r_i_glide_energy>
-41.1093304157257

> <r_i_glide_einternal>
3.63366651535034

> <i_i_glide_confnum>
11

> <i_i_glide_posenum>
374

> <r_i_glide_eff_state_penalty>
0

> <s_user_duplicate_titles>
339277

> <s_m_subgroup_title>
dock_pv

> <s_m_subgroupid>
dock_pv1

> <b_m_subgroup_collapsed>
0

$$$$
354053
                    3D
 Schrodinger Suite 2021-1.
 38 41  0  0  1  0            999 V2000
   27.4870   -1.8510   26.5360 C   0  0  0  0  0  0
   28.9762   -1.8753   26.9292 C   0  0  0  0  0  0
   29.8798   -0.7393   26.3383 C   0  0  1  0  0  0
   29.3712    0.6798   26.7050 C   0  0  0  0  0  0
   29.3665    0.9035   28.2250 C   0  0  0  0  0  0
   30.7092    0.5469   28.8859 C   0  0  0  0  0  0
   30.8600    0.8443   30.0702 O   0  0  0  0  0  0
   31.6627   -0.3131   28.1173 C   0  0  0  0  0  0
   31.2920   -0.8964   26.9293 C   0  0  0  0  0  0
   32.0086   -1.7892   25.9631 C   0  0  0  0  0  0
   33.1732   -2.5420   26.0973 C   0  0  0  0  0  0
   33.7465   -3.2276   25.0243 C   0  0  0  0  0  0
   33.1026   -3.1802   23.8076 C   0  0  0  0  0  0
   31.8976   -2.4825   23.6307 C   0  0  0  0  0  0
   31.3475   -1.7732   24.7309 C   0  0  0  0  0  0
   30.1196   -0.9148   24.8254 C   0  0  0  0  0  0
   31.5842   -2.7796   22.2640 C   0  0  0  0  0  0
   32.4974   -3.4956   21.6708 N   0  0  0  0  0  0
   33.4295   -3.7420   22.5921 N   0  0  0  0  0  0
   33.0558   -0.5073   28.7651 C   0  0  0  0  0  0
   33.1548   -1.7420   29.2518 F   0  0  0  0  0  0
   34.0094   -0.3185   27.8640 F   0  0  0  0  0  0
   33.3383    0.3500   29.7497 F   0  0  0  0  0  0
   34.2270   -4.3156   22.3595 H   0  0  0  0  0  0
   26.9529   -2.6773   27.0069 H   0  0  0  0  0  0
   26.9953   -0.9312   26.8515 H   0  0  0  0  0  0
   27.3424   -1.9596   25.4640 H   0  0  0  0  0  0
   29.3936   -2.8471   26.6640 H   0  0  0  0  0  0
   29.0274   -1.8602   28.0186 H   0  0  0  0  0  0
   28.3775    0.8562   26.2922 H   0  0  0  0  0  0
   30.0128    1.4420   26.2640 H   0  0  0  0  0  0
   29.0923    1.9241   28.4922 H   0  0  0  0  0  0
   28.6217    0.2413   28.6640 H   0  0  0  0  0  0
   33.6600   -2.5912   27.0517 H   0  0  0  0  0  0
   34.6817   -3.7420   25.0640 H   0  0  0  0  0  0
   29.2601   -1.3420   24.3299 H   0  0  0  0  0  0
   30.2979    0.0342   24.3345 H   0  0  0  0  0  0
   30.7008   -2.5420   21.7010 H   0  0  0  0  0  0
  1  2  1  0  0  0
  1 25  1  0  0  0
  1 26  1  0  0  0
  1 27  1  0  0  0
  2  3  1  0  0  0
  2 28  1  0  0  0
  2 29  1  0  0  0
  3  9  1  0  0  0
  3 16  1  0  0  0
  3  4  1  0  0  0
  4  5  1  0  0  0
  4 30  1  0  0  0
  4 31  1  0  0  0
  5  6  1  0  0  0
  5 32  1  0  0  0
  5 33  1  0  0  0
  6  7  2  0  0  0
  6  8  1  0  0  0
  8  9  2  0  0  0
  8 20  1  0  0  0
  9 10  1  0  0  0
 10 15  1  0  0  0
 10 11  2  0  0  0
 11 12  1  0  0  0
 11 34  1  0  0  0
 12 13  2  0  0  0
 12 35  1  0  0  0
 13 19  1  0  0  0
 13 14  1  0  0  0
 14 15  2  0  0  0
 14 17  1  0  0  0
 15 16  1  0  0  0
 16 36  1  0  0  0
 16 37  1  0  0  0
 17 18  2  0  0  0
 17 38  1  0  0  0
 18 19  1  0  0  0
 19 24  1  0  0  0
 20 21  1  0  0  0
 20 22  1  0  0  0
 20 23  1  0  0  0
M  END
> <s_m_entry_id>
17489

> <s_m_entry_name>
ligand_docking-pose.416

> <s_m_Source_Path>
/home/csk/Desktop/cluster/DUD-E-result/esr1

> <s_m_Source_File>
ligand_docking-pose.sdf

> <i_m_Source_File_Index>
416

> <i_lp_mmshare_version>
53161

> <i_f3d_flags>
0

> <r_lp_tautomer_probability>
1

> <s_lp_Force_Field>
OPLS_2005

> <r_lp_Energy>
39.64317

> <b_lp_Chiralities_Consistent>
1

> <s_lp_Variant>
354053-1

> <s_i_glide_gridfile>
glide-grid_1sj0

> <i_i_glide_lignum>
1072

> <i_i_glide_rotatable_bonds>
2

> <r_i_docking_score>
-8.18608107354621

> <r_i_glide_ligand_efficiency>
-0.355916568415052

> <r_i_glide_ligand_efficiency_sa>
-1.01217937543975

> <r_i_glide_ligand_efficiency_ln>
-1.97946863086278

> <r_i_glide_gscore>
-8.18608107354621

> <r_i_glide_lipo>
-3.73950032466244

> <r_i_glide_hbond>
0

> <r_i_glide_metal>
0

> <r_i_glide_rewards>
-3.29672829422144

> <r_i_glide_evdw>
-24.5093822479248

> <r_i_glide_ecoul>
0.504111051559448

> <r_i_glide_erotb>
0

> <r_i_glide_esite>
0

> <r_i_glide_emodel>
-35.7603101475735

> <r_i_glide_energy>
-24.0052711963654

> <r_i_glide_einternal>
1.27914643287659

> <i_i_glide_confnum>
1

> <i_i_glide_posenum>
307

> <r_i_glide_eff_state_penalty>
0

> <s_user_duplicate_titles>
354053

> <s_m_subgroup_title>
dock_pv

> <s_m_subgroupid>
dock_pv1

> <b_m_subgroup_collapsed>
0

$$$$
90829
                    3D
 Schrodinger Suite 2021-1.
 56 59  0  0  1  0            999 V2000
   28.9108    1.5551   27.6529 C   0  0  0  0  0  0
   27.8847    0.4825   27.3563 C   0  0  0  0  0  0
   26.5534    0.8127   27.4640 C   0  0  0  0  0  0
   25.5740   -0.1488   27.2842 C   0  0  0  0  0  0
   25.9228   -1.4626   27.0727 C   0  0  0  0  0  0
   27.2490   -1.8176   26.9067 C   0  0  0  0  0  0
   28.2281   -0.8372   27.0415 C   0  0  0  0  0  0
   29.6178   -1.2238   26.9901 C   0  0  0  0  0  0
   30.3031   -1.3439   25.8013 C   0  0  0  0  0  0
   31.6438   -1.7367   25.8276 C   0  0  0  0  0  0
   32.3185   -1.8035   27.0254 N   0  0  0  0  0  0
   31.6366   -1.5709   28.2006 C   0  0  0  0  0  0
   30.2639   -1.4009   28.1850 C   0  0  0  0  0  0
   32.2865   -1.4291   29.4556 N   0  0  0  0  0  0
   31.5416   -0.9603   30.6447 C   0  0  0  0  0  0
   33.7390   -1.5567   29.5428 C   0  0  0  0  0  0
   34.4553   -0.2312   29.8742 C   0  0  0  0  0  0
   34.1407    0.8443   28.8864 C   0  0  0  0  0  0
   32.8687    1.3988   28.9073 C   0  0  0  0  0  0
   32.3993    2.0065   27.7758 C   0  0  0  0  0  0
   33.2605    2.2917   26.7342 C   0  0  0  0  0  0
   34.5901    1.9505   26.8412 C   0  0  0  0  0  0
   35.0402    1.1647   27.8824 C   0  0  0  0  0  0
   32.3344   -2.1412   24.5519 C   0  0  0  0  0  0
   33.6526   -2.5990   24.5306 C   0  0  0  0  0  0
   34.2556   -2.9420   23.3235 C   0  0  0  0  0  0
   33.5437   -2.9628   22.1385 C   0  0  0  0  0  0
   32.2257   -2.5564   22.1367 C   0  0  0  0  0  0
   31.6591   -2.1070   23.3201 C   0  0  0  0  0  0
   34.1488   -3.3664   20.9807 O   0  0  0  0  0  0
   28.4661    2.4050   28.1642 H   0  0  0  0  0  0
   29.6576    1.1678   28.3424 H   0  0  0  0  0  0
   29.3964    1.8794   26.7321 H   0  0  0  0  0  0
   26.2711    1.8238   27.7142 H   0  0  0  0  0  0
   24.5308    0.1142   27.3762 H   0  0  0  0  0  0
   25.1419   -2.1938   27.0640 H   0  0  0  0  0  0
   27.5116   -2.8503   26.7240 H   0  0  0  0  0  0
   29.7371   -1.1984   24.8981 H   0  0  0  0  0  0
   29.6756   -1.2904   29.0768 H   0  0  0  0  0  0
   30.8606   -1.7413   30.9884 H   0  0  0  0  0  0
   32.2075   -0.7118   31.4638 H   0  0  0  0  0  0
   30.9107   -0.0960   30.4430 H   0  0  0  0  0  0
   34.1295   -1.9675   28.6282 H   0  0  0  0  0  0
   33.9881   -2.3254   30.2653 H   0  0  0  0  0  0
   35.5339   -0.3686   29.9611 H   0  0  0  0  0  0
   34.0598    0.1332   30.8250 H   0  0  0  0  0  0
   32.1971    1.2545   29.7282 H   0  0  0  0  0  0
   31.3631    2.2578   27.7220 H   0  0  0  0  0  0
   32.9013    2.8134   25.8640 H   0  0  0  0  0  0
   35.2594    2.2592   26.0816 H   0  0  0  0  0  0
   36.0506    0.7805   27.8751 H   0  0  0  0  0  0
   34.2213   -2.6536   25.4457 H   0  0  0  0  0  0
   35.2906   -3.1854   23.2863 H   0  0  0  0  0  0
   31.6537   -2.5446   21.2204 H   0  0  0  0  0  0
   30.6525   -1.7423   23.2312 H   0  0  0  0  0  0
   33.5213   -3.5325   20.2731 H   0  0  0  0  0  0
  1  2  1  0  0  0
  1 31  1  0  0  0
  1 32  1  0  0  0
  1 33  1  0  0  0
  2  7  1  0  0  0
  2  3  2  0  0  0
  3  4  1  0  0  0
  3 34  1  0  0  0
  4  5  2  0  0  0
  4 35  1  0  0  0
  5  6  1  0  0  0
  5 36  1  0  0  0
  6  7  2  0  0  0
  6 37  1  0  0  0
  7  8  1  0  0  0
  8 13  1  0  0  0
  8  9  2  0  0  0
  9 10  1  0  0  0
  9 38  1  0  0  0
 10 11  2  0  0  0
 10 24  1  0  0  0
 11 12  1  0  0  0
 12 13  2  0  0  0
 12 14  1  0  0  0
 13 39  1  0  0  0
 14 15  1  0  0  0
 14 16  1  0  0  0
 15 40  1  0  0  0
 15 41  1  0  0  0
 15 42  1  0  0  0
 16 17  1  0  0  0
 16 43  1  0  0  0
 16 44  1  0  0  0
 17 18  1  0  0  0
 17 45  1  0  0  0
 17 46  1  0  0  0
 18 23  1  0  0  0
 18 19  2  0  0  0
 19 20  1  0  0  0
 19 47  1  0  0  0
 20 21  2  0  0  0
 20 48  1  0  0  0
 21 22  1  0  0  0
 21 49  1  0  0  0
 22 23  2  0  0  0
 22 50  1  0  0  0
 23 51  1  0  0  0
 24 29  1  0  0  0
 24 25  2  0  0  0
 25 26  1  0  0  0
 25 52  1  0  0  0
 26 27  2  0  0  0
 26 53  1  0  0  0
 27 28  1  0  0  0
 27 30  1  0  0  0
 28 29  2  0  0  0
 28 54  1  0  0  0
 29 55  1  0  0  0
 30 56  1  0  0  0
M  END
> <s_m_entry_id>
17491

> <s_m_entry_name>
ligand_docking-pose.418

> <s_m_Source_Path>
/home/csk/Desktop/cluster/DUD-E-result/esr1

> <s_m_Source_File>
ligand_docking-pose.sdf

> <i_m_Source_File_Index>
418

> <i_lp_mmshare_version>
53161

> <i_f3d_flags>
0

> <r_lp_tautomer_probability>
0.999999999997365

> <s_lp_Force_Field>
OPLS_2005

> <r_lp_Energy>
24.249113

> <b_lp_Chiralities_Consistent>
1

> <s_lp_Variant>
90829-1

> <s_i_glide_gridfile>
glide-grid_1sj0

> <i_i_glide_lignum>
986

> <i_i_glide_rotatable_bonds>
7

> <r_i_docking_score>
-8.18327105065671

> <r_i_glide_ligand_efficiency>
-0.272775701688557

> <r_i_glide_ligand_efficiency_sa>
-0.847577526160131

> <r_i_glide_ligand_efficiency_ln>
-1.85932834658877

> <r_i_glide_gscore>
-8.18327105065671

> <r_i_glide_lipo>
-5.7711561689076

> <r_i_glide_hbond>
0

> <r_i_glide_metal>
0

> <r_i_glide_rewards>
-1.9049334756843

> <r_i_glide_evdw>
-17.6995315551758

> <r_i_glide_ecoul>
-1.6675215959549

> <r_i_glide_erotb>
0.627923411087214

> <r_i_glide_esite>
0

> <r_i_glide_emodel>
-35.577445599444

> <r_i_glide_energy>
-19.3670531511307

> <r_i_glide_einternal>
4.95869827270508

> <i_i_glide_confnum>
37

> <i_i_glide_posenum>
372

> <r_i_glide_eff_state_penalty>
0

> <s_user_duplicate_titles>
90829

> <s_m_subgroup_title>
dock_pv

> <s_m_subgroupid>
dock_pv1

> <b_m_subgroup_collapsed>
0

$$$$
50301
                    3D
 Schrodinger Suite 2021-1.
 38 40  0  0  1  0            999 V2000
   28.0969   -1.1898   26.4096 C   0  0  0  0  0  0
   27.1218   -0.4510   27.0640 C   0  0  0  0  0  0
   27.4240    0.8482   27.4514 C   0  0  0  0  0  0
   28.6869    1.3857   27.3187 C   0  0  0  0  0  0
   29.6463    0.6544   26.6614 C   0  0  0  0  0  0
   29.3473   -0.6153   26.1692 C   0  0  0  0  0  0
   30.2967   -1.3198   25.3142 C   0  0  0  0  0  0
   31.6294   -1.4603   25.4594 C   0  0  0  0  0  0
   32.3730   -0.9177   26.6135 C   0  0  0  0  0  0
   32.5725   -1.6840   27.7644 C   0  0  0  0  0  0
   33.2600   -1.1440   28.8493 C   0  0  0  0  0  0
   33.7561    0.1562   28.7742 C   0  0  0  0  0  0
   33.5555    0.9291   27.6347 C   0  0  0  0  0  0
   32.8600    0.3900   26.5571 C   0  0  0  0  0  0
   34.4600    0.6779   29.8223 O   0  0  0  0  0  0
   32.3670   -2.1692   24.3972 C   0  0  0  0  0  0
   32.2028   -1.7852   23.0640 C   0  0  0  0  0  0
   32.7391   -2.5420   22.0236 C   0  0  0  0  0  0
   33.4918   -3.6603   22.3097 C   0  0  0  0  0  0
   33.6600   -4.0342   23.6332 C   0  0  0  0  0  0
   33.1242   -3.2988   24.6822 C   0  0  0  0  0  0
   34.0600   -4.3656   21.2818 O   0  0  0  0  0  0
   26.4600    1.6576   27.8640 F   0  0  0  0  0  0
   27.8496   -2.1711   26.0327 H   0  0  0  0  0  0
   26.1227   -0.8437   27.1836 H   0  0  0  0  0  0
   28.9008    2.3868   27.6482 H   0  0  0  0  0  0
   30.5780    1.1417   26.4657 H   0  0  0  0  0  0
   29.8467   -1.7420   24.4337 H   0  0  0  0  0  0
   32.1934   -2.6925   27.8173 H   0  0  0  0  0  0
   33.4254   -1.7354   29.7381 H   0  0  0  0  0  0
   33.9447    1.9347   27.5737 H   0  0  0  0  0  0
   32.7292    0.9850   25.6653 H   0  0  0  0  0  0
   34.9507    1.4663   29.5800 H   0  0  0  0  0  0
   31.6600   -0.8856   22.8396 H   0  0  0  0  0  0
   32.5943   -2.2448   20.9954 H   0  0  0  0  0  0
   34.1490   -4.9420   23.8640 H   0  0  0  0  0  0
   33.2432   -3.6483   25.6973 H   0  0  0  0  0  0
   34.5783   -5.1372   21.5290 H   0  0  0  0  0  0
  1  6  1  0  0  0
  1  2  2  0  0  0
  1 24  1  0  0  0
  2  3  1  0  0  0
  2 25  1  0  0  0
  3  4  2  0  0  0
  3 23  1  0  0  0
  4  5  1  0  0  0
  4 26  1  0  0  0
  5  6  2  0  0  0
  5 27  1  0  0  0
  6  7  1  0  0  0
  7  8  2  3  0  0
  7 28  1  0  0  0
  8  9  1  0  0  0
  8 16  1  0  0  0
  9 14  1  0  0  0
  9 10  2  0  0  0
 10 11  1  0  0  0
 10 29  1  0  0  0
 11 12  2  0  0  0
 11 30  1  0  0  0
 12 13  1  0  0  0
 12 15  1  0  0  0
 13 14  2  0  0  0
 13 31  1  0  0  0
 14 32  1  0  0  0
 15 33  1  0  0  0
 16 21  1  0  0  0
 16 17  2  0  0  0
 17 18  1  0  0  0
 17 34  1  0  0  0
 18 19  2  0  0  0
 18 35  1  0  0  0
 19 20  1  0  0  0
 19 22  1  0  0  0
 20 21  2  0  0  0
 20 36  1  0  0  0
 21 37  1  0  0  0
 22 38  1  0  0  0
M  END
> <s_m_entry_id>
17492

> <s_m_entry_name>
ligand_docking-pose.419

> <s_m_Source_Path>
/home/csk/Desktop/cluster/DUD-E-result/esr1

> <s_m_Source_File>
ligand_docking-pose.sdf

> <i_m_Source_File_Index>
419

> <i_lp_mmshare_version>
53161

> <i_f3d_flags>
0

> <r_lp_tautomer_probability>
1

> <s_lp_Force_Field>
OPLS_2005

> <r_lp_Energy>
24.490269

> <b_lp_Chiralities_Consistent>
1

> <s_lp_Variant>
50301-1

> <s_i_glide_gridfile>
glide-grid_1sj0

> <i_i_glide_lignum>
415

> <i_i_glide_rotatable_bonds>
5

> <r_i_docking_score>
-8.17303873031383

> <r_i_glide_ligand_efficiency>
-0.355349510013645

> <r_i_glide_ligand_efficiency_sa>
-1.01056673677803

> <r_i_glide_ligand_efficiency_ln>
-1.97631487400776

> <r_i_glide_gscore>
-8.17303873031383

> <r_i_glide_lipo>
-5.01160290546699

> <r_i_glide_hbond>
-0.238172633030744

> <r_i_glide_metal>
0

> <r_i_glide_rewards>
-2.05613849930038

> <r_i_glide_evdw>
-24.5

> <r_i_glide_ecoul>
-1.46104872226715

> <r_i_glide_erotb>
0.590497640454175

> <r_i_glide_esite>
-0.0134650246298229

> <r_i_glide_emodel>
-38.0833282661242

> <r_i_glide_energy>
-25.9610487222672

> <r_i_glide_einternal>
6.63023519515991

> <i_i_glide_confnum>
21

> <i_i_glide_posenum>
46

> <r_i_glide_eff_state_penalty>
0

> <s_user_duplicate_titles>
50301

> <s_m_subgroup_title>
dock_pv

> <s_m_subgroupid>
dock_pv1

> <b_m_subgroup_collapsed>
0

$$$$
339252
                    3D
 Schrodinger Suite 2021-1.
 40 41  0  0  1  0            999 V2000
   34.9547    0.5595   28.7318 C   0  0  0  0  0  0
   33.9338    1.6438   28.3728 C   0  0  0  0  0  0
   32.9313    1.2961   27.2569 C   0  0  0  0  0  0
   32.1061    0.1185   27.5367 N   0  0  0  0  0  0
   32.1336   -0.9432   26.6175 C   0  0  0  0  0  0
   31.6600   -0.7207   25.3196 C   0  0  0  0  0  0
   31.7558   -1.7138   24.3470 C   0  0  0  0  0  0
   32.3287   -2.9420   24.6661 C   0  0  0  0  0  0
   32.7808   -3.1841   25.9621 C   0  0  0  0  0  0
   32.6813   -2.1935   26.9401 C   0  0  0  0  0  0
   33.2600   -2.5420   28.5275 Cl  0  0  0  0  0  0
   30.9115    0.1994   28.8625 S   0  0  0  0  0  0
   31.2600   -0.8204   29.8562 O   0  0  0  0  0  0
   30.7923    1.6077   29.2590 O   0  0  0  0  0  0
   29.3487   -0.2854   28.1450 C   0  0  0  0  0  0
   28.4183    0.6908   27.7957 C   0  0  0  0  0  0
   27.1721    0.3097   27.3119 C   0  0  0  0  0  0
   26.8532   -1.0366   27.1411 C   0  0  0  0  0  0
   27.7940   -2.0253   27.4640 C   0  0  0  0  0  0
   29.0441   -1.6399   27.9652 C   0  0  0  0  0  0
   27.4661   -3.5036   27.3074 C   0  0  0  0  0  0
   25.6053   -1.3420   26.6640 O   0  0  0  0  0  0
   35.6600    0.9392   29.4694 H   0  0  0  0  0  0
   34.4763   -0.3038   29.1850 H   0  0  0  0  0  0
   35.5256    0.2311   27.8640 H   0  0  0  0  0  0
   34.4600    2.5614   28.1063 H   0  0  0  0  0  0
   33.3738    1.8580   29.2807 H   0  0  0  0  0  0
   33.5246    1.0690   26.3686 H   0  0  0  0  0  0
   32.3101    2.1528   26.9984 H   0  0  0  0  0  0
   31.2263    0.2339   25.0637 H   0  0  0  0  0  0
   31.3947   -1.5303   23.3460 H   0  0  0  0  0  0
   32.4098   -3.7121   23.9122 H   0  0  0  0  0  0
   33.2137   -4.1425   26.2068 H   0  0  0  0  0  0
   28.6399    1.7404   27.9265 H   0  0  0  0  0  0
   26.4464    1.0680   27.0640 H   0  0  0  0  0  0
   29.7734   -2.3909   28.2364 H   0  0  0  0  0  0
   26.5716   -3.7554   27.8784 H   0  0  0  0  0  0
   27.2600   -3.7420   26.2640 H   0  0  0  0  0  0
   28.2790   -4.1427   27.6527 H   0  0  0  0  0  0
   25.4571   -2.2522   26.3475 H   0  0  0  0  0  0
  1  2  1  0  0  0
  1 23  1  0  0  0
  1 24  1  0  0  0
  1 25  1  0  0  0
  2  3  1  0  0  0
  2 26  1  0  0  0
  2 27  1  0  0  0
  3  4  1  0  0  0
  3 28  1  0  0  0
  3 29  1  0  0  0
  4  5  1  0  0  0
  4 12  1  0  0  0
  5 10  1  0  0  0
  5  6  2  0  0  0
  6  7  1  0  0  0
  6 30  1  0  0  0
  7  8  2  0  0  0
  7 31  1  0  0  0
  8  9  1  0  0  0
  8 32  1  0  0  0
  9 10  2  0  0  0
  9 33  1  0  0  0
 10 11  1  0  0  0
 12 13  2  0  0  0
 12 14  2  0  0  0
 12 15  1  0  0  0
 15 20  1  0  0  0
 15 16  2  0  0  0
 16 17  1  0  0  0
 16 34  1  0  0  0
 17 18  2  0  0  0
 17 35  1  0  0  0
 18 19  1  0  0  0
 18 22  1  0  0  0
 19 20  2  0  0  0
 19 21  1  0  0  0
 20 36  1  0  0  0
 21 37  1  0  0  0
 21 38  1  0  0  0
 21 39  1  0  0  0
 22 40  1  0  0  0
M  END
> <s_m_entry_id>
17493

> <s_m_entry_name>
ligand_docking-pose.420

> <s_m_Source_Path>
/home/csk/Desktop/cluster/DUD-E-result/esr1

> <s_m_Source_File>
ligand_docking-pose.sdf

> <i_m_Source_File_Index>
420

> <i_lp_mmshare_version>
53161

> <i_f3d_flags>
0

> <r_lp_tautomer_probability>
0.999999999997365

> <s_lp_Force_Field>
OPLS_2005

> <r_lp_Energy>
9.461681

> <b_lp_Chiralities_Consistent>
1

> <s_lp_Variant>
339252-1

> <s_i_glide_gridfile>
glide-grid_1sj0

> <i_i_glide_lignum>
1536

> <i_i_glide_rotatable_bonds>
6

> <r_i_docking_score>
-8.16850702712515

> <r_i_glide_ligand_efficiency>
-0.371295773960234

> <r_i_glide_ligand_efficiency_sa>
-1.04038536087075

> <r_i_glide_ligand_efficiency_ln>
-1.99668107096265

> <r_i_glide_gscore>
-8.16850702712515

> <r_i_glide_lipo>
-4.17469398425232

> <r_i_glide_hbond>
-0.16

> <r_i_glide_metal>
0

> <r_i_glide_rewards>
-1.69737372625596

> <r_i_glide_evdw>
-39.7638359069824

> <r_i_glide_ecoul>
-5.35921573638916

> <r_i_glide_erotb>
0.655634839190626

> <r_i_glide_esite>
0

> <r_i_glide_emodel>
-65.162910027526

> <r_i_glide_energy>
-45.1230516433716

> <r_i_glide_einternal>
4.68083381652832

> <i_i_glide_confnum>
29

> <i_i_glide_posenum>
51

> <r_i_glide_eff_state_penalty>
0

> <s_user_duplicate_titles>
339252

> <s_m_subgroup_title>
dock_pv

> <s_m_subgroupid>
dock_pv1

> <b_m_subgroup_collapsed>
0

$$$$
49687
                    3D
 Schrodinger Suite 2021-1.
 38 40  0  0  1  0            999 V2000
   33.1570   -2.5526   24.7408 C   0  0  0  0  0  0
   34.1075   -3.0376   23.8571 C   0  0  0  0  0  0
   33.8731   -3.0502   22.4844 C   0  0  0  0  0  0
   32.6188   -2.7598   21.9974 C   0  0  0  0  0  0
   31.6607   -2.3175   22.8851 C   0  0  0  0  0  0
   31.9304   -2.1363   24.2410 C   0  0  0  0  0  0
   30.8562   -1.6202   25.0959 C   0  0  0  0  0  0
   30.8636   -1.0763   26.3327 C   0  0  0  0  0  0
   32.0248   -0.6409   27.1338 C   0  0  0  0  0  0
   32.3251   -1.3140   28.3198 C   0  0  0  0  0  0
   33.4088   -0.9189   29.0933 C   0  0  0  0  0  0
   34.1798    0.1683   28.6993 C   0  0  0  0  0  0
   33.8571    0.8887   27.5505 C   0  0  0  0  0  0
   32.7841    0.4745   26.7600 C   0  0  0  0  0  0
   35.2619    0.5036   29.4632 O   0  0  0  0  0  0
   29.5521   -0.9595   26.9671 C   0  0  0  0  0  0
   28.8656    0.2544   27.0179 C   0  0  0  0  0  0
   27.5488    0.2673   27.4646 C   0  0  0  0  0  0
   26.9536   -0.9286   27.8630 C   0  0  0  0  0  0
   27.6499   -2.1266   27.8640 C   0  0  0  0  0  0
   28.9593   -2.1412   27.4219 C   0  0  0  0  0  0
   25.6600   -0.9418   28.2665 O   0  0  0  0  0  0
   35.2600   -3.3459   21.2296 Br  0  0  0  0  0  0
   33.3830   -2.5088   25.7954 H   0  0  0  0  0  0
   35.0590   -3.3418   24.2545 H   0  0  0  0  0  0
   32.4009   -2.8329   20.9413 H   0  0  0  0  0  0
   30.6769   -2.1417   22.4951 H   0  0  0  0  0  0
   29.8746   -1.7423   24.6640 H   0  0  0  0  0  0
   31.7225   -2.1472   28.6420 H   0  0  0  0  0  0
   33.6572   -1.4568   29.9960 H   0  0  0  0  0  0
   34.4510    1.7395   27.2518 H   0  0  0  0  0  0
   32.5472    1.0252   25.8612 H   0  0  0  0  0  0
   35.9306    1.0618   29.0566 H   0  0  0  0  0  0
   29.3278    1.1649   26.6635 H   0  0  0  0  0  0
   26.9927    1.1935   27.4770 H   0  0  0  0  0  0
   27.1679   -3.0424   28.1742 H   0  0  0  0  0  0
   29.4913   -3.0816   27.3793 H   0  0  0  0  0  0
   25.2275   -0.1059   28.0827 H   0  0  0  0  0  0
  1  6  1  0  0  0
  1  2  2  0  0  0
  1 24  1  0  0  0
  2  3  1  0  0  0
  2 25  1  0  0  0
  3  4  2  0  0  0
  3 23  1  0  0  0
  4  5  1  0  0  0
  4 26  1  0  0  0
  5  6  2  0  0  0
  5 27  1  0  0  0
  6  7  1  0  0  0
  7  8  2  3  0  0
  7 28  1  0  0  0
  8  9  1  0  0  0
  8 16  1  0  0  0
  9 14  1  0  0  0
  9 10  2  0  0  0
 10 11  1  0  0  0
 10 29  1  0  0  0
 11 12  2  0  0  0
 11 30  1  0  0  0
 12 13  1  0  0  0
 12 15  1  0  0  0
 13 14  2  0  0  0
 13 31  1  0  0  0
 14 32  1  0  0  0
 15 33  1  0  0  0
 16 21  1  0  0  0
 16 17  2  0  0  0
 17 18  1  0  0  0
 17 34  1  0  0  0
 18 19  2  0  0  0
 18 35  1  0  0  0
 19 20  1  0  0  0
 19 22  1  0  0  0
 20 21  2  0  0  0
 20 36  1  0  0  0
 21 37  1  0  0  0
 22 38  1  0  0  0
M  END
> <s_m_entry_id>
17494

> <s_m_entry_name>
ligand_docking-pose.421

> <s_m_Source_Path>
/home/csk/Desktop/cluster/DUD-E-result/esr1

> <s_m_Source_File>
ligand_docking-pose.sdf

> <i_m_Source_File_Index>
421

> <i_lp_mmshare_version>
53161

> <i_f3d_flags>
0

> <r_lp_tautomer_probability>
1

> <s_lp_Force_Field>
OPLS_2005

> <r_lp_Energy>
24.56929

> <b_lp_Chiralities_Consistent>
1

> <s_lp_Variant>
49687-1

> <s_i_glide_gridfile>
glide-grid_1sj0

> <i_i_glide_lignum>
410

> <i_i_glide_rotatable_bonds>
5

> <r_i_docking_score>
-8.15932158366238

> <r_i_glide_ligand_efficiency>
-0.354753112333147

> <r_i_glide_ligand_efficiency_sa>
-1.00887066110937

> <r_i_glide_ligand_efficiency_ln>
-1.97299794356723

> <r_i_glide_gscore>
-8.15932158366238

> <r_i_glide_lipo>
-4.75710873413698

> <r_i_glide_hbond>
-0.238894845174882

> <r_i_glide_metal>
0

> <r_i_glide_rewards>
-1.58370181358609

> <r_i_glide_evdw>
-31.483757019043

> <r_i_glide_ecoul>
-2.89190316200256

> <r_i_glide_erotb>
0.428357134488104

> <r_i_glide_esite>
0

> <r_i_glide_emodel>
-37.1188133379282

> <r_i_glide_energy>
-34.3756601810455

> <r_i_glide_einternal>
6.60037136077881

> <i_i_glide_confnum>
13

> <i_i_glide_posenum>
152

> <r_i_glide_eff_state_penalty>
0

> <s_user_duplicate_titles>
49687

> <s_m_subgroup_title>
dock_pv

> <s_m_subgroupid>
dock_pv1

> <b_m_subgroup_collapsed>
0

$$$$
356713
                    3D
 Schrodinger Suite 2021-1.
 39 41  0  0  1  0            999 V2000
   26.3514   -1.7767   27.5767 C   0  0  0  0  0  0
   27.4534   -0.9156   26.9466 C   0  0  0  0  0  0
   28.8837   -1.3643   27.3383 C   0  0  0  0  0  0
   30.0508   -0.4847   26.7725 C   0  0  1  0  0  0
   29.9502    1.0035   27.2115 C   0  0  0  0  0  0
   30.0481    1.1520   28.7476 C   0  0  0  0  0  0
   31.2570    0.4093   29.3545 C   0  0  0  0  0  0
   31.5376    0.5820   30.5405 O   0  0  0  0  0  0
   31.9167   -0.6191   28.5082 C   0  0  0  0  0  0
   31.4032   -0.9994   27.3026 C   0  0  0  0  0  0
   31.9705   -1.8752   26.2476 C   0  0  0  0  0  0
   33.0622   -2.7455   26.2510 C   0  0  0  0  0  0
   33.4898   -3.3419   25.0643 C   0  0  0  0  0  0
   32.8379   -3.0741   23.8667 C   0  0  0  0  0  0
   31.7472   -2.2097   23.8564 C   0  0  0  0  0  0
   31.2958   -1.6434   25.0494 C   0  0  0  0  0  0
   30.1781   -0.6700   25.2478 C   0  0  0  0  0  0
   33.2696   -3.6774   22.7167 O   0  0  0  0  0  0
   33.2563   -1.1360   29.0468 C   0  0  0  0  0  0
   25.3714   -1.4794   27.2025 H   0  0  0  0  0  0
   26.3325   -1.6720   28.6619 H   0  0  0  0  0  0
   26.4817   -2.8333   27.3356 H   0  0  0  0  0  0
   27.3290   -0.9432   25.8644 H   0  0  0  0  0  0
   27.2803    0.1173   27.2447 H   0  0  0  0  0  0
   28.9457   -1.4031   28.4260 H   0  0  0  0  0  0
   29.0258   -2.3992   27.0198 H   0  0  0  0  0  0
   30.7561    1.5790   26.7520 H   0  0  0  0  0  0
   29.0310    1.4600   26.8457 H   0  0  0  0  0  0
   29.1569    0.7036   29.1864 H   0  0  0  0  0  0
   30.0778    2.1975   29.0581 H   0  0  0  0  0  0
   33.6030   -2.9685   27.1563 H   0  0  0  0  0  0
   34.3326   -4.0163   25.0641 H   0  0  0  0  0  0
   31.2494   -1.9993   22.9225 H   0  0  0  0  0  0
   29.2610   -1.0227   24.7841 H   0  0  0  0  0  0
   30.4418    0.2580   24.7600 H   0  0  0  0  0  0
   32.6709   -3.5782   21.9726 H   0  0  0  0  0  0
   33.6271   -0.6027   29.9258 H   0  0  0  0  0  0
   33.1755   -2.1910   29.3141 H   0  0  0  0  0  0
   34.0306   -1.0303   28.2861 H   0  0  0  0  0  0
  1  2  1  0  0  0
  1 20  1  0  0  0
  1 21  1  0  0  0
  1 22  1  0  0  0
  2  3  1  0  0  0
  2 23  1  0  0  0
  2 24  1  0  0  0
  3  4  1  0  0  0
  3 25  1  0  0  0
  3 26  1  0  0  0
  4 10  1  0  0  0
  4 17  1  0  0  0
  4  5  1  0  0  0
  5  6  1  0  0  0
  5 27  1  0  0  0
  5 28  1  0  0  0
  6  7  1  0  0  0
  6 29  1  0  0  0
  6 30  1  0  0  0
  7  8  2  0  0  0
  7  9  1  0  0  0
  9 10  2  0  0  0
  9 19  1  0  0  0
 10 11  1  0  0  0
 11 16  1  0  0  0
 11 12  2  0  0  0
 12 13  1  0  0  0
 12 31  1  0  0  0
 13 14  2  0  0  0
 13 32  1  0  0  0
 14 15  1  0  0  0
 14 18  1  0  0  0
 15 16  2  0  0  0
 15 33  1  0  0  0
 16 17  1  0  0  0
 17 34  1  0  0  0
 17 35  1  0  0  0
 18 36  1  0  0  0
 19 37  1  0  0  0
 19 38  1  0  0  0
 19 39  1  0  0  0
M  END
> <s_m_entry_id>
17495

> <s_m_entry_name>
ligand_docking-pose.422

> <s_m_Source_Path>
/home/csk/Desktop/cluster/DUD-E-result/esr1

> <s_m_Source_File>
ligand_docking-pose.sdf

> <i_m_Source_File_Index>
422

> <i_lp_mmshare_version>
53161

> <i_f3d_flags>
0

> <r_lp_tautomer_probability>
1

> <s_lp_Force_Field>
OPLS_2005

> <r_lp_Energy>
21.438567

> <b_lp_Chiralities_Consistent>
1

> <s_lp_Variant>
356713-1

> <s_i_glide_gridfile>
glide-grid_1sj0

> <i_i_glide_lignum>
1227

> <i_i_glide_rotatable_bonds>
3

> <r_i_docking_score>
-8.14881425369214

> <r_i_glide_ligand_efficiency>
-0.428884960720639

> <r_i_glide_ligand_efficiency_sa>
-1.14443733517576

> <r_i_glide_ligand_efficiency_ln>
-2.06589943379329

> <r_i_glide_gscore>
-8.14881425369214

> <r_i_glide_lipo>
-3.99987614426961

> <r_i_glide_hbond>
0

> <r_i_glide_metal>
0

> <r_i_glide_rewards>
-2.80317615866604

> <r_i_glide_evdw>
-31.6834716796875

> <r_i_glide_ecoul>
-0.198703616857529

> <r_i_glide_erotb>
0.268217175756514

> <r_i_glide_esite>
0

> <r_i_glide_emodel>
-46.8667289987265

> <r_i_glide_energy>
-31.882175296545

> <r_i_glide_einternal>
0.969511687755585

> <i_i_glide_confnum>
3

> <i_i_glide_posenum>
212

> <r_i_glide_eff_state_penalty>
0

> <s_user_duplicate_titles>
356713,350732

> <s_m_subgroup_title>
dock_pv

> <s_m_subgroupid>
dock_pv1

> <b_m_subgroup_collapsed>
0

$$$$
313497
                    3D
 Schrodinger Suite 2021-1.
 30 32  0  0  1  0            999 V2000
   33.5861   -3.7995   23.3904 C   0  0  0  0  0  0
   33.4261   -3.1939   24.6392 C   0  0  0  0  0  0
   32.4366   -2.2209   24.8323 C   0  0  0  0  0  0
   31.6281   -1.8794   23.7399 C   0  0  0  0  0  0
   31.7623   -2.5423   22.5171 C   0  0  0  0  0  0
   32.7405   -3.4995   22.3383 C   0  0  0  0  0  0
   32.8843   -4.1423   21.1389 O   0  0  0  0  0  0
   30.6593   -0.9426   23.8640 F   0  0  0  0  0  0
   32.2585   -1.5813   26.1771 C   0  0  0  0  0  0
   32.9416   -1.8496   27.2705 N   0  0  0  0  0  0
   32.4832   -0.9350   28.1747 C   0  0  0  0  0  0
   32.8978   -0.6623   29.4843 C   0  0  0  0  0  0
   32.2532    0.3684   30.1694 C   0  0  0  0  0  0
   31.1974    1.0813   29.5939 C   0  0  0  0  0  0
   30.7445    0.8215   28.2928 C   0  0  0  0  0  0
   31.4425   -0.1851   27.6047 C   0  0  0  0  0  0
   31.3228   -0.5902   26.3130 O   0  0  0  0  0  0
   29.6319    1.6018   27.7206 C   0  0  0  0  0  0
   28.6111    1.1735   26.9507 C   0  0  0  0  0  0
   28.2743   -0.7124   26.4527 Br  0  0  0  0  0  0
   32.6739    0.6920   31.4266 O   0  0  0  0  0  0
   34.3261   -4.5547   23.2164 H   0  0  0  0  0  0
   34.0601   -3.4905   25.4616 H   0  0  0  0  0  0
   31.1167   -2.3223   21.6863 H   0  0  0  0  0  0
   32.1101   -4.6270   20.8154 H   0  0  0  0  0  0
   33.7093   -1.2211   29.9283 H   0  0  0  0  0  0
   30.7256    1.8566   30.1764 H   0  0  0  0  0  0
   29.6605    2.6577   27.9445 H   0  0  0  0  0  0
   27.8604    1.8416   26.5518 H   0  0  0  0  0  0
   33.4197    0.1582   31.7056 H   0  0  0  0  0  0
  1  6  1  0  0  0
  1  2  2  0  0  0
  1 22  1  0  0  0
  2  3  1  0  0  0
  2 23  1  0  0  0
  3  4  2  0  0  0
  3  9  1  0  0  0
  4  5  1  0  0  0
  4  8  1  0  0  0
  5  6  2  0  0  0
  5 24  1  0  0  0
  6  7  1  0  0  0
  7 25  1  0  0  0
  9 17  1  0  0  0
  9 10  2  0  0  0
 10 11  1  0  0  0
 11 16  2  0  0  0
 11 12  1  0  0  0
 12 13  2  0  0  0
 12 26  1  0  0  0
 13 14  1  0  0  0
 13 21  1  0  0  0
 14 15  2  0  0  0
 14 27  1  0  0  0
 15 16  1  0  0  0
 15 18  1  0  0  0
 16 17  1  0  0  0
 18 19  2  0  0  0
 18 28  1  0  0  0
 19 20  1  0  0  0
 19 29  1  0  0  0
 21 30  1  0  0  0
M  END
> <s_m_entry_id>
17497

> <s_m_entry_name>
ligand_docking-pose.424

> <s_m_Source_Path>
/home/csk/Desktop/cluster/DUD-E-result/esr1

> <s_m_Source_File>
ligand_docking-pose.sdf

> <i_m_Source_File_Index>
424

> <i_lp_mmshare_version>
53161

> <i_f3d_flags>
0

> <r_lp_tautomer_probability>
0.999999999997365

> <s_lp_Force_Field>
OPLS_2005

> <r_lp_Energy>
19.233809

> <b_lp_Chiralities_Consistent>
1

> <s_lp_Variant>
313497-1

> <s_i_glide_gridfile>
glide-grid_1sj0

> <i_i_glide_lignum>
673

> <i_i_glide_rotatable_bonds>
4

> <r_i_docking_score>
-8.14416436141737

> <r_i_glide_ligand_efficiency>
-0.387817350543684

> <r_i_glide_ligand_efficiency_sa>
-1.06995866334921

> <r_i_glide_ligand_efficiency_ln>
-2.0136281815268

> <r_i_glide_gscore>
-8.14416436141737

> <r_i_glide_lipo>
-4.3648803337651

> <r_i_glide_hbond>
-0.148127889613013

> <r_i_glide_metal>
0

> <r_i_glide_rewards>
-1.85199400044022

> <r_i_glide_evdw>
-31.7573547363281

> <r_i_glide_ecoul>
-3.34790372848511

> <r_i_glide_erotb>
0.310891158490134

> <r_i_glide_esite>
0

> <r_i_glide_emodel>
-49.3038125928427

> <r_i_glide_energy>
-35.1052584648132

> <r_i_glide_einternal>
4.70103120803833

> <i_i_glide_confnum>
3

> <i_i_glide_posenum>
160

> <r_i_glide_eff_state_penalty>
0

> <s_user_duplicate_titles>
313497

> <s_m_subgroup_title>
dock_pv

> <s_m_subgroupid>
dock_pv1

> <b_m_subgroup_collapsed>
0

$$$$
308604
                    3D
 Schrodinger Suite 2021-1.
 29 31  0  0  1  0            999 V2000
   33.1996   -3.2431   24.6382 C   0  0  0  0  0  0
   33.4178   -3.9510   23.4638 C   0  0  0  0  0  0
   32.7479   -3.6172   22.2993 C   0  0  0  0  0  0
   31.8694   -2.5426   22.2943 C   0  0  0  0  0  0
   31.6600   -1.8076   23.4643 C   0  0  0  0  0  0
   32.3099   -2.1697   24.6487 C   0  0  0  0  0  0
   32.0552   -1.4500   25.9288 C   0  0  0  0  0  0
   32.7467   -1.4108   27.1322 C   0  0  0  0  0  0
   32.0352   -0.5290   27.9931 C   0  0  0  0  0  0
   32.2131   -0.0308   29.2899 C   0  0  0  0  0  0
   31.2484    0.8352   29.8034 C   0  0  0  0  0  0
   30.1149    1.1856   29.0635 C   0  0  0  0  0  0
   29.8899    0.6981   27.7648 C   0  0  0  0  0  0
   30.8933   -0.1417   27.2536 C   0  0  0  0  0  0
   30.9151   -0.6991   26.0036 O   0  0  0  0  0  0
   28.6542    1.0601   27.0280 C   0  0  0  0  0  0
   27.7535    1.7720   27.4708 O   0  0  0  0  0  0
   31.4132    1.3387   31.0642 O   0  0  0  0  0  0
   32.9620   -4.3569   21.1671 O   0  0  0  0  0  0
   33.6965   -3.5580   25.5433 H   0  0  0  0  0  0
   34.0602   -4.8100   23.4758 H   0  0  0  0  0  0
   31.3526   -2.2965   21.3798 H   0  0  0  0  0  0
   30.9686   -0.9778   23.4638 H   0  0  0  0  0  0
   33.6598   -1.9359   27.3454 H   0  0  0  0  0  0
   33.0779   -0.3141   29.8708 H   0  0  0  0  0  0
   29.3931    1.8470   29.5239 H   0  0  0  0  0  0
   28.5878    0.6372   26.0245 H   0  0  0  0  0  0
   32.2444    1.0735   31.4643 H   0  0  0  0  0  0
   32.1778   -4.7641   20.7689 H   0  0  0  0  0  0
  1  6  1  0  0  0
  1  2  2  0  0  0
  1 20  1  0  0  0
  2  3  1  0  0  0
  2 21  1  0  0  0
  3  4  2  0  0  0
  3 19  1  0  0  0
  4  5  1  0  0  0
  4 22  1  0  0  0
  5  6  2  0  0  0
  5 23  1  0  0  0
  6  7  1  0  0  0
  7 15  1  0  0  0
  7  8  2  0  0  0
  8  9  1  0  0  0
  8 24  1  0  0  0
  9 14  2  0  0  0
  9 10  1  0  0  0
 10 11  2  0  0  0
 10 25  1  0  0  0
 11 12  1  0  0  0
 11 18  1  0  0  0
 12 13  2  0  0  0
 12 26  1  0  0  0
 13 14  1  0  0  0
 13 16  1  0  0  0
 14 15  1  0  0  0
 16 17  2  0  0  0
 16 27  1  0  0  0
 18 28  1  0  0  0
 19 29  1  0  0  0
M  END
> <s_m_entry_id>
17498

> <s_m_entry_name>
ligand_docking-pose.425

> <s_m_Source_Path>
/home/csk/Desktop/cluster/DUD-E-result/esr1

> <s_m_Source_File>
ligand_docking-pose.sdf

> <i_m_Source_File_Index>
425

> <i_lp_mmshare_version>
53161

> <i_f3d_flags>
0

> <r_lp_tautomer_probability>
0.999999999997365

> <s_lp_Force_Field>
OPLS_2005

> <r_lp_Energy>
8.374773

> <b_lp_Chiralities_Consistent>
1

> <s_lp_Variant>
308604-1

> <s_i_glide_gridfile>
glide-grid_1sj0

> <i_i_glide_lignum>
244

> <i_i_glide_rotatable_bonds>
4

> <r_i_docking_score>
-8.14255010099451

> <r_i_glide_ligand_efficiency>
-0.428555268473395

> <r_i_glide_ligand_efficiency_sa>
-1.1435575838405

> <r_i_glide_ligand_efficiency_ln>
-2.06431133654278

> <r_i_glide_gscore>
-8.14255010099451

> <r_i_glide_lipo>
-3.445345981145

> <r_i_glide_hbond>
-0.16

> <r_i_glide_metal>
0

> <r_i_glide_rewards>
-2.82322337160811

> <r_i_glide_evdw>
-30.8089847564697

> <r_i_glide_ecoul>
-2.97047328948975

> <r_i_glide_erotb>
0.272039483005549

> <r_i_glide_esite>
0

> <r_i_glide_emodel>
-49.3332591509683

> <r_i_glide_energy>
-33.7794580459595

> <r_i_glide_einternal>
3.35051035881042

> <i_i_glide_confnum>
1

> <i_i_glide_posenum>
340

> <r_i_glide_eff_state_penalty>
0

> <s_user_duplicate_titles>
308604

> <s_m_subgroup_title>
dock_pv

> <s_m_subgroupid>
dock_pv1

> <b_m_subgroup_collapsed>
0

$$$$
313158
                    3D
 Schrodinger Suite 2021-1.
 41 43  0  0  1  0            999 V2000
   25.6627   -3.1350   28.5068 C   0  0  0  0  0  0
   26.9547   -2.6212   27.8642 C   0  0  0  0  0  0
   27.0028   -1.0799   27.7246 C   0  0  0  0  0  0
   28.3845   -0.4815   27.4263 C   0  0  0  0  0  0
   29.4510   -1.2981   27.0351 C   0  0  0  0  0  0
   30.7280   -0.7749   26.8349 C   0  0  0  0  0  0
   30.9791    0.5843   27.0665 C   0  0  0  0  0  0
   29.9082    1.4095   27.4265 C   0  0  0  0  0  0
   28.6232    0.8929   27.5709 C   0  0  0  0  0  0
   27.6129    1.7678   27.8607 O   0  0  0  0  0  0
   32.3828    1.1738   26.9305 C   0  0  0  0  0  0
   33.2165    1.0344   28.2128 C   0  0  0  0  0  0
   31.7594   -1.7382   26.3926 C   0  0  0  0  0  0
   32.0670   -2.0925   25.0477 C   0  0  0  0  0  0
   31.6571   -1.7345   23.7563 C   0  0  0  0  0  0
   32.2039   -2.4156   22.6648 C   0  0  0  0  0  0
   33.1644   -3.4080   22.8406 C   0  0  0  0  0  0
   33.6136   -3.7414   24.1130 C   0  0  0  0  0  0
   33.0330   -3.0857   25.1946 C   0  0  0  0  0  0
   33.2599   -3.3190   26.5159 O   0  0  0  0  0  0
   32.4606   -2.4420   27.2540 N   0  0  0  0  0  0
   33.6565   -4.0909   21.7623 O   0  0  0  0  0  0
   25.7059   -4.2095   28.6647 H   0  0  0  0  0  0
   24.8206   -2.9423   27.8636 H   0  0  0  0  0  0
   25.4512   -2.6639   29.4638 H   0  0  0  0  0  0
   27.7876   -2.9711   28.4751 H   0  0  0  0  0  0
   27.0739   -3.0866   26.8837 H   0  0  0  0  0  0
   26.2997   -0.7532   26.9567 H   0  0  0  0  0  0
   26.6594   -0.6469   28.6641 H   0  0  0  0  0  0
   29.3042   -2.3565   26.8812 H   0  0  0  0  0  0
   30.0596    2.4640   27.5939 H   0  0  0  0  0  0
   26.7503    1.3484   27.8547 H   0  0  0  0  0  0
   32.9037    0.7012   26.0974 H   0  0  0  0  0  0
   32.3227    2.2282   26.6650 H   0  0  0  0  0  0
   34.2031    1.4781   28.0871 H   0  0  0  0  0  0
   32.7340    1.5300   29.0555 H   0  0  0  0  0  0
   33.3637   -0.0122   28.4823 H   0  0  0  0  0  0
   30.9100   -0.9673   23.6069 H   0  0  0  0  0  0
   31.8744   -2.1529   21.6704 H   0  0  0  0  0  0
   34.3099   -4.5415   24.2649 H   0  0  0  0  0  0
   33.0908   -4.0380   20.9876 H   0  0  0  0  0  0
  1  2  1  0  0  0
  1 23  1  0  0  0
  1 24  1  0  0  0
  1 25  1  0  0  0
  2  3  1  0  0  0
  2 26  1  0  0  0
  2 27  1  0  0  0
  3  4  1  0  0  0
  3 28  1  0  0  0
  3 29  1  0  0  0
  4  9  1  0  0  0
  4  5  2  0  0  0
  5  6  1  0  0  0
  5 30  1  0  0  0
  6  7  2  0  0  0
  6 13  1  0  0  0
  7  8  1  0  0  0
  7 11  1  0  0  0
  8  9  2  0  0  0
  8 31  1  0  0  0
  9 10  1  0  0  0
 10 32  1  0  0  0
 11 12  1  0  0  0
 11 33  1  0  0  0
 11 34  1  0  0  0
 12 35  1  0  0  0
 12 36  1  0  0  0
 12 37  1  0  0  0
 13 21  2  0  0  0
 13 14  1  0  0  0
 14 19  2  0  0  0
 14 15  1  0  0  0
 15 16  2  0  0  0
 15 38  1  0  0  0
 16 17  1  0  0  0
 16 39  1  0  0  0
 17 18  2  0  0  0
 17 22  1  0  0  0
 18 19  1  0  0  0
 18 40  1  0  0  0
 19 20  1  0  0  0
 20 21  1  0  0  0
 22 41  1  0  0  0
M  END
> <s_m_entry_id>
17499

> <s_m_entry_name>
ligand_docking-pose.426

> <s_m_Source_Path>
/home/csk/Desktop/cluster/DUD-E-result/esr1

> <s_m_Source_File>
ligand_docking-pose.sdf

> <i_m_Source_File_Index>
426

> <i_lp_mmshare_version>
53161

> <i_f3d_flags>
0

> <r_lp_tautomer_probability>
0.999999999997365

> <s_lp_Force_Field>
OPLS_2005

> <r_lp_Energy>
25.623072

> <b_lp_Chiralities_Consistent>
1

> <s_lp_Variant>
313158-1

> <s_i_glide_gridfile>
glide-grid_1sj0

> <i_i_glide_lignum>
1283

> <i_i_glide_rotatable_bonds>
6

> <r_i_docking_score>
-8.14041423584649

> <r_i_glide_ligand_efficiency>
-0.370018828902113

> <r_i_glide_ligand_efficiency_sa>
-1.0368073105985

> <r_i_glide_ligand_efficiency_ln>
-1.98981416806469

> <r_i_glide_gscore>
-8.14041423584649

> <r_i_glide_lipo>
-4.24222932977671

> <r_i_glide_hbond>
0

> <r_i_glide_metal>
0

> <r_i_glide_rewards>
-2.18740158845304

> <r_i_glide_evdw>
-35.7237129211426

> <r_i_glide_ecoul>
-2.26214408874512

> <r_i_glide_erotb>
0.414723941752154

> <r_i_glide_esite>
0

> <r_i_glide_emodel>
-52.2035563682754

> <r_i_glide_energy>
-37.9858570098877

> <r_i_glide_einternal>
5.31226873397827

> <i_i_glide_confnum>
7

> <i_i_glide_posenum>
292

> <r_i_glide_eff_state_penalty>
0

> <s_user_duplicate_titles>
313158

> <s_m_subgroup_title>
dock_pv

> <s_m_subgroupid>
dock_pv1

> <b_m_subgroup_collapsed>
0

$$$$
224401
                    3D
 Schrodinger Suite 2021-1.
 37 40  0  0  1  0            999 V2000
   33.1873    1.0789   28.2710 C   0  0  0  0  0  0
   31.9278    0.1788   28.4295 C   0  0  2  0  0  0
   32.2984   -1.3109   28.6760 C   0  0  0  0  0  0
   33.1294   -1.8915   27.5255 C   0  0  0  0  0  0
   32.3554   -1.7161   26.2262 C   0  0  0  0  0  0
   32.6064   -2.3888   24.9850 C   0  0  0  0  0  0
   33.6258   -3.2846   24.6257 C   0  0  0  0  0  0
   33.6601   -3.8082   23.3355 C   0  0  0  0  0  0
   32.6932   -3.5246   22.3943 C   0  0  0  0  0  0
   31.6627   -2.6525   22.7055 C   0  0  0  0  0  0
   31.6434   -2.0667   23.9890 C   0  0  0  0  0  0
   30.4605   -0.9418   24.6202 S   0  0  0  0  0  0
   31.3376   -0.7778   26.1113 C   0  0  0  0  0  0
   31.0200    0.2961   27.1619 C   0  0  1  0  0  0
   29.5791    0.4735   27.6375 C   0  0  0  0  0  0
   29.7460    1.2680   28.9321 C   0  0  0  0  0  0
   31.0059    0.6804   29.5808 C   0  0  2  0  0  0
   31.5808    1.4579   30.6112 O   0  0  0  0  0  0
   32.7834   -4.1270   21.1667 O   0  0  0  0  0  0
   31.2717    1.2327   26.6635 H   0  0  0  0  0  0
   30.6614   -0.1977   30.1227 H   0  0  0  0  0  0
   33.8946    0.9296   29.0877 H   0  0  0  0  0  0
   33.7179    0.8851   27.3384 H   0  0  0  0  0  0
   32.9196    2.1364   28.2628 H   0  0  0  0  0  0
   32.8673   -1.3981   29.6033 H   0  0  0  0  0  0
   31.4015   -1.9169   28.8208 H   0  0  0  0  0  0
   34.0599   -1.3424   27.4780 H   0  0  0  0  0  0
   33.3597   -2.9395   27.7200 H   0  0  0  0  0  0
   34.3931   -3.5528   25.3283 H   0  0  0  0  0  0
   34.4441   -4.4831   23.0391 H   0  0  0  0  0  0
   30.8884   -2.4772   21.9775 H   0  0  0  0  0  0
   28.9548    0.9870   26.9044 H   0  0  0  0  0  0
   29.1200   -0.4975   27.8300 H   0  0  0  0  0  0
   29.8996    2.3253   28.7152 H   0  0  0  0  0  0
   28.8705    1.2069   29.5742 H   0  0  0  0  0  0
   32.2309    0.9198   31.0685 H   0  0  0  0  0  0
   31.9556   -4.4220   20.7644 H   0  0  0  0  0  0
  1  2  1  0  0  0
  1 22  1  0  0  0
  1 23  1  0  0  0
  1 24  1  0  0  0
  2 14  1  0  0  0
  2 17  1  0  0  0
  2  3  1  0  0  0
  3  4  1  0  0  0
  3 25  1  0  0  0
  3 26  1  0  0  0
  4  5  1  0  0  0
  4 27  1  0  0  0
  4 28  1  0  0  0
  5 13  2  0  0  0
  5  6  1  0  0  0
  6 11  2  0  0  0
  6  7  1  0  0  0
  7  8  2  0  0  0
  7 29  1  0  0  0
  8  9  1  0  0  0
  8 30  1  0  0  0
  9 10  2  0  0  0
  9 19  1  0  0  0
 10 11  1  0  0  0
 10 31  1  0  0  0
 11 12  1  0  0  0
 12 13  1  0  0  0
 13 14  1  0  0  0
 14 20  1  0  0  0
 14 15  1  0  0  0
 15 16  1  0  0  0
 15 32  1  0  0  0
 15 33  1  0  0  0
 16 17  1  0  0  0
 16 34  1  0  0  0
 16 35  1  0  0  0
 17 21  1  0  0  0
 17 18  1  0  0  0
 18 36  1  0  0  0
 19 37  1  0  0  0
M  END
> <s_m_entry_id>
17500

> <s_m_entry_name>
ligand_docking-pose.427

> <s_m_Source_Path>
/home/csk/Desktop/cluster/DUD-E-result/esr1

> <s_m_Source_File>
ligand_docking-pose.sdf

> <i_m_Source_File_Index>
427

> <i_lp_mmshare_version>
53161

> <i_f3d_flags>
0

> <r_lp_tautomer_probability>
1

> <s_lp_Force_Field>
OPLS_2005

> <r_lp_Energy>
29.756359

> <b_lp_Chiralities_Consistent>
1

> <s_lp_Variant>
224401-1

> <s_i_glide_gridfile>
glide-grid_1sj0

> <i_i_glide_lignum>
762

> <i_i_glide_rotatable_bonds>
2

> <r_i_docking_score>
-8.13628487831831

> <r_i_glide_ligand_efficiency>
-0.42822551991149

> <r_i_glide_ligand_efficiency_sa>
-1.14267768223512

> <r_i_glide_ligand_efficiency_ln>
-2.06272296802972

> <r_i_glide_gscore>
-8.13628487831831

> <r_i_glide_lipo>
-4.22938975688649

> <r_i_glide_hbond>
-0.100873910542698

> <r_i_glide_metal>
0

> <r_i_glide_rewards>
-2.27183990214279

> <r_i_glide_evdw>
-27.0051746368408

> <r_i_glide_ecoul>
-1.22615051269531

> <r_i_glide_erotb>
0

> <r_i_glide_esite>
0

> <r_i_glide_emodel>
-32.6189505118566

> <r_i_glide_energy>
-28.2313251495361

> <r_i_glide_einternal>
2.2066593170166

> <i_i_glide_confnum>
1

> <i_i_glide_posenum>
170

> <r_i_glide_eff_state_penalty>
0

> <s_user_duplicate_titles>
224401

> <s_m_subgroup_title>
dock_pv

> <s_m_subgroupid>
dock_pv1

> <b_m_subgroup_collapsed>
0

$$$$
357161
                    3D
 Schrodinger Suite 2021-1.
 46 49  0  0  1  0            999 V2000
   27.2419   -3.7509   27.2542 C   0  0  0  0  0  0
   27.4647   -2.2363   27.2705 C   0  0  0  0  0  0
   28.9198   -1.8529   26.9169 C   0  0  0  0  0  0
   29.3480   -0.3855   27.1689 C   0  0  1  0  0  0
   29.1397   -0.0490   28.6635 C   0  0  0  0  0  0
   29.6382    1.3401   29.1174 C   0  0  0  0  0  0
   31.0642    1.6216   28.6170 C   0  0  2  0  0  0
   31.0561    1.5026   27.0783 C   0  0  0  0  0  0
   30.7916    0.0357   26.6840 C   0  0  2  0  0  0
   30.9707   -0.1887   25.1765 C   0  0  0  0  0  0
   31.6928   -1.4730   25.0282 C   0  0  0  0  0  0
   32.0255   -2.1307   23.8395 C   0  0  0  0  0  0
   33.0022   -3.1177   23.8577 C   0  0  0  0  0  0
   33.6081   -3.4477   25.0630 C   0  0  0  0  0  0
   33.1972   -2.8665   26.2601 C   0  0  0  0  0  0
   32.2796   -1.8227   26.2432 C   0  0  0  0  0  0
   31.9072   -0.8315   27.2866 C   0  0  0  0  0  0
   32.4503   -0.5637   28.5120 C   0  0  0  0  0  0
   32.0685    0.6499   29.2912 C   0  0  0  0  0  0
   32.4819    0.8871   30.4288 O   0  0  0  0  0  0
   33.5031   -1.4527   29.1744 C   0  0  0  0  0  0
   33.3964   -3.7409   22.7034 O   0  0  0  0  0  0
   28.6604    0.2540   26.6106 H   0  0  0  0  0  0
   31.3500    2.6381   28.9029 H   0  0  0  0  0  0
   26.2143   -3.9901   27.5277 H   0  0  0  0  0  0
   27.4212   -4.1566   26.2631 H   0  0  0  0  0  0
   27.9019   -4.2650   27.9556 H   0  0  0  0  0  0
   26.7724   -1.7534   26.5772 H   0  0  0  0  0  0
   27.1799   -1.8987   28.2625 H   0  0  0  0  0  0
   29.6073   -2.5208   27.4390 H   0  0  0  0  0  0
   29.0626   -2.0447   25.8640 H   0  0  0  0  0  0
   28.1070   -0.1806   28.9653 H   0  0  0  0  0  0
   29.7146   -0.8214   29.1680 H   0  0  0  0  0  0
   28.9651    2.0993   28.7164 H   0  0  0  0  0  0
   29.5715    1.4580   30.2001 H   0  0  0  0  0  0
   30.2704    2.1370   26.6640 H   0  0  0  0  0  0
   32.0063    1.8574   26.6698 H   0  0  0  0  0  0
   30.0571   -0.1063   24.5858 H   0  0  0  0  0  0
   31.7215    0.4839   24.7711 H   0  0  0  0  0  0
   31.5975   -1.8197   22.8989 H   0  0  0  0  0  0
   34.4231   -4.1424   25.0642 H   0  0  0  0  0  0
   33.6598   -3.1832   27.1746 H   0  0  0  0  0  0
   33.6605   -1.2447   30.2337 H   0  0  0  0  0  0
   33.2009   -2.4975   29.1300 H   0  0  0  0  0  0
   34.4588   -1.3355   28.6652 H   0  0  0  0  0  0
   32.8290   -3.5674   21.9480 H   0  0  0  0  0  0
  1  2  1  0  0  0
  1 25  1  0  0  0
  1 26  1  0  0  0
  1 27  1  0  0  0
  2  3  1  0  0  0
  2 28  1  0  0  0
  2 29  1  0  0  0
  3  4  1  0  0  0
  3 30  1  0  0  0
  3 31  1  0  0  0
  4 23  1  0  0  0
  4  9  1  0  0  0
  4  5  1  0  0  0
  5  6  1  0  0  0
  5 32  1  0  0  0
  5 33  1  0  0  0
  6  7  1  0  0  0
  6 34  1  0  0  0
  6 35  1  0  0  0
  7 24  1  0  0  0
  7 19  1  0  0  0
  7  8  1  0  0  0
  8  9  1  0  0  0
  8 36  1  0  0  0
  8 37  1  0  0  0
  9 17  1  0  0  0
  9 10  1  0  0  0
 10 11  1  0  0  0
 10 38  1  0  0  0
 10 39  1  0  0  0
 11 16  2  0  0  0
 11 12  1  0  0  0
 12 13  2  0  0  0
 12 40  1  0  0  0
 13 14  1  0  0  0
 13 22  1  0  0  0
 14 15  2  0  0  0
 14 41  1  0  0  0
 15 16  1  0  0  0
 15 42  1  0  0  0
 16 17  1  0  0  0
 17 18  2  0  0  0
 18 19  1  0  0  0
 18 21  1  0  0  0
 19 20  2  0  0  0
 21 43  1  0  0  0
 21 44  1  0  0  0
 21 45  1  0  0  0
 22 46  1  0  0  0
M  END
> <s_m_entry_id>
17501

> <s_m_entry_name>
ligand_docking-pose.428

> <s_m_Source_Path>
/home/csk/Desktop/cluster/DUD-E-result/esr1

> <s_m_Source_File>
ligand_docking-pose.sdf

> <i_m_Source_File_Index>
428

> <i_lp_mmshare_version>
53161

> <i_f3d_flags>
0

> <r_lp_tautomer_probability>
1

> <s_lp_Force_Field>
OPLS_2005

> <r_lp_Energy>
31.935459

> <b_lp_Chiralities_Consistent>
1

> <s_lp_Variant>
357161-1

> <s_i_glide_gridfile>
glide-grid_1sj0

> <i_i_glide_lignum>
1457

> <i_i_glide_rotatable_bonds>
3

> <r_i_docking_score>
-8.13589918627642

> <r_i_glide_ligand_efficiency>
-0.369813599376201

> <r_i_glide_ligand_efficiency_sa>
-1.03623224939567

> <r_i_glide_ligand_efficiency_ln>
-1.98871052525933

> <r_i_glide_gscore>
-8.13589918627642

> <r_i_glide_lipo>
-4.41219459231108

> <r_i_glide_hbond>
0

> <r_i_glide_metal>
0

> <r_i_glide_rewards>
-2.54592017986257

> <r_i_glide_evdw>
-27.4993209838867

> <r_i_glide_ecoul>
-0.0755824372172356

> <r_i_glide_erotb>
0.208519000674151

> <r_i_glide_esite>
0

> <r_i_glide_emodel>
-34.0197125412741

> <r_i_glide_energy>
-27.574903421104

> <r_i_glide_einternal>
0.943224430084229

> <i_i_glide_confnum>
1

> <i_i_glide_posenum>
143

> <r_i_glide_eff_state_penalty>
0

> <s_user_duplicate_titles>
357161

> <s_m_subgroup_title>
dock_pv

> <s_m_subgroupid>
dock_pv1

> <b_m_subgroup_collapsed>
0

$$$$
162630
                    3D
 Schrodinger Suite 2021-1.
 62 66  0  0  1  0            999 V2000
   32.8543    0.1511   30.8394 C   0  0  0  0  0  0
   33.4098    1.0527   29.9397 C   0  0  0  0  0  0
   32.7393    1.3356   28.7524 C   0  0  0  0  0  0
   31.5278    0.6986   28.4628 C   0  0  0  0  0  0
   31.0577   -0.2998   29.3228 C   0  0  0  0  0  0
   31.6949   -0.5426   30.5287 C   0  0  0  0  0  0
   30.7158    1.1636   27.2450 C   0  0  2  0  0  0
   29.4860    1.9959   27.6767 C   0  0  0  0  0  0
   28.4608    1.2298   28.5030 C   0  0  0  0  0  0
   28.0793   -0.0836   27.8343 C   0  0  0  0  0  0
   26.9810   -0.8423   28.2636 C   0  0  0  0  0  0
   26.6303   -2.0303   27.6433 C   0  0  0  0  0  0
   27.2599   -2.3841   26.4659 C   0  0  0  0  0  0
   28.3075   -1.5992   26.0182 C   0  0  0  0  0  0
   28.8397   -0.5635   26.7530 C   0  0  0  0  0  0
   30.1431    0.0905   26.2739 C   0  0  2  0  0  0
   31.1455   -0.8734   25.5998 C   0  0  0  0  0  0
   31.1627   -0.9476   24.2036 C   0  0  0  0  0  0
   32.0532   -1.7783   23.5381 C   0  0  0  0  0  0
   32.9544   -2.5616   24.2614 C   0  0  0  0  0  0
   32.8907   -2.5492   25.6556 C   0  0  0  0  0  0
   32.0073   -1.7025   26.3248 C   0  0  0  0  0  0
   33.9163   -3.3606   23.6732 O   0  0  0  0  0  0
   34.3018   -3.1327   22.3109 C   0  0  0  0  0  0
   33.7822   -4.2499   21.3886 C   0  0  0  0  0  0
   33.7409   -3.8028   19.9942 N   0  0  0  0  0  0
   32.4791   -3.1654   19.6391 C   0  0  0  0  0  0
   32.4702   -3.1370   18.1120 C   0  0  0  0  0  0
   33.2914   -4.3659   17.7206 C   0  0  0  0  0  0
   33.8145   -4.9125   19.0523 C   0  0  0  0  0  0
   25.6597   -2.8257   28.1766 O   0  0  0  0  0  0
   31.3886    1.7985   26.6684 H   0  0  0  0  0  0
   29.7745    0.6745   25.4341 H   0  0  0  0  0  0
   33.3195   -0.0296   31.7929 H   0  0  0  0  0  0
   34.3315    1.5622   30.1831 H   0  0  0  0  0  0
   33.1430    2.0855   28.0866 H   0  0  0  0  0  0
   30.1640   -0.8567   29.1004 H   0  0  0  0  0  0
   31.2791   -1.2596   31.2216 H   0  0  0  0  0  0
   29.7361    2.9299   28.1682 H   0  0  0  0  0  0
   28.9688    2.2588   26.7583 H   0  0  0  0  0  0
   28.8605    1.0641   29.5016 H   0  0  0  0  0  0
   27.5789    1.8580   28.6100 H   0  0  0  0  0  0
   26.3913   -0.5428   29.1097 H   0  0  0  0  0  0
   26.9320   -3.2427   25.8974 H   0  0  0  0  0  0
   28.7694   -1.7419   25.0638 H   0  0  0  0  0  0
   30.4681   -0.3674   23.6172 H   0  0  0  0  0  0
   32.0193   -1.8100   22.4615 H   0  0  0  0  0  0
   33.5620   -3.1762   26.2215 H   0  0  0  0  0  0
   32.0010   -1.7154   27.4012 H   0  0  0  0  0  0
   35.3915   -3.1633   22.2808 H   0  0  0  0  0  0
   34.0592   -2.1370   21.9381 H   0  0  0  0  0  0
   32.8091   -4.6190   21.7186 H   0  0  0  0  0  0
   34.4600   -5.0985   21.4668 H   0  0  0  0  0  0
   32.4457   -2.1669   20.0726 H   0  0  0  0  0  0
   31.6173   -3.6973   20.0497 H   0  0  0  0  0  0
   32.9148   -2.2131   17.7411 H   0  0  0  0  0  0
   31.4537   -3.1846   17.7227 H   0  0  0  0  0  0
   32.6745   -5.1099   17.2173 H   0  0  0  0  0  0
   34.1111   -4.1011   17.0540 H   0  0  0  0  0  0
   33.2599   -5.7888   19.3896 H   0  0  0  0  0  0
   34.8506   -5.2474   18.9799 H   0  0  0  0  0  0
   25.2834   -3.3948   27.4924 H   0  0  0  0  0  0
  1  6  1  0  0  0
  1  2  2  0  0  0
  1 34  1  0  0  0
  2  3  1  0  0  0
  2 35  1  0  0  0
  3  4  2  0  0  0
  3 36  1  0  0  0
  4  5  1  0  0  0
  4  7  1  0  0  0
  5  6  2  0  0  0
  5 37  1  0  0  0
  6 38  1  0  0  0
  7 32  1  0  0  0
  7 16  1  0  0  0
  7  8  1  0  0  0
  8  9  1  0  0  0
  8 39  1  0  0  0
  8 40  1  0  0  0
  9 10  1  0  0  0
  9 41  1  0  0  0
  9 42  1  0  0  0
 10 15  2  0  0  0
 10 11  1  0  0  0
 11 12  2  0  0  0
 11 43  1  0  0  0
 12 13  1  0  0  0
 12 31  1  0  0  0
 13 14  2  0  0  0
 13 44  1  0  0  0
 14 15  1  0  0  0
 14 45  1  0  0  0
 15 16  1  0  0  0
 16 33  1  0  0  0
 16 17  1  0  0  0
 17 22  1  0  0  0
 17 18  2  0  0  0
 18 19  1  0  0  0
 18 46  1  0  0  0
 19 20  2  0  0  0
 19 47  1  0  0  0
 20 21  1  0  0  0
 20 23  1  0  0  0
 21 22  2  0  0  0
 21 48  1  0  0  0
 22 49  1  0  0  0
 23 24  1  0  0  0
 24 25  1  0  0  0
 24 50  1  0  0  0
 24 51  1  0  0  0
 25 26  1  0  0  0
 25 52  1  0  0  0
 25 53  1  0  0  0
 26 30  1  0  0  0
 26 27  1  0  0  0
 27 28  1  0  0  0
 27 54  1  0  0  0
 27 55  1  0  0  0
 28 29  1  0  0  0
 28 56  1  0  0  0
 28 57  1  0  0  0
 29 30  1  0  0  0
 29 58  1  0  0  0
 29 59  1  0  0  0
 30 60  1  0  0  0
 30 61  1  0  0  0
 31 62  1  0  0  0
M  END
> <s_m_entry_id>
17502

> <s_m_entry_name>
ligand_docking-pose.429

> <s_m_Source_Path>
/home/csk/Desktop/cluster/DUD-E-result/esr1

> <s_m_Source_File>
ligand_docking-pose.sdf

> <i_m_Source_File_Index>
429

> <i_lp_mmshare_version>
53161

> <i_f3d_flags>
0

> <r_lp_tautomer_probability>
0.999999999997365

> <s_lp_Force_Field>
OPLS_2005

> <r_lp_Energy>
45.035108

> <b_lp_Chiralities_Consistent>
1

> <s_lp_Variant>
162630-1

> <s_i_glide_gridfile>
glide-grid_1sj0

> <i_i_glide_lignum>
470

> <i_i_glide_rotatable_bonds>
7

> <r_i_docking_score>
-8.13295926773786

> <r_i_glide_ligand_efficiency>
-0.262353524765737

> <r_i_glide_ligand_efficiency_sa>
-0.824152285842397

> <r_i_glide_ligand_efficiency_ln>
-1.83423156014322

> <r_i_glide_gscore>
-8.13295926773786

> <r_i_glide_lipo>
-4.91823962638784

> <r_i_glide_hbond>
-0.152015811554417

> <r_i_glide_metal>
0

> <r_i_glide_rewards>
-1.46830245539737

> <r_i_glide_evdw>
-34.838005065918

> <r_i_glide_ecoul>
-2.86198735237122

> <r_i_glide_erotb>
0.576796981753355

> <r_i_glide_esite>
0

> <r_i_glide_emodel>
-29.8897526038601

> <r_i_glide_energy>
-37.6999924182892

> <r_i_glide_einternal>
18.2963752746582

> <i_i_glide_confnum>
21

> <i_i_glide_posenum>
20

> <r_i_glide_eff_state_penalty>
0

> <s_user_duplicate_titles>
162630

> <s_m_subgroup_title>
dock_pv

> <s_m_subgroupid>
dock_pv1

> <b_m_subgroup_collapsed>
0

$$$$
120896
                    3D
 Schrodinger Suite 2021-1.
 30 33  0  0  1  0            999 V2000
   33.6608   -4.1409   22.8633 C   0  0  0  0  0  0
   33.6045   -3.6933   24.1843 C   0  0  0  0  0  0
   32.6396   -2.7609   24.5571 C   0  0  0  0  0  0
   31.7865   -2.2233   23.5870 C   0  0  0  0  0  0
   31.8730   -2.6730   22.2633 C   0  0  0  0  0  0
   32.7840   -3.6607   21.9084 C   0  0  0  0  0  0
   32.8598   -4.1404   20.6245 O   0  0  0  0  0  0
   30.9702   -1.0929   24.1636 C   0  0  0  0  0  0
   31.0892   -1.2983   25.6612 C   0  0  1  0  0  0
   32.3685   -2.1262   25.8435 C   0  0  0  0  0  0
   32.9737   -2.1423   26.9633 N   0  0  0  0  0  0
   32.5568   -1.2476   27.9618 C   0  0  0  0  0  0
   33.1522   -1.3356   29.2190 C   0  0  0  0  0  0
   32.8018   -0.4247   30.2187 C   0  0  0  0  0  0
   31.8711    0.5833   29.9668 C   0  0  0  0  0  0
   31.2848    0.6983   28.7049 C   0  0  0  0  0  0
   31.6313   -0.2151   27.7115 C   0  0  0  0  0  0
   31.0855   -0.0777   26.4422 O   0  0  0  0  0  0
   31.5468    1.4576   30.9677 O   0  0  0  0  0  0
   34.4197   -4.8455   22.5598 H   0  0  0  0  0  0
   34.2994   -4.0869   24.9102 H   0  0  0  0  0  0
   31.2570   -2.2657   21.4833 H   0  0  0  0  0  0
   32.1863   -4.8109   20.4083 H   0  0  0  0  0  0
   31.4168   -0.1432   23.8772 H   0  0  0  0  0  0
   29.9302   -1.0786   23.8468 H   0  0  0  0  0  0
   30.2396   -1.8798   26.0269 H   0  0  0  0  0  0
   33.8828   -2.1059   29.4267 H   0  0  0  0  0  0
   33.2600   -0.5002   31.1937 H   0  0  0  0  0  0
   30.5745    1.4802   28.4856 H   0  0  0  0  0  0
   30.8831    2.0976   30.7046 H   0  0  0  0  0  0
  1  6  1  0  0  0
  1  2  2  0  0  0
  1 20  1  0  0  0
  2  3  1  0  0  0
  2 21  1  0  0  0
  3 10  1  0  0  0
  3  4  2  0  0  0
  4  5  1  0  0  0
  4  8  1  0  0  0
  5  6  2  0  0  0
  5 22  1  0  0  0
  6  7  1  0  0  0
  7 23  1  0  0  0
  8  9  1  0  0  0
  8 24  1  0  0  0
  8 25  1  0  0  0
  9 18  1  0  0  0
  9 10  1  0  0  0
  9 26  1  0  0  0
 10 11  2  0  0  0
 11 12  1  0  0  0
 12 17  2  0  0  0
 12 13  1  0  0  0
 13 14  2  0  0  0
 13 27  1  0  0  0
 14 15  1  0  0  0
 14 28  1  0  0  0
 15 16  2  0  0  0
 15 19  1  0  0  0
 16 17  1  0  0  0
 16 29  1  0  0  0
 17 18  1  0  0  0
 19 30  1  0  0  0
M  END
> <s_m_entry_id>
17503

> <s_m_entry_name>
ligand_docking-pose.430

> <s_m_Source_Path>
/home/csk/Desktop/cluster/DUD-E-result/esr1

> <s_m_Source_File>
ligand_docking-pose.sdf

> <i_m_Source_File_Index>
430

> <i_lp_mmshare_version>
53161

> <i_f3d_flags>
0

> <r_lp_tautomer_probability>
0.999601159137504

> <s_lp_Force_Field>
OPLS_2005

> <r_lp_Energy>
29.69609

> <b_lp_Chiralities_Consistent>
1

> <s_lp_Variant>
120896-1

> <s_i_glide_gridfile>
glide-grid_1sj0

> <i_i_glide_lignum>
9

> <i_i_glide_rotatable_bonds>
2

> <r_i_docking_score>
-8.12538902028818

> <r_i_glide_ligand_efficiency>
-0.427652053699378

> <r_i_glide_ligand_efficiency_sa>
-1.14114744405073

> <r_i_glide_ligand_efficiency_ln>
-2.05996063399751

> <r_i_glide_gscore>
-8.12538902028818

> <r_i_glide_lipo>
-3.21414093697094

> <r_i_glide_hbond>
-0.16

> <r_i_glide_metal>
0

> <r_i_glide_rewards>
-2.72420524140592

> <r_i_glide_evdw>
-26.4124660491943

> <r_i_glide_ecoul>
-4.70946359634399

> <r_i_glide_erotb>
0

> <r_i_glide_esite>
0

> <r_i_glide_emodel>
-44.1148677546938

> <r_i_glide_energy>
-31.1219296455383

> <r_i_glide_einternal>
4.20648908615112

> <i_i_glide_confnum>
1

> <i_i_glide_posenum>
2

> <r_i_glide_eff_state_penalty>
0

> <s_user_duplicate_titles>
120896

> <s_m_subgroup_title>
dock_pv

> <s_m_subgroupid>
dock_pv1

> <b_m_subgroup_collapsed>
0

$$$$
90991
                    3D
 Schrodinger Suite 2021-1.
 53 56  0  0  1  0            999 V2000
   30.6688   -3.1306   20.6929 C   0  0  0  0  0  0
   31.7151   -3.0385   21.7938 C   0  0  0  0  0  0
   31.4503   -2.2448   22.9082 C   0  0  0  0  0  0
   32.3348   -2.0892   23.9616 C   0  0  0  0  0  0
   33.5755   -2.7252   23.8566 C   0  0  0  0  0  0
   33.8840   -3.4875   22.7237 C   0  0  0  0  0  0
   32.9464   -3.6932   21.7138 C   0  0  0  0  0  0
   33.2600   -4.5397   20.6772 O   0  0  0  0  0  0
   31.8989   -1.2364   25.1032 C   0  0  0  0  0  0
   30.5705   -1.1730   25.5041 C   0  0  0  0  0  0
   30.1758   -0.3253   26.5301 C   0  0  0  0  0  0
   31.1187    0.5619   27.0609 C   0  0  0  0  0  0
   32.4384    0.4762   26.6073 C   0  0  0  0  0  0
   32.8179   -0.4493   25.6889 N   0  0  0  0  0  0
   33.4387    1.2803   27.1870 N   0  0  0  0  0  0
   33.9694    2.2697   26.2630 C   0  0  0  0  0  0
   34.4192    0.5149   27.9757 C   0  0  0  0  0  0
   33.6926    0.1221   29.2381 C   0  0  0  0  0  0
   33.6704    1.0578   30.2605 C   0  0  0  0  0  0
   32.6347    1.0535   31.1721 C   0  0  0  0  0  0
   31.6597    0.0748   31.0643 C   0  0  0  0  0  0
   31.7366   -0.9416   30.1232 C   0  0  0  0  0  0
   32.7954   -0.9492   29.2274 C   0  0  0  0  0  0
   28.7723   -0.3959   26.9732 C   0  0  0  0  0  0
   28.0556    0.7732   27.1977 C   0  0  0  0  0  0
   26.7012    0.6910   27.4640 C   0  0  0  0  0  0
   26.0591   -0.5414   27.5277 C   0  0  0  0  0  0
   26.7747   -1.7175   27.3580 C   0  0  0  0  0  0
   28.1334   -1.6415   27.0861 C   0  0  0  0  0  0
   30.3137   -4.1419   20.5840 H   0  0  0  0  0  0
   29.7788   -2.5418   20.9010 H   0  0  0  0  0  0
   31.0859   -2.8168   19.7360 H   0  0  0  0  0  0
   30.4998   -1.7431   22.9910 H   0  0  0  0  0  0
   34.2976   -2.6334   24.6501 H   0  0  0  0  0  0
   34.8497   -3.9424   22.6186 H   0  0  0  0  0  0
   32.4966   -4.9860   20.2737 H   0  0  0  0  0  0
   29.8117   -1.7421   25.0054 H   0  0  0  0  0  0
   30.8551    1.2579   27.8435 H   0  0  0  0  0  0
   33.2731    3.1062   26.2222 H   0  0  0  0  0  0
   34.9429    2.6379   26.5847 H   0  0  0  0  0  0
   34.0611    1.8766   25.2497 H   0  0  0  0  0  0
   35.3189    1.0954   28.1941 H   0  0  0  0  0  0
   34.7275   -0.3930   27.4680 H   0  0  0  0  0  0
   34.3922    1.8579   30.2713 H   0  0  0  0  0  0
   32.5666    1.8265   31.9205 H   0  0  0  0  0  0
   30.8601    0.0933   31.7747 H   0  0  0  0  0  0
   30.9700   -1.7017   30.0734 H   0  0  0  0  0  0
   32.8099   -1.6775   28.4285 H   0  0  0  0  0  0
   28.5277    1.7414   27.1137 H   0  0  0  0  0  0
   26.1406    1.5980   27.6140 H   0  0  0  0  0  0
   24.9976   -0.5780   27.7164 H   0  0  0  0  0  0
   26.2760   -2.6754   27.4065 H   0  0  0  0  0  0
   28.6826   -2.5587   26.9295 H   0  0  0  0  0  0
  1  2  1  0  0  0
  1 30  1  0  0  0
  1 31  1  0  0  0
  1 32  1  0  0  0
  2  7  1  0  0  0
  2  3  2  0  0  0
  3  4  1  0  0  0
  3 33  1  0  0  0
  4  5  2  0  0  0
  4  9  1  0  0  0
  5  6  1  0  0  0
  5 34  1  0  0  0
  6  7  2  0  0  0
  6 35  1  0  0  0
  7  8  1  0  0  0
  8 36  1  0  0  0
  9 14  1  0  0  0
  9 10  2  0  0  0
 10 11  1  0  0  0
 10 37  1  0  0  0
 11 12  2  0  0  0
 11 24  1  0  0  0
 12 13  1  0  0  0
 12 38  1  0  0  0
 13 14  2  0  0  0
 13 15  1  0  0  0
 15 16  1  0  0  0
 15 17  1  0  0  0
 16 39  1  0  0  0
 16 40  1  0  0  0
 16 41  1  0  0  0
 17 18  1  0  0  0
 17 42  1  0  0  0
 17 43  1  0  0  0
 18 23  1  0  0  0
 18 19  2  0  0  0
 19 20  1  0  0  0
 19 44  1  0  0  0
 20 21  2  0  0  0
 20 45  1  0  0  0
 21 22  1  0  0  0
 21 46  1  0  0  0
 22 23  2  0  0  0
 22 47  1  0  0  0
 23 48  1  0  0  0
 24 29  1  0  0  0
 24 25  2  0  0  0
 25 26  1  0  0  0
 25 49  1  0  0  0
 26 27  2  0  0  0
 26 50  1  0  0  0
 27 28  1  0  0  0
 27 51  1  0  0  0
 28 29  2  0  0  0
 28 52  1  0  0  0
 29 53  1  0  0  0
M  END
> <s_m_entry_id>
17504

> <s_m_entry_name>
ligand_docking-pose.431

> <s_m_Source_Path>
/home/csk/Desktop/cluster/DUD-E-result/esr1

> <s_m_Source_File>
ligand_docking-pose.sdf

> <i_m_Source_File_Index>
431

> <i_lp_mmshare_version>
53161

> <i_f3d_flags>
0

> <r_lp_tautomer_probability>
0.999999999997365

> <s_lp_Force_Field>
OPLS_2005

> <r_lp_Energy>
20.871871

> <b_lp_Chiralities_Consistent>
1

> <s_lp_Variant>
90991-1

> <s_i_glide_gridfile>
glide-grid_1sj0

> <i_i_glide_lignum>
1014

> <i_i_glide_rotatable_bonds>
6

> <r_i_docking_score>
-8.12272030295126

> <r_i_glide_ligand_efficiency>
-0.280093803550043

> <r_i_glide_ligand_efficiency_sa>
-0.860536904451251

> <r_i_glide_ligand_efficiency_ln>
-1.85989697496091

> <r_i_glide_gscore>
-8.12272030295126

> <r_i_glide_lipo>
-5.88493460029181

> <r_i_glide_hbond>
-0.16

> <r_i_glide_metal>
0

> <r_i_glide_rewards>
-0.800174271729162

> <r_i_glide_evdw>
-28.2068328857422

> <r_i_glide_ecoul>
-3.58232259750366

> <r_i_glide_erotb>
0.670078602982371

> <r_i_glide_esite>
0

> <r_i_glide_emodel>
-27.5767208944515

> <r_i_glide_energy>
-31.7891554832458

> <r_i_glide_einternal>
16.7670879364014

> <i_i_glide_confnum>
28

> <i_i_glide_posenum>
397

> <r_i_glide_eff_state_penalty>
0

> <s_user_duplicate_titles>
90991

> <s_m_subgroup_title>
dock_pv

> <s_m_subgroupid>
dock_pv1

> <b_m_subgroup_collapsed>
0

$$$$
350992
                    3D
 Schrodinger Suite 2021-1.
 30 32  0  0  1  0            999 V2000
   33.4815    0.6656   28.1894 C   0  0  0  0  0  0
   32.3035   -0.3399   28.3234 C   0  0  1  0  0  0
   31.5998   -0.1885   29.6968 C   0  0  0  0  0  0
   30.8437    1.1549   29.8131 C   0  0  0  0  0  0
   29.9273    1.4293   28.6043 C   0  0  0  0  0  0
   29.0192    2.2515   28.6657 O   0  0  0  0  0  0
   30.2165    0.7260   27.3552 C   0  0  0  0  0  0
   31.2765   -0.1062   27.2068 C   0  0  0  0  0  0
   31.7067   -0.9467   26.0682 C   0  0  0  0  0  0
   31.3446   -0.9421   24.7165 C   0  0  0  0  0  0
   31.8919   -1.8813   23.8456 C   0  0  0  0  0  0
   32.7383   -2.8723   24.3314 C   0  0  0  0  0  0
   33.0445   -2.9255   25.6904 C   0  0  0  0  0  0
   32.5854   -1.9216   26.5450 C   0  0  0  0  0  0
   32.7837   -1.7659   28.0308 C   0  0  0  0  0  0
   33.2677   -3.7845   23.4649 O   0  0  0  0  0  0
   28.8600    0.8899   25.9192 Br  0  0  0  0  0  0
   34.2384    0.4936   28.9560 H   0  0  0  0  0  0
   33.9803    0.5859   27.2229 H   0  0  0  0  0  0
   33.1541    1.7009   28.2860 H   0  0  0  0  0  0
   32.3260   -0.2792   30.5062 H   0  0  0  0  0  0
   30.8896   -1.0046   29.8469 H   0  0  0  0  0  0
   30.2660    1.2351   30.7339 H   0  0  0  0  0  0
   31.5732    1.9632   29.8261 H   0  0  0  0  0  0
   30.6757   -0.2036   24.3073 H   0  0  0  0  0  0
   31.6480   -1.8543   22.7937 H   0  0  0  0  0  0
   33.6581   -3.7258   26.0676 H   0  0  0  0  0  0
   33.8053   -1.9292   28.3661 H   0  0  0  0  0  0
   32.1751   -2.5025   28.5527 H   0  0  0  0  0  0
   33.7767   -4.4718   23.9017 H   0  0  0  0  0  0
  1  2  1  0  0  0
  1 18  1  0  0  0
  1 19  1  0  0  0
  1 20  1  0  0  0
  2  8  1  0  0  0
  2 15  1  0  0  0
  2  3  1  0  0  0
  3  4  1  0  0  0
  3 21  1  0  0  0
  3 22  1  0  0  0
  4  5  1  0  0  0
  4 23  1  0  0  0
  4 24  1  0  0  0
  5  6  2  0  0  0
  5  7  1  0  0  0
  7  8  2  0  0  0
  7 17  1  0  0  0
  8  9  1  0  0  0
  9 14  1  0  0  0
  9 10  2  0  0  0
 10 11  1  0  0  0
 10 25  1  0  0  0
 11 12  2  0  0  0
 11 26  1  0  0  0
 12 13  1  0  0  0
 12 16  1  0  0  0
 13 14  2  0  0  0
 13 27  1  0  0  0
 14 15  1  0  0  0
 15 28  1  0  0  0
 15 29  1  0  0  0
 16 30  1  0  0  0
M  END
> <s_m_entry_id>
17505

> <s_m_entry_name>
ligand_docking-pose.432

> <s_m_Source_Path>
/home/csk/Desktop/cluster/DUD-E-result/esr1

> <s_m_Source_File>
ligand_docking-pose.sdf

> <i_m_Source_File_Index>
432

> <i_lp_mmshare_version>
53161

> <i_f3d_flags>
0

> <r_lp_tautomer_probability>
1

> <s_lp_Force_Field>
OPLS_2005

> <r_lp_Energy>
19.548831

> <b_lp_Chiralities_Consistent>
1

> <s_lp_Variant>
350992-2

> <s_i_glide_gridfile>
glide-grid_1sj0

> <i_i_glide_lignum>
821

> <i_i_glide_rotatable_bonds>
1

> <r_i_docking_score>
-8.1202267519569

> <r_i_glide_ligand_efficiency>
-0.477660397173935

> <r_i_glide_ligand_efficiency_sa>
-1.22819938467992

> <r_i_glide_ligand_efficiency_ln>
-2.11838633102646

> <r_i_glide_gscore>
-8.1202267519569

> <r_i_glide_lipo>
-3.79932153071722

> <r_i_glide_hbond>
0

> <r_i_glide_metal>
0

> <r_i_glide_rewards>
-2.64355861915742

> <r_i_glide_evdw>
-32.5320930480957

> <r_i_glide_ecoul>
-0.338279664516449

> <r_i_glide_erotb>
0

> <r_i_glide_esite>
0

> <r_i_glide_emodel>
-48.7355958061658

> <r_i_glide_energy>
-32.8703727126122

> <r_i_glide_einternal>
0.00709009310230613

> <i_i_glide_confnum>
1

> <i_i_glide_posenum>
84

> <r_i_glide_eff_state_penalty>
0

> <s_user_duplicate_titles>
350992

> <s_m_subgroup_title>
dock_pv

> <s_m_subgroupid>
dock_pv1

> <b_m_subgroup_collapsed>
0

$$$$
322726
                    3D
 Schrodinger Suite 2021-1.
 30 32  0  0  1  0            999 V2000
   29.8212    0.1052   27.1764 C   0  0  0  0  0  0
   30.2649   -0.6522   26.0977 C   0  0  0  0  0  0
   31.5800   -1.1316   26.0280 C   0  0  0  0  0  0
   32.4508   -0.8532   27.0843 C   0  0  0  0  0  0
   32.0278   -0.1181   28.2109 C   0  0  0  0  0  0
   30.6916    0.3788   28.2536 C   0  0  0  0  0  0
   30.2684    1.1222   29.3795 C   0  0  0  0  0  0
   31.1390    1.3244   30.4443 C   0  0  0  0  0  0
   32.4337    0.8332   30.4054 C   0  0  0  0  0  0
   32.8927    0.1232   29.3031 C   0  0  0  0  0  0
   33.2592    1.0582   31.4639 O   0  0  0  0  0  0
   32.0416   -1.9461   24.8662 C   0  0  0  0  0  0
   31.5121   -1.7326   23.5916 C   0  0  0  0  0  0
   31.8751   -2.5421   22.5127 C   0  0  0  0  0  0
   32.8095   -3.5482   22.6946 C   0  0  0  0  0  0
   33.3758   -3.7420   23.9459 C   0  0  0  0  0  0
   32.9908   -2.9581   25.0264 C   0  0  0  0  0  0
   33.1594   -4.3717   21.6599 O   0  0  0  0  0  0
   28.8038    0.4673   27.2079 H   0  0  0  0  0  0
   29.5580   -0.8740   25.3114 H   0  0  0  0  0  0
   33.4683   -1.2132   27.0694 H   0  0  0  0  0  0
   29.2603    1.5084   29.4203 H   0  0  0  0  0  0
   30.8088    1.8577   31.3203 H   0  0  0  0  0  0
   33.9038   -0.2560   29.2761 H   0  0  0  0  0  0
   34.0931    0.5947   31.3607 H   0  0  0  0  0  0
   30.7838   -0.9476   23.4638 H   0  0  0  0  0  0
   31.4336   -2.4001   21.5384 H   0  0  0  0  0  0
   34.0625   -4.5448   24.0955 H   0  0  0  0  0  0
   33.4129   -3.1773   25.9963 H   0  0  0  0  0  0
   32.4791   -4.4803   20.9852 H   0  0  0  0  0  0
  1  6  1  0  0  0
  1  2  2  0  0  0
  1 19  1  0  0  0
  2  3  1  0  0  0
  2 20  1  0  0  0
  3  4  2  0  0  0
  3 12  1  0  0  0
  4  5  1  0  0  0
  4 21  1  0  0  0
  5 10  2  0  0  0
  5  6  1  0  0  0
  6  7  2  0  0  0
  7  8  1  0  0  0
  7 22  1  0  0  0
  8  9  2  0  0  0
  8 23  1  0  0  0
  9 10  1  0  0  0
  9 11  1  0  0  0
 10 24  1  0  0  0
 11 25  1  0  0  0
 12 17  1  0  0  0
 12 13  2  0  0  0
 13 14  1  0  0  0
 13 26  1  0  0  0
 14 15  2  0  0  0
 14 27  1  0  0  0
 15 16  1  0  0  0
 15 18  1  0  0  0
 16 17  2  0  0  0
 16 28  1  0  0  0
 17 29  1  0  0  0
 18 30  1  0  0  0
M  END
> <s_m_entry_id>
17506

> <s_m_entry_name>
ligand_docking-pose.433

> <s_m_Source_Path>
/home/csk/Desktop/cluster/DUD-E-result/esr1

> <s_m_Source_File>
ligand_docking-pose.sdf

> <i_m_Source_File_Index>
433

> <i_lp_mmshare_version>
53161

> <i_f3d_flags>
0

> <r_lp_tautomer_probability>
0.999999999997365

> <s_lp_Force_Field>
OPLS_2005

> <r_lp_Energy>
15.473015

> <b_lp_Chiralities_Consistent>
1

> <s_lp_Variant>
322726-1

> <s_i_glide_gridfile>
glide-grid_1sj0

> <i_i_glide_lignum>
143

> <i_i_glide_rotatable_bonds>
3

> <r_i_docking_score>
-8.12022652638574

> <r_i_glide_ligand_efficiency>
-0.451123695910319

> <r_i_glide_ligand_efficiency_sa>
-1.18227854264161

> <r_i_glide_ligand_efficiency_ln>
-2.08726235735811

> <r_i_glide_gscore>
-8.12022652638574

> <r_i_glide_lipo>
-4.25660056007225

> <r_i_glide_hbond>
0

> <r_i_glide_metal>
0

> <r_i_glide_rewards>
-2.5076768573356

> <r_i_glide_evdw>
-28.2552070617676

> <r_i_glide_ecoul>
-1.67711532115936

> <r_i_glide_erotb>
0.308378542284384

> <r_i_glide_esite>
0

> <r_i_glide_emodel>
-44.361692748056

> <r_i_glide_energy>
-29.9323223829269

> <r_i_glide_einternal>
1.12183046340942

> <i_i_glide_confnum>
3

> <i_i_glide_posenum>
31

> <r_i_glide_eff_state_penalty>
0

> <s_user_duplicate_titles>
322726

> <s_m_subgroup_title>
dock_pv

> <s_m_subgroupid>
dock_pv1

> <b_m_subgroup_collapsed>
0

$$$$
319426
                    3D
 Schrodinger Suite 2021-1.
 32 34  0  0  1  0            999 V2000
   27.9260   -1.1543   26.3628 C   0  0  0  0  0  0
   29.2107   -0.2358   25.4640 S   0  0  0  0  0  0
   30.5868   -0.3944   26.5516 C   0  0  0  0  0  0
   31.7499   -1.0639   26.3845 C   0  0  0  0  0  0
   32.5509   -0.8977   27.6049 C   0  0  0  0  0  0
   33.6600   -1.3420   27.8399 O   0  0  0  0  0  0
   31.7456   -0.1008   28.5039 C   0  0  0  0  0  0
   30.5782    0.2378   27.8564 C   0  0  0  0  0  0
   29.6425    1.0473   28.4868 C   0  0  0  0  0  0
   29.8881    1.4580   29.7898 C   0  0  0  0  0  0
   31.0542    1.0790   30.4626 C   0  0  0  0  0  0
   32.0086    0.3085   29.8085 C   0  0  0  0  0  0
   31.2600    1.4580   31.7586 O   0  0  0  0  0  0
   32.1925   -1.8339   25.1751 C   0  0  0  0  0  0
   31.7313   -1.5168   23.8860 C   0  0  0  0  0  0
   32.0604   -2.3069   22.7866 C   0  0  0  0  0  0
   32.9215   -3.3780   22.9414 C   0  0  0  0  0  0
   33.4238   -3.6846   24.1942 C   0  0  0  0  0  0
   33.0417   -2.9420   25.3068 C   0  0  0  0  0  0
   33.2699   -4.1433   21.8640 O   0  0  0  0  0  0
   27.0405   -1.2877   25.7416 H   0  0  0  0  0  0
   28.2928   -2.1420   26.6435 H   0  0  0  0  0  0
   27.6278   -0.6281   27.2684 H   0  0  0  0  0  0
   28.7270    1.3432   27.9962 H   0  0  0  0  0  0
   29.1342    2.0521   30.2640 H   0  0  0  0  0  0
   32.9229    0.0231   30.3099 H   0  0  0  0  0  0
   32.1072    1.1697   32.1031 H   0  0  0  0  0  0
   31.1053   -0.6588   23.7105 H   0  0  0  0  0  0
   31.6600   -2.0951   21.8089 H   0  0  0  0  0  0
   34.0600   -4.5420   24.3021 H   0  0  0  0  0  0
   33.4045   -3.2554   26.2731 H   0  0  0  0  0  0
   32.6682   -4.0751   21.1171 H   0  0  0  0  0  0
  1  2  1  0  0  0
  1 21  1  0  0  0
  1 22  1  0  0  0
  1 23  1  0  0  0
  2  3  1  0  0  0
  3  8  1  0  0  0
  3  4  2  0  0  0
  4  5  1  0  0  0
  4 14  1  0  0  0
  5  6  2  0  0  0
  5  7  1  0  0  0
  7 12  2  0  0  0
  7  8  1  0  0  0
  8  9  2  0  0  0
  9 10  1  0  0  0
  9 24  1  0  0  0
 10 11  2  0  0  0
 10 25  1  0  0  0
 11 12  1  0  0  0
 11 13  1  0  0  0
 12 26  1  0  0  0
 13 27  1  0  0  0
 14 19  1  0  0  0
 14 15  2  0  0  0
 15 16  1  0  0  0
 15 28  1  0  0  0
 16 17  2  0  0  0
 16 29  1  0  0  0
 17 18  1  0  0  0
 17 20  1  0  0  0
 18 19  2  0  0  0
 18 30  1  0  0  0
 19 31  1  0  0  0
 20 32  1  0  0  0
M  END
> <s_m_entry_id>
17507

> <s_m_entry_name>
ligand_docking-pose.434

> <s_m_Source_Path>
/home/csk/Desktop/cluster/DUD-E-result/esr1

> <s_m_Source_File>
ligand_docking-pose.sdf

> <i_m_Source_File_Index>
434

> <i_lp_mmshare_version>
53161

> <i_f3d_flags>
0

> <r_lp_tautomer_probability>
1

> <s_lp_Force_Field>
OPLS_2005

> <r_lp_Energy>
26.856692

> <b_lp_Chiralities_Consistent>
1

> <s_lp_Variant>
319426-1

> <s_i_glide_gridfile>
glide-grid_1sj0

> <i_i_glide_lignum>
1807

> <i_i_glide_rotatable_bonds>
4

> <r_i_docking_score>
-8.1153647365272

> <r_i_glide_ligand_efficiency>
-0.40576823682636

> <r_i_glide_ligand_efficiency_sa>
-1.10142444919627

> <r_i_glide_ligand_efficiency_ln>
-2.03100813090989

> <r_i_glide_gscore>
-8.1153647365272

> <r_i_glide_lipo>
-4.21681570401075

> <r_i_glide_hbond>
0

> <r_i_glide_metal>
0

> <r_i_glide_rewards>
-2.63648651478874

> <r_i_glide_evdw>
-27.0044536590576

> <r_i_glide_ecoul>
-0.906938076019287

> <r_i_glide_erotb>
0.224200876628057

> <r_i_glide_esite>
0

> <r_i_glide_emodel>
-39.4168747889774

> <r_i_glide_energy>
-27.9113917350769

> <r_i_glide_einternal>
3.00468707084656

> <i_i_glide_confnum>
1

> <i_i_glide_posenum>
52

> <r_i_glide_eff_state_penalty>
0

> <s_user_duplicate_titles>
319426

> <s_m_subgroup_title>
dock_pv

> <s_m_subgroupid>
dock_pv1

> <b_m_subgroup_collapsed>
0

$$$$
343216
                    3D
 Schrodinger Suite 2021-1.
 42 44  0  0  1  0            999 V2000
   26.8369   -2.2309   27.6285 C   0  0  0  0  0  0
   27.4436   -1.4632   26.4467 C   0  0  0  0  0  0
   28.2764   -0.2478   26.8935 C   0  0  0  0  0  0
   29.2600    0.3075   25.8316 C   0  0  0  0  0  0
   30.4290   -0.6354   25.4669 C   0  0  0  0  0  0
   30.4600   -1.0901   24.2640 N   0  0  0  0  0  0
   31.4594   -1.9855   23.8491 C   0  0  0  0  0  0
   31.4088   -2.5420   22.5648 C   0  0  0  0  0  0
   32.4099   -3.3560   22.0866 C   0  0  0  0  0  0
   33.4225   -3.7420   22.9398 C   0  0  0  0  0  0
   33.4282   -3.2705   24.2467 C   0  0  0  0  0  0
   32.4696   -2.3707   24.7087 C   0  0  0  0  0  0
   32.4422   -1.8553   26.1390 C   0  0  0  0  0  0
   33.2534   -2.2114   26.9993 O   0  0  0  0  0  0
   31.4159   -0.9610   26.3974 N   0  0  0  0  0  0
   31.4622   -0.3351   27.6759 C   0  0  0  0  0  0
   31.7721    1.0267   27.7764 C   0  0  0  0  0  0
   31.8458    1.6303   29.0270 C   0  0  0  0  0  0
   31.6600    0.8721   30.1799 C   0  0  0  0  0  0
   31.3750   -0.4851   30.0903 C   0  0  0  0  0  0
   31.2536   -1.0876   28.8428 C   0  0  0  0  0  0
   31.7587    1.4580   31.4125 O   0  0  0  0  0  0
   34.3762   -3.7420   25.0640 O   0  0  0  0  0  0
   32.3874   -3.7420   20.7789 O   0  0  0  0  0  0
   26.2279   -3.0657   27.2830 H   0  0  0  0  0  0
   27.6195   -2.6446   28.2640 H   0  0  0  0  0  0
   26.2029   -1.5876   28.2394 H   0  0  0  0  0  0
   26.6443   -1.1432   25.7787 H   0  0  0  0  0  0
   28.0600   -2.1420   25.8640 H   0  0  0  0  0  0
   28.8146   -0.4969   27.8062 H   0  0  0  0  0  0
   27.5922    0.5492   27.1894 H   0  0  0  0  0  0
   29.6547    1.2579   26.1860 H   0  0  0  0  0  0
   28.6907    0.5725   24.9409 H   0  0  0  0  0  0
   30.5795   -2.3750   21.9096 H   0  0  0  0  0  0
   34.1914   -4.4082   22.5791 H   0  0  0  0  0  0
   31.9573    1.6156   26.8899 H   0  0  0  0  0  0
   32.0600    2.6832   29.0890 H   0  0  0  0  0  0
   31.2408   -1.0671   30.9897 H   0  0  0  0  0  0
   31.0271   -2.1420   28.7827 H   0  0  0  0  0  0
   32.0059    2.3829   31.3636 H   0  0  0  0  0  0
   34.5839   -4.6652   24.8682 H   0  0  0  0  0  0
   32.0332   -4.6356   20.6397 H   0  0  0  0  0  0
  1  2  1  0  0  0
  1 25  1  0  0  0
  1 26  1  0  0  0
  1 27  1  0  0  0
  2  3  1  0  0  0
  2 28  1  0  0  0
  2 29  1  0  0  0
  3  4  1  0  0  0
  3 30  1  0  0  0
  3 31  1  0  0  0
  4  5  1  0  0  0
  4 32  1  0  0  0
  4 33  1  0  0  0
  5 15  1  0  0  0
  5  6  2  0  0  0
  6  7  1  0  0  0
  7 12  2  0  0  0
  7  8  1  0  0  0
  8  9  2  0  0  0
  8 34  1  0  0  0
  9 10  1  0  0  0
  9 24  1  0  0  0
 10 11  2  0  0  0
 10 35  1  0  0  0
 11 12  1  0  0  0
 11 23  1  0  0  0
 12 13  1  0  0  0
 13 14  2  0  0  0
 13 15  1  0  0  0
 15 16  1  0  0  0
 16 21  1  0  0  0
 16 17  2  0  0  0
 17 18  1  0  0  0
 17 36  1  0  0  0
 18 19  2  0  0  0
 18 37  1  0  0  0
 19 20  1  0  0  0
 19 22  1  0  0  0
 20 21  2  0  0  0
 20 38  1  0  0  0
 21 39  1  0  0  0
 22 40  1  0  0  0
 23 41  1  0  0  0
 24 42  1  0  0  0
M  END
> <s_m_entry_id>
17508

> <s_m_entry_name>
ligand_docking-pose.435

> <s_m_Source_Path>
/home/csk/Desktop/cluster/DUD-E-result/esr1

> <s_m_Source_File>
ligand_docking-pose.sdf

> <i_m_Source_File_Index>
435

> <i_lp_mmshare_version>
53161

> <i_f3d_flags>
0

> <r_lp_tautomer_probability>
1

> <s_lp_Force_Field>
OPLS_2005

> <r_lp_Energy>
45.435129

> <b_lp_Chiralities_Consistent>
1

> <s_lp_Variant>
343216-1

> <s_i_glide_gridfile>
glide-grid_1sj0

> <i_i_glide_lignum>
1410

> <i_i_glide_rotatable_bonds>
7

> <r_i_docking_score>
-8.11260730606116

> <r_i_glide_ligand_efficiency>
-0.338025304419215

> <r_i_glide_ligand_efficiency_sa>
-0.975033699070384

> <r_i_glide_ligand_efficiency_ln>
-1.94171919163271

> <r_i_glide_gscore>
-8.11260730606116

> <r_i_glide_lipo>
-3.69983354774309

> <r_i_glide_hbond>
-0.152125356428511

> <r_i_glide_metal>
0

> <r_i_glide_rewards>
-2.6474411178874

> <r_i_glide_evdw>
-21.6255626678467

> <r_i_glide_ecoul>
-7.06791067123413

> <r_i_glide_erotb>
0.528257450075296

> <r_i_glide_esite>
0

> <r_i_glide_emodel>
-32.3584315026142

> <r_i_glide_energy>
-28.6934733390808

> <r_i_glide_einternal>
14.1946210861206

> <i_i_glide_confnum>
14

> <i_i_glide_posenum>
11

> <r_i_glide_eff_state_penalty>
0

> <s_user_duplicate_titles>
343216

> <s_m_subgroup_title>
dock_pv

> <s_m_subgroupid>
dock_pv1

> <b_m_subgroup_collapsed>
0

$$$$
394995
                    3D
 Schrodinger Suite 2021-1.
 34 36  0  0  1  0            999 V2000
   29.3637   -0.8448   25.7018 C   0  0  0  0  0  0
   30.4020   -0.3557   26.7047 C   0  0  0  0  0  0
   30.1936    0.4825   27.7884 C   0  0  0  0  0  0
   31.4182    0.5164   28.5194 C   0  0  0  0  0  0
   31.7964    1.1233   29.7308 C   0  0  0  0  0  0
   33.0997    0.9727   30.1904 C   0  0  0  0  0  0
   34.0272    0.2391   29.4640 C   0  0  0  0  0  0
   33.6927   -0.3840   28.2640 C   0  0  0  0  0  0
   32.3786   -0.2446   27.7872 C   0  0  0  0  0  0
   31.7397   -0.7195   26.6368 N   0  0  0  0  0  0
   32.2879   -1.5198   25.5993 C   0  0  0  0  0  0
   33.1516   -2.5748   25.8916 C   0  0  0  0  0  0
   33.6600   -3.3478   24.8537 C   0  0  0  0  0  0
   33.2642   -3.1264   23.5408 C   0  0  0  0  0  0
   32.4116   -2.0767   23.2407 C   0  0  0  0  0  0
   31.9647   -1.2467   24.2613 C   0  0  0  0  0  0
   33.7158   -3.9457   22.5439 O   0  0  0  0  0  0
   28.9473    1.1190   28.1561 C   0  0  0  0  0  0
   28.0515    1.2789   27.2798 N   0  0  0  0  0  0
   26.8600    1.6328   27.8640 O   0  0  0  0  0  0
   28.4206   -1.0993   26.1854 H   0  0  0  0  0  0
   29.1438   -0.0790   24.9587 H   0  0  0  0  0  0
   29.6492   -1.7420   25.1689 H   0  0  0  0  0  0
   31.0876    1.7033   30.3024 H   0  0  0  0  0  0
   33.3999    1.4383   31.1185 H   0  0  0  0  0  0
   35.0360    0.1452   29.8421 H   0  0  0  0  0  0
   34.4433   -0.9420   27.7369 H   0  0  0  0  0  0
   33.4217   -2.8110   26.9098 H   0  0  0  0  0  0
   34.3523   -4.1420   25.0640 H   0  0  0  0  0  0
   32.1052   -1.8925   22.2239 H   0  0  0  0  0  0
   31.3299   -0.4136   24.0037 H   0  0  0  0  0  0
   33.1959   -3.9000   21.7371 H   0  0  0  0  0  0
   28.8600    1.3710   29.2108 H   0  0  0  0  0  0
   26.2567    1.6794   27.1132 H   0  0  0  0  0  0
  1  2  1  0  0  0
  1 21  1  0  0  0
  1 22  1  0  0  0
  1 23  1  0  0  0
  2 10  1  0  0  0
  2  3  2  0  0  0
  3  4  1  0  0  0
  3 18  1  0  0  0
  4  9  2  0  0  0
  4  5  1  0  0  0
  5  6  2  0  0  0
  5 24  1  0  0  0
  6  7  1  0  0  0
  6 25  1  0  0  0
  7  8  2  0  0  0
  7 26  1  0  0  0
  8  9  1  0  0  0
  8 27  1  0  0  0
  9 10  1  0  0  0
 10 11  1  0  0  0
 11 16  1  0  0  0
 11 12  2  0  0  0
 12 13  1  0  0  0
 12 28  1  0  0  0
 13 14  2  0  0  0
 13 29  1  0  0  0
 14 15  1  0  0  0
 14 17  1  0  0  0
 15 16  2  0  0  0
 15 30  1  0  0  0
 16 31  1  0  0  0
 17 32  1  0  0  0
 18 19  2  0  0  0
 18 33  1  0  0  0
 19 20  1  0  0  0
 20 34  1  0  0  0
M  END
> <s_m_entry_id>
17509

> <s_m_entry_name>
ligand_docking-pose.436

> <s_m_Source_Path>
/home/csk/Desktop/cluster/DUD-E-result/esr1

> <s_m_Source_File>
ligand_docking-pose.sdf

> <i_m_Source_File_Index>
436

> <i_lp_mmshare_version>
53161

> <i_f3d_flags>
0

> <r_lp_tautomer_probability>
1

> <s_lp_Force_Field>
OPLS_2005

> <r_lp_Energy>
16.840563

> <b_lp_Chiralities_Consistent>
1

> <s_lp_Variant>
394995-1

> <s_i_glide_gridfile>
glide-grid_1sj0

> <i_i_glide_lignum>
913

> <i_i_glide_rotatable_bonds>
4

> <r_i_docking_score>
-8.11064593406656

> <r_i_glide_ligand_efficiency>
-0.405532296703328

> <r_i_glide_ligand_efficiency_sa>
-1.10078400917049

> <r_i_glide_ligand_efficiency_ln>
-2.02982717029051

> <r_i_glide_gscore>
-8.11064593406656

> <r_i_glide_lipo>
-3.91071075953706

> <r_i_glide_hbond>
-0.308689308833169

> <r_i_glide_metal>
0

> <r_i_glide_rewards>
-2.8155769967286

> <r_i_glide_evdw>
-30.6209144592285

> <r_i_glide_ecoul>
-1.98761856555939

> <r_i_glide_erotb>
0.753519638827595

> <r_i_glide_esite>
0

> <r_i_glide_emodel>
-44.1022183674634

> <r_i_glide_energy>
-32.6085330247879

> <r_i_glide_einternal>
5.37609624862671

> <i_i_glide_confnum>
7

> <i_i_glide_posenum>
70

> <r_i_glide_eff_state_penalty>
0

> <s_user_duplicate_titles>
394995

> <s_m_subgroup_title>
dock_pv

> <s_m_subgroupid>
dock_pv1

> <b_m_subgroup_collapsed>
0

$$$$
308659
                    3D
 Schrodinger Suite 2021-1.
 31 33  0  0  1  0            999 V2000
   31.5570   -1.7077   23.4975 C   0  0  0  0  0  0
   31.7783   -2.5484   22.4009 C   0  0  0  0  0  0
   32.6944   -3.5856   22.4988 C   0  0  0  0  0  0
   33.4073   -3.7588   23.6737 C   0  0  0  0  0  0
   33.1842   -2.9459   24.7731 C   0  0  0  0  0  0
   32.2420   -1.9231   24.6950 C   0  0  0  0  0  0
   31.9677   -1.1304   25.9233 C   0  0  0  0  0  0
   32.6919   -0.9883   27.0968 C   0  0  0  0  0  0
   31.9167   -0.1747   27.9640 C   0  0  0  0  0  0
   30.7476    0.1331   27.2331 C   0  0  0  0  0  0
   30.7884   -0.4396   25.9918 O   0  0  0  0  0  0
   29.7053    0.9153   27.7554 C   0  0  0  0  0  0
   29.8776    1.3711   29.0681 C   0  0  0  0  0  0
   31.0182    1.0581   29.8166 C   0  0  0  0  0  0
   32.0620    0.3169   29.2645 C   0  0  0  0  0  0
   33.6570   -0.0356   30.2438 Br  0  0  0  0  0  0
   31.1119    1.4580   31.1218 O   0  0  0  0  0  0
   28.4288    1.2391   26.9993 C   0  0  0  0  0  0
   27.3776    0.2428   27.2622 C   0  0  0  0  0  0
   26.5505   -0.5386   27.4714 N   0  0  0  0  0  0
   32.8931   -4.4624   21.4641 O   0  0  0  0  0  0
   30.8179   -0.9212   23.4633 H   0  0  0  0  0  0
   31.2410   -2.4253   21.4753 H   0  0  0  0  0  0
   34.0601   -4.6039   23.7638 H   0  0  0  0  0  0
   33.7111   -3.1516   25.6923 H   0  0  0  0  0  0
   33.6502   -1.4335   27.3108 H   0  0  0  0  0  0
   29.0919    1.9556   29.5240 H   0  0  0  0  0  0
   30.3895    2.0254   31.3983 H   0  0  0  0  0  0
   28.0459    2.2148   27.2992 H   0  0  0  0  0  0
   28.6191    1.2746   25.9260 H   0  0  0  0  0  0
   32.1170   -4.7084   20.9383 H   0  0  0  0  0  0
  1  6  1  0  0  0
  1  2  2  0  0  0
  1 22  1  0  0  0
  2  3  1  0  0  0
  2 23  1  0  0  0
  3  4  2  0  0  0
  3 21  1  0  0  0
  4  5  1  0  0  0
  4 24  1  0  0  0
  5  6  2  0  0  0
  5 25  1  0  0  0
  6  7  1  0  0  0
  7 11  1  0  0  0
  7  8  2  0  0  0
  8  9  1  0  0  0
  8 26  1  0  0  0
  9 15  2  0  0  0
  9 10  1  0  0  0
 10 11  1  0  0  0
 10 12  2  0  0  0
 12 13  1  0  0  0
 12 18  1  0  0  0
 13 14  2  0  0  0
 13 27  1  0  0  0
 14 15  1  0  0  0
 14 17  1  0  0  0
 15 16  1  0  0  0
 17 28  1  0  0  0
 18 19  1  0  0  0
 18 29  1  0  0  0
 18 30  1  0  0  0
 19 20  3  0  0  0
 21 31  1  0  0  0
M  END
> <s_m_entry_id>
17510

> <s_m_entry_name>
ligand_docking-pose.437

> <s_m_Source_Path>
/home/csk/Desktop/cluster/DUD-E-result/esr1

> <s_m_Source_File>
ligand_docking-pose.sdf

> <i_m_Source_File_Index>
437

> <i_lp_mmshare_version>
53161

> <i_f3d_flags>
0

> <r_lp_tautomer_probability>
0.999999999997365

> <s_lp_Force_Field>
OPLS_2005

> <r_lp_Energy>
8.734426

> <b_lp_Chiralities_Consistent>
1

> <s_lp_Variant>
308659-1

> <s_i_glide_gridfile>
glide-grid_1sj0

> <i_i_glide_lignum>
288

> <i_i_glide_rotatable_bonds>
4

> <r_i_docking_score>
-8.1044530597961

> <r_i_glide_ligand_efficiency>
-0.385926336180767

> <r_i_glide_ligand_efficiency_sa>
-1.06474149811076

> <r_i_glide_ligand_efficiency_ln>
-2.00380964244519

> <r_i_glide_gscore>
-8.1044530597961

> <r_i_glide_lipo>
-4.15996901809194

> <r_i_glide_hbond>
-0.144956771619757

> <r_i_glide_metal>
0

> <r_i_glide_rewards>
-2.30926086466364

> <r_i_glide_evdw>
-33.372688293457

> <r_i_glide_ecoul>
-0.947887718677521

> <r_i_glide_erotb>
0.320551167053712

> <r_i_glide_esite>
0

> <r_i_glide_emodel>
-48.8560570206033

> <r_i_glide_energy>
-34.3205760121346

> <r_i_glide_einternal>
3.88087773323059

> <i_i_glide_confnum>
6

> <i_i_glide_posenum>
155

> <r_i_glide_eff_state_penalty>
0

> <s_user_duplicate_titles>
308659

> <s_m_subgroup_title>
dock_pv

> <s_m_subgroupid>
dock_pv1

> <b_m_subgroup_collapsed>
0

$$$$
322732
                    3D
 Schrodinger Suite 2021-1.
 36 38  0  0  1  0            999 V2000
   27.9574    1.4903   27.2037 C   0  0  0  0  0  0
   29.3655    1.2749   26.6083 C   0  0  0  0  0  0
   30.3852    0.6623   27.5784 C   0  0  0  0  0  0
   30.4246    1.1281   28.8970 C   0  0  0  0  0  0
   31.2606    0.5574   29.8439 C   0  0  0  0  0  0
   32.0525   -0.5317   29.5140 C   0  0  0  0  0  0
   32.0716   -1.0233   28.1876 C   0  0  0  0  0  0
   31.2911   -0.3848   27.1722 C   0  0  0  0  0  0
   31.4788   -0.8300   25.8214 C   0  0  0  0  0  0
   32.3343   -1.9006   25.4950 C   0  0  0  0  0  0
   32.9581   -2.5755   26.5402 C   0  0  0  0  0  0
   32.8598   -2.1421   27.8552 C   0  0  0  0  0  0
   32.5621   -2.3514   24.0793 C   0  0  0  0  0  0
   31.5504   -2.2237   23.1331 C   0  0  0  0  0  0
   31.6597   -2.7891   21.8623 C   0  0  0  0  0  0
   32.8625   -3.3220   21.4334 C   0  0  0  0  0  0
   33.9415   -3.3413   22.3118 C   0  0  0  0  0  0
   33.7692   -2.9294   23.6407 C   0  0  0  0  0  0
   35.1514   -3.7417   21.8640 F   0  0  0  0  0  0
   32.9654   -3.8127   20.1582 O   0  0  0  0  0  0
   31.2791    1.0576   31.1172 O   0  0  0  0  0  0
   27.2637    1.8559   26.4460 H   0  0  0  0  0  0
   27.9552    2.2304   28.0047 H   0  0  0  0  0  0
   27.5477    0.5601   27.5994 H   0  0  0  0  0  0
   29.2343    0.6449   25.7307 H   0  0  0  0  0  0
   29.7466    2.2334   26.2641 H   0  0  0  0  0  0
   29.7928    1.9476   29.2052 H   0  0  0  0  0  0
   32.6755   -1.0008   30.2619 H   0  0  0  0  0  0
   30.9718   -0.3088   25.0268 H   0  0  0  0  0  0
   33.5752   -3.4363   26.3301 H   0  0  0  0  0  0
   33.4112   -2.6531   28.6319 H   0  0  0  0  0  0
   30.6213   -1.7421   23.4041 H   0  0  0  0  0  0
   30.8206   -2.7483   21.1828 H   0  0  0  0  0  0
   34.6019   -3.0150   24.3175 H   0  0  0  0  0  0
   32.2472   -4.4219   19.9345 H   0  0  0  0  0  0
   31.9217    0.6182   31.6765 H   0  0  0  0  0  0
  1  2  1  0  0  0
  1 22  1  0  0  0
  1 23  1  0  0  0
  1 24  1  0  0  0
  2  3  1  0  0  0
  2 25  1  0  0  0
  2 26  1  0  0  0
  3  8  1  0  0  0
  3  4  2  0  0  0
  4  5  1  0  0  0
  4 27  1  0  0  0
  5  6  2  0  0  0
  5 21  1  0  0  0
  6  7  1  0  0  0
  6 28  1  0  0  0
  7 12  2  0  0  0
  7  8  1  0  0  0
  8  9  2  0  0  0
  9 10  1  0  0  0
  9 29  1  0  0  0
 10 11  2  0  0  0
 10 13  1  0  0  0
 11 12  1  0  0  0
 11 30  1  0  0  0
 12 31  1  0  0  0
 13 18  1  0  0  0
 13 14  2  0  0  0
 14 15  1  0  0  0
 14 32  1  0  0  0
 15 16  2  0  0  0
 15 33  1  0  0  0
 16 17  1  0  0  0
 16 20  1  0  0  0
 17 18  2  0  0  0
 17 19  1  0  0  0
 18 34  1  0  0  0
 20 35  1  0  0  0
 21 36  1  0  0  0
M  END
> <s_m_entry_id>
17511

> <s_m_entry_name>
ligand_docking-pose.438

> <s_m_Source_Path>
/home/csk/Desktop/cluster/DUD-E-result/esr1

> <s_m_Source_File>
ligand_docking-pose.sdf

> <i_m_Source_File_Index>
438

> <i_lp_mmshare_version>
53161

> <i_f3d_flags>
0

> <r_lp_tautomer_probability>
0.999999999997365

> <s_lp_Force_Field>
OPLS_2005

> <r_lp_Energy>
18.247948

> <b_lp_Chiralities_Consistent>
1

> <s_lp_Variant>
322732-1

> <s_i_glide_gridfile>
glide-grid_1sj0

> <i_i_glide_lignum>
1145

> <i_i_glide_rotatable_bonds>
4

> <r_i_docking_score>
-8.10436503338033

> <r_i_glide_ligand_efficiency>
-0.385922144446682

> <r_i_glide_ligand_efficiency_sa>
-1.06472993343427

> <r_i_glide_ligand_efficiency_ln>
-2.00378787809176

> <r_i_glide_gscore>
-8.10436503338033

> <r_i_glide_lipo>
-4.18606158294796

> <r_i_glide_hbond>
-0.133426298657852

> <r_i_glide_metal>
0

> <r_i_glide_rewards>
-2.25205837352843

> <r_i_glide_evdw>
-30.482421875

> <r_i_glide_ecoul>
-1.55730080604553

> <r_i_glide_erotb>
0.227000648647725

> <r_i_glide_esite>
-0.00210321223697817

> <r_i_glide_emodel>
-40.8506975339883

> <r_i_glide_energy>
-32.0397226810455

> <r_i_glide_einternal>
5.7744312286377

> <i_i_glide_confnum>
1

> <i_i_glide_posenum>
163

> <r_i_glide_eff_state_penalty>
0

> <s_user_duplicate_titles>
322732

> <s_m_subgroup_title>
dock_pv

> <s_m_subgroupid>
dock_pv1

> <b_m_subgroup_collapsed>
0

$$$$
323015
                    3D
 Schrodinger Suite 2021-1.
 30 32  0  0  1  0            999 V2000
   30.8048   -1.1169   24.1950 C   0  0  0  0  0  0
   30.8939   -0.5439   25.4606 C   0  0  0  0  0  0
   31.8482   -0.9716   26.3872 C   0  0  0  0  0  0
   32.7267   -1.9940   26.0125 C   0  0  0  0  0  0
   32.7060   -2.5415   24.7095 C   0  0  0  0  0  0
   31.7048   -2.1273   23.7874 C   0  0  0  0  0  0
   31.6601   -2.7371   22.4984 C   0  0  0  0  0  0
   32.6526   -3.6224   22.1038 C   0  0  0  0  0  0
   33.6601   -3.9588   22.9852 C   0  0  0  0  0  0
   33.6754   -3.4685   24.2856 C   0  0  0  0  0  0
   32.6779   -4.1420   20.8389 O   0  0  0  0  0  0
   31.9762   -0.3220   27.7261 C   0  0  0  0  0  0
   33.2527   -0.1030   28.2690 C   0  0  0  0  0  0
   33.4172    0.4907   29.5156 C   0  0  0  0  0  0
   32.3002    0.8932   30.2359 C   0  0  0  0  0  0
   31.0260    0.7177   29.7111 C   0  0  0  0  0  0
   30.8588    0.0975   28.4736 C   0  0  0  0  0  0
   29.5979   -0.0997   28.0224 F   0  0  0  0  0  0
   32.4558    1.4579   31.4640 O   0  0  0  0  0  0
   30.0599   -0.7697   23.4982 H   0  0  0  0  0  0
   30.2126    0.2566   25.7087 H   0  0  0  0  0  0
   33.4804   -2.3447   26.7021 H   0  0  0  0  0  0
   30.8613   -2.5281   21.8061 H   0  0  0  0  0  0
   34.4592   -4.6028   22.6463 H   0  0  0  0  0  0
   34.4603   -3.7645   24.9653 H   0  0  0  0  0  0
   31.9764   -4.7846   20.6318 H   0  0  0  0  0  0
   34.1392   -0.3941   27.7283 H   0  0  0  0  0  0
   34.4127    0.6322   29.9102 H   0  0  0  0  0  0
   30.1658    1.0542   30.2710 H   0  0  0  0  0  0
   33.3798    1.5387   31.7072 H   0  0  0  0  0  0
  1  6  1  0  0  0
  1  2  2  0  0  0
  1 20  1  0  0  0
  2  3  1  0  0  0
  2 21  1  0  0  0
  3  4  2  0  0  0
  3 12  1  0  0  0
  4  5  1  0  0  0
  4 22  1  0  0  0
  5 10  2  0  0  0
  5  6  1  0  0  0
  6  7  2  0  0  0
  7  8  1  0  0  0
  7 23  1  0  0  0
  8  9  2  0  0  0
  8 11  1  0  0  0
  9 10  1  0  0  0
  9 24  1  0  0  0
 10 25  1  0  0  0
 11 26  1  0  0  0
 12 17  1  0  0  0
 12 13  2  0  0  0
 13 14  1  0  0  0
 13 27  1  0  0  0
 14 15  2  0  0  0
 14 28  1  0  0  0
 15 16  1  0  0  0
 15 19  1  0  0  0
 16 17  2  0  0  0
 16 29  1  0  0  0
 17 18  1  0  0  0
 19 30  1  0  0  0
M  END
> <s_m_entry_id>
17512

> <s_m_entry_name>
ligand_docking-pose.439

> <s_m_Source_Path>
/home/csk/Desktop/cluster/DUD-E-result/esr1

> <s_m_Source_File>
ligand_docking-pose.sdf

> <i_m_Source_File_Index>
439

> <i_lp_mmshare_version>
53161

> <i_f3d_flags>
0

> <r_lp_tautomer_probability>
0.999999999997365

> <s_lp_Force_Field>
OPLS_2005

> <r_lp_Energy>
17.508874

> <b_lp_Chiralities_Consistent>
1

> <s_lp_Variant>
323015-1

> <s_i_glide_gridfile>
glide-grid_1sj0

> <i_i_glide_lignum>
139

> <i_i_glide_rotatable_bonds>
3

> <r_i_docking_score>
-8.09900035911808

> <r_i_glide_ligand_efficiency>
-0.426263176795688

> <r_i_glide_ligand_efficiency_sa>
-1.13744136263469

> <r_i_glide_ligand_efficiency_ln>
-2.05327054161441

> <r_i_glide_gscore>
-8.09900035911808

> <r_i_glide_lipo>
-3.79878909654505

> <r_i_glide_hbond>
-0.16

> <r_i_glide_metal>
0

> <r_i_glide_rewards>
-2.58186381536412

> <r_i_glide_evdw>
-26.6546421051025

> <r_i_glide_ecoul>
-3.31747531890869

> <r_i_glide_erotb>
0.272005955882521

> <r_i_glide_esite>
0

> <r_i_glide_emodel>
-41.5496427075097

> <r_i_glide_energy>
-29.9721174240112

> <r_i_glide_einternal>
5.03165435791016

> <i_i_glide_confnum>
3

> <i_i_glide_posenum>
72

> <r_i_glide_eff_state_penalty>
0

> <s_user_duplicate_titles>
323015

> <s_m_subgroup_title>
dock_pv

> <s_m_subgroupid>
dock_pv1

> <b_m_subgroup_collapsed>
0

$$$$
313432
                    3D
 Schrodinger Suite 2021-1.
 30 32  0  0  1  0            999 V2000
   28.2058    1.0479   26.8658 C   0  0  0  0  0  0
   28.8616    1.3965   27.9821 C   0  0  0  0  0  0
   30.1763    0.9095   28.4385 C   0  0  0  0  0  0
   30.6251    1.2585   29.7170 C   0  0  0  0  0  0
   31.8579    0.8409   30.2221 C   0  0  0  0  0  0
   32.6977    0.0111   29.4842 C   0  0  0  0  0  0
   32.2718   -0.3767   28.2082 C   0  0  0  0  0  0
   31.0425    0.0798   27.7006 C   0  0  0  0  0  0
   30.9096   -0.4352   26.4421 O   0  0  0  0  0  0
   32.0493   -1.1743   26.2647 C   0  0  0  0  0  0
   32.8716   -1.1836   27.2937 N   0  0  0  0  0  0
   32.2412   -1.9467   24.9947 C   0  0  0  0  0  0
   33.2229   -2.9420   24.9889 C   0  0  0  0  0  0
   33.4109   -3.7422   23.8721 C   0  0  0  0  0  0
   32.6342   -3.5933   22.7395 C   0  0  0  0  0  0
   31.6602   -2.6015   22.7183 C   0  0  0  0  0  0
   31.4665   -1.7665   23.8373 C   0  0  0  0  0  0
   30.4799   -0.8400   23.8197 F   0  0  0  0  0  0
   30.8366   -2.5420   21.6477 F   0  0  0  0  0  0
   32.8347   -4.4518   21.6864 O   0  0  0  0  0  0
   32.2526    1.2513   31.4633 O   0  0  0  0  0  0
   27.2378    1.4811   26.6633 H   0  0  0  0  0  0
   28.5986    0.3405   26.1506 H   0  0  0  0  0  0
   28.3787    2.1163   28.6275 H   0  0  0  0  0  0
   29.9857    1.8582   30.3422 H   0  0  0  0  0  0
   33.6438   -0.3206   29.8854 H   0  0  0  0  0  0
   33.8226   -3.1309   25.8656 H   0  0  0  0  0  0
   34.0886   -4.5666   23.9128 H   0  0  0  0  0  0
   32.0516   -4.6959   21.1748 H   0  0  0  0  0  0
   31.6272    1.8537   31.8701 H   0  0  0  0  0  0
  1  2  2  0  0  0
  1 22  1  0  0  0
  1 23  1  0  0  0
  2  3  1  0  0  0
  2 24  1  0  0  0
  3  8  1  0  0  0
  3  4  2  0  0  0
  4  5  1  0  0  0
  4 25  1  0  0  0
  5  6  2  0  0  0
  5 21  1  0  0  0
  6  7  1  0  0  0
  6 26  1  0  0  0
  7 11  1  0  0  0
  7  8  2  0  0  0
  8  9  1  0  0  0
  9 10  1  0  0  0
 10 11  2  0  0  0
 10 12  1  0  0  0
 12 17  1  0  0  0
 12 13  2  0  0  0
 13 14  1  0  0  0
 13 27  1  0  0  0
 14 15  2  0  0  0
 14 28  1  0  0  0
 15 16  1  0  0  0
 15 20  1  0  0  0
 16 17  2  0  0  0
 16 19  1  0  0  0
 17 18  1  0  0  0
 20 29  1  0  0  0
 21 30  1  0  0  0
M  END
> <s_m_entry_id>
17513

> <s_m_entry_name>
ligand_docking-pose.440

> <s_m_Source_Path>
/home/csk/Desktop/cluster/DUD-E-result/esr1

> <s_m_Source_File>
ligand_docking-pose.sdf

> <i_m_Source_File_Index>
440

> <i_lp_mmshare_version>
53161

> <i_f3d_flags>
0

> <r_lp_tautomer_probability>
0.999999999997365

> <s_lp_Force_Field>
OPLS_2005

> <r_lp_Energy>
14.785955

> <b_lp_Chiralities_Consistent>
1

> <s_lp_Variant>
313432-1

> <s_i_glide_gridfile>
glide-grid_1sj0

> <i_i_glide_lignum>
1153

> <i_i_glide_rotatable_bonds>
4

> <r_i_docking_score>
-8.0966678394257

> <r_i_glide_ligand_efficiency>
-0.385555611401224

> <r_i_glide_ligand_efficiency_sa>
-1.06371869655474

> <r_i_glide_ligand_efficiency_ln>
-2.00188476244012

> <r_i_glide_gscore>
-8.0966678394257

> <r_i_glide_lipo>
-4.10375299529872

> <r_i_glide_hbond>
-0.102674622716844

> <r_i_glide_metal>
0

> <r_i_glide_rewards>
-2.33340277774517

> <r_i_glide_evdw>
-31.5750713348389

> <r_i_glide_ecoul>
-2.74015736579895

> <r_i_glide_erotb>
0.435248057067509

> <r_i_glide_esite>
-0.0023083291206843

> <r_i_glide_emodel>
-48.2304581463203

> <r_i_glide_energy>
-34.3152287006378

> <r_i_glide_einternal>
4.76403427124023

> <i_i_glide_confnum>
6

> <i_i_glide_posenum>
133

> <r_i_glide_eff_state_penalty>
0

> <s_user_duplicate_titles>
313432

> <s_m_subgroup_title>
dock_pv

> <s_m_subgroupid>
dock_pv1

> <b_m_subgroup_collapsed>
0

$$$$
410175
                    3D
 Schrodinger Suite 2021-1.
 56 59  0  0  1  0            999 V2000
   32.3550   -4.6758   22.5226 C   0  0  0  0  0  0
   32.1921   -3.1855   22.8089 C   0  0  2  0  0  0
   33.4045   -2.4058   22.2597 C   0  0  0  0  0  0
   33.6456   -2.6008   20.7334 C   0  0  0  0  0  0
   35.0046   -2.1826   20.1842 C   0  0  0  0  0  0
   35.0838   -1.5643   18.9332 C   0  0  0  0  0  0
   36.3271   -1.3433   18.3422 C   0  0  0  0  0  0
   37.4878   -1.7406   19.0016 C   0  0  0  0  0  0
   37.4207   -2.3162   20.2668 C   0  0  0  0  0  0
   36.1785   -2.5418   20.8526 C   0  0  0  0  0  0
   38.7055   -1.5556   18.4033 O   0  0  0  0  0  0
   32.0629   -3.0305   24.2577 N   0  0  0  0  0  0
   31.5512   -1.9750   24.8989 C   0  0  0  0  0  0
   31.2285   -0.9410   24.3163 O   0  0  0  0  0  0
   31.3233   -2.1705   26.4083 C   0  0  0  0  0  0
   30.5007   -1.0561   27.0309 C   0  0  0  0  0  0
   29.0605   -0.9474   27.0692 C   0  0  0  0  0  0
   27.9849   -1.7826   26.7069 C   0  0  0  0  0  0
   26.6817   -1.3419   26.8997 C   0  0  0  0  0  0
   26.4266   -0.0643   27.3713 C   0  0  0  0  0  0
   27.4490    0.8295   27.6781 C   0  0  0  0  0  0
   28.7554    0.3514   27.5738 C   0  0  0  0  0  0
   29.9511    0.9423   27.8963 N   0  0  0  0  0  0
   30.9965    0.0988   27.6190 C   0  0  0  0  0  0
   32.3998    0.5147   27.8547 C   0  0  0  0  0  0
   33.2881   -0.2522   28.6129 C   0  0  0  0  0  0
   34.6010    0.1858   28.7805 C   0  0  0  0  0  0
   35.0123    1.3728   28.1749 C   0  0  0  0  0  0
   34.1318    2.1331   27.4172 C   0  0  0  0  0  0
   32.8264    1.6975   27.2609 C   0  0  0  0  0  0
   31.2759   -2.8365   22.3240 H   0  0  0  0  0  0
   30.0976    1.8591   28.2913 H   0  0  0  0  0  0
   32.2571   -4.9302   21.4700 H   0  0  0  0  0  0
   33.3581   -4.9411   22.8318 H   0  0  0  0  0  0
   31.6600   -5.3073   23.0634 H   0  0  0  0  0  0
   33.2600   -1.3550   22.5035 H   0  0  0  0  0  0
   34.2802   -2.7084   22.8308 H   0  0  0  0  0  0
   33.5993   -3.6546   20.4671 H   0  0  0  0  0  0
   32.8354   -2.1417   20.1687 H   0  0  0  0  0  0
   34.1844   -1.2971   18.3959 H   0  0  0  0  0  0
   36.3903   -0.8853   17.3656 H   0  0  0  0  0  0
   38.3214   -2.6159   20.7831 H   0  0  0  0  0  0
   36.1362   -3.0486   21.8034 H   0  0  0  0  0  0
   39.4380   -1.8409   18.9528 H   0  0  0  0  0  0
   32.2981   -3.8410   24.8094 H   0  0  0  0  0  0
   32.3052   -2.2426   26.8746 H   0  0  0  0  0  0
   30.8412   -3.1344   26.5777 H   0  0  0  0  0  0
   28.1256   -2.7672   26.2952 H   0  0  0  0  0  0
   25.8546   -1.9930   26.6598 H   0  0  0  0  0  0
   25.3994    0.2531   27.4637 H   0  0  0  0  0  0
   27.2272    1.8253   28.0337 H   0  0  0  0  0  0
   32.9628   -1.1738   29.0732 H   0  0  0  0  0  0
   35.3003   -0.3980   29.3604 H   0  0  0  0  0  0
   36.0300    1.7154   28.2700 H   0  0  0  0  0  0
   34.4590    3.0438   26.9424 H   0  0  0  0  0  0
   32.1383    2.2578   26.6581 H   0  0  0  0  0  0
  1  2  1  0  0  0
  1 33  1  0  0  0
  1 34  1  0  0  0
  1 35  1  0  0  0
  2 31  1  0  0  0
  2  3  1  0  0  0
  2 12  1  0  0  0
  3  4  1  0  0  0
  3 36  1  0  0  0
  3 37  1  0  0  0
  4  5  1  0  0  0
  4 38  1  0  0  0
  4 39  1  0  0  0
  5 10  1  0  0  0
  5  6  2  0  0  0
  6  7  1  0  0  0
  6 40  1  0  0  0
  7  8  2  0  0  0
  7 41  1  0  0  0
  8  9  1  0  0  0
  8 11  1  0  0  0
  9 10  2  0  0  0
  9 42  1  0  0  0
 10 43  1  0  0  0
 11 44  1  0  0  0
 12 13  1  0  0  0
 12 45  1  0  0  0
 13 14  2  0  0  0
 13 15  1  0  0  0
 15 16  1  0  0  0
 15 46  1  0  0  0
 15 47  1  0  0  0
 16 24  2  0  0  0
 16 17  1  0  0  0
 17 22  2  0  0  0
 17 18  1  0  0  0
 18 19  2  0  0  0
 18 48  1  0  0  0
 19 20  1  0  0  0
 19 49  1  0  0  0
 20 21  2  0  0  0
 20 50  1  0  0  0
 21 22  1  0  0  0
 21 51  1  0  0  0
 22 23  1  0  0  0
 23 32  1  0  0  0
 23 24  1  0  0  0
 24 25  1  0  0  0
 25 30  1  0  0  0
 25 26  2  0  0  0
 26 27  1  0  0  0
 26 52  1  0  0  0
 27 28  2  0  0  0
 27 53  1  0  0  0
 28 29  1  0  0  0
 28 54  1  0  0  0
 29 30  2  0  0  0
 29 55  1  0  0  0
 30 56  1  0  0  0
M  END
> <s_m_entry_id>
17514

> <s_m_entry_name>
ligand_docking-pose.441

> <s_m_Source_Path>
/home/csk/Desktop/cluster/DUD-E-result/esr1

> <s_m_Source_File>
ligand_docking-pose.sdf

> <i_m_Source_File_Index>
441

> <i_lp_mmshare_version>
53161

> <i_f3d_flags>
0

> <r_lp_tautomer_probability>
0.999999999997365

> <s_lp_Force_Field>
OPLS_2005

> <r_lp_Energy>
15.443127

> <b_lp_Chiralities_Consistent>
1

> <s_lp_Variant>
410175-1

> <s_i_glide_gridfile>
glide-grid_1sj0

> <i_i_glide_lignum>
1588

> <i_i_glide_rotatable_bonds>
9

> <r_i_docking_score>
-8.09602954281502

> <r_i_glide_ligand_efficiency>
-0.269867651427167

> <r_i_glide_ligand_efficiency_sa>
-0.838541537869238

> <r_i_glide_ligand_efficiency_ln>
-1.83950612543477

> <r_i_glide_gscore>
-8.09602954281502

> <r_i_glide_lipo>
-4.78664475025539

> <r_i_glide_hbond>
0

> <r_i_glide_metal>
0

> <r_i_glide_rewards>
-1.98723975881452

> <r_i_glide_evdw>
-41.1695404052734

> <r_i_glide_ecoul>
-1.66887247562408

> <r_i_glide_erotb>
0.986662857862175

> <r_i_glide_esite>
0

> <r_i_glide_emodel>
-58.0359713180321

> <r_i_glide_energy>
-42.8384128808975

> <r_i_glide_einternal>
4.76669549942017

> <i_i_glide_confnum>
45

> <i_i_glide_posenum>
41

> <r_i_glide_eff_state_penalty>
0

> <s_user_duplicate_titles>
410175,410170

> <s_m_subgroup_title>
dock_pv

> <s_m_subgroupid>
dock_pv1

> <b_m_subgroup_collapsed>
0

$$$$
174220
                    3D
 Schrodinger Suite 2021-1.
 56 58  0  0  1  0            999 V2000
   34.8609    1.9465   27.8640 C   0  0  0  0  0  0
   34.8599    1.4575   29.1695 C   0  0  0  0  0  0
   33.6676    1.0577   29.7600 C   0  0  0  0  0  0
   32.4786    1.1378   29.0377 C   0  0  0  0  0  0
   32.4799    1.6378   27.7319 C   0  0  0  0  0  0
   33.6732    2.0433   27.1421 C   0  0  0  0  0  0
   31.2142    0.5316   29.6255 C   0  0  0  0  0  0
   31.2840   -1.0103   29.5997 C   0  0  0  0  0  0
   31.8196   -1.5673   28.2912 C   0  0  0  0  0  0
   31.1076   -1.8625   27.1817 C   0  0  0  0  0  0
   29.6387   -1.6982   27.1713 C   0  0  0  0  0  0
   29.0600   -0.4570   26.8880 C   0  0  0  0  0  0
   27.6741   -0.3233   26.8717 C   0  0  0  0  0  0
   26.8717   -1.4428   27.0667 C   0  0  0  0  0  0
   27.4353   -2.6757   27.3793 C   0  0  0  0  0  0
   28.8189   -2.7917   27.4638 C   0  0  0  0  0  0
   25.5201   -1.3419   26.9031 O   0  0  0  0  0  0
   31.7914   -2.3604   25.9514 C   0  0  0  0  0  0
   32.9351   -3.1588   26.0713 C   0  0  0  0  0  0
   33.6594   -3.5544   24.9511 C   0  0  0  0  0  0
   33.2243   -3.2263   23.6795 C   0  0  0  0  0  0
   32.0704   -2.4685   23.5265 C   0  0  0  0  0  0
   31.3791   -2.0023   24.6560 C   0  0  0  0  0  0
   31.6605   -2.1423   22.2636 O   0  0  0  0  0  0
   31.0546   -3.1847   21.4900 C   0  0  0  0  0  0
   31.5180   -3.1472   20.0300 C   0  0  0  0  0  0
   32.9567   -3.6608   19.8084 C   0  0  0  0  0  0
   33.2408   -3.9464   18.3324 C   0  0  0  0  0  0
   34.0604   -3.3170   17.6679 O   0  0  0  0  0  0
   32.4607   -4.9625   17.8640 O   0  0  0  0  0  0
   35.7929    2.2539   27.4081 H   0  0  0  0  0  0
   35.7699    1.3903   29.7409 H   0  0  0  0  0  0
   33.6705    0.6533   30.7618 H   0  0  0  0  0  0
   31.5671    1.6772   27.1576 H   0  0  0  0  0  0
   33.6818    2.4145   26.1277 H   0  0  0  0  0  0
   31.0645    0.8991   30.6431 H   0  0  0  0  0  0
   30.3493    0.8792   29.0597 H   0  0  0  0  0  0
   31.9589   -1.3419   30.3852 H   0  0  0  0  0  0
   30.3246   -1.4665   29.8230 H   0  0  0  0  0  0
   32.8930   -1.6912   28.2827 H   0  0  0  0  0  0
   29.6791    0.4031   26.6791 H   0  0  0  0  0  0
   27.2237    0.6355   26.6637 H   0  0  0  0  0  0
   26.8076   -3.5400   27.5395 H   0  0  0  0  0  0
   29.2589   -3.7419   27.7100 H   0  0  0  0  0  0
   25.1623   -2.1323   26.4667 H   0  0  0  0  0  0
   33.2866   -3.4713   27.0429 H   0  0  0  0  0  0
   34.5555   -4.1387   25.0639 H   0  0  0  0  0  0
   33.7787   -3.5559   22.8138 H   0  0  0  0  0  0
   30.5098   -1.3781   24.5122 H   0  0  0  0  0  0
   31.2078   -4.1827   21.9062 H   0  0  0  0  0  0
   29.9789   -3.0139   21.4639 H   0  0  0  0  0  0
   30.8064   -3.7421   19.4569 H   0  0  0  0  0  0
   31.4175   -2.1412   19.6294 H   0  0  0  0  0  0
   33.6770   -2.9359   20.1887 H   0  0  0  0  0  0
   33.1278   -4.5860   20.3619 H   0  0  0  0  0  0
   31.9319   -5.3721   18.5703 H   0  0  0  0  0  0
  1  6  1  0  0  0
  1  2  2  0  0  0
  1 31  1  0  0  0
  2  3  1  0  0  0
  2 32  1  0  0  0
  3  4  2  0  0  0
  3 33  1  0  0  0
  4  5  1  0  0  0
  4  7  1  0  0  0
  5  6  2  0  0  0
  5 34  1  0  0  0
  6 35  1  0  0  0
  7  8  1  0  0  0
  7 36  1  0  0  0
  7 37  1  0  0  0
  8  9  1  0  0  0
  8 38  1  0  0  0
  8 39  1  0  0  0
  9 10  2  0  0  0
  9 40  1  0  0  0
 10 11  1  0  0  0
 10 18  1  0  0  0
 11 16  1  0  0  0
 11 12  2  0  0  0
 12 13  1  0  0  0
 12 41  1  0  0  0
 13 14  2  0  0  0
 13 42  1  0  0  0
 14 15  1  0  0  0
 14 17  1  0  0  0
 15 16  2  0  0  0
 15 43  1  0  0  0
 16 44  1  0  0  0
 17 45  1  0  0  0
 18 23  1  0  0  0
 18 19  2  0  0  0
 19 20  1  0  0  0
 19 46  1  0  0  0
 20 21  2  0  0  0
 20 47  1  0  0  0
 21 22  1  0  0  0
 21 48  1  0  0  0
 22 23  2  0  0  0
 22 24  1  0  0  0
 23 49  1  0  0  0
 24 25  1  0  0  0
 25 26  1  0  0  0
 25 50  1  0  0  0
 25 51  1  0  0  0
 26 27  1  0  0  0
 26 52  1  0  0  0
 26 53  1  0  0  0
 27 28  1  0  0  0
 27 54  1  0  0  0
 27 55  1  0  0  0
 28 29  2  0  0  0
 28 30  1  0  0  0
 30 56  1  0  0  0
M  END
> <s_m_entry_id>
17516

> <s_m_entry_name>
ligand_docking-pose.443

> <s_m_Source_Path>
/home/csk/Desktop/cluster/DUD-E-result/esr1

> <s_m_Source_File>
ligand_docking-pose.sdf

> <i_m_Source_File_Index>
443

> <i_lp_mmshare_version>
53161

> <i_f3d_flags>
0

> <r_lp_tautomer_probability>
1

> <s_lp_Force_Field>
OPLS_2005

> <r_lp_Energy>
23.805887

> <b_lp_Chiralities_Consistent>
1

> <s_lp_Variant>
174220-1

> <s_i_glide_gridfile>
glide-grid_1sj0

> <i_i_glide_lignum>
426

> <i_i_glide_rotatable_bonds>
12

> <r_i_docking_score>
-8.0915652146534

> <r_i_glide_ligand_efficiency>
-0.269718840488447

> <r_i_glide_ligand_efficiency_sa>
-0.838079147683728

> <r_i_glide_ligand_efficiency_ln>
-1.8384917814337

> <r_i_glide_gscore>
-8.0915652146534

> <r_i_glide_lipo>
-5.28024268194959

> <r_i_glide_hbond>
-0.152

> <r_i_glide_metal>
0

> <r_i_glide_rewards>
0.355610308041975

> <r_i_glide_evdw>
-41.0876197814941

> <r_i_glide_ecoul>
-11.1941270828247

> <r_i_glide_erotb>
0.763201466178663

> <r_i_glide_esite>
-0.0446342554260324

> <r_i_glide_emodel>
-64.2566020672665

> <r_i_glide_energy>
-52.2817468643188

> <r_i_glide_einternal>
16.4559574127197

> <i_i_glide_confnum>
46

> <i_i_glide_posenum>
323

> <r_i_glide_eff_state_penalty>
0

> <s_user_duplicate_titles>
174220

> <s_m_subgroup_title>
dock_pv

> <s_m_subgroupid>
dock_pv1

> <b_m_subgroup_collapsed>
0

$$$$
313426
                    3D
 Schrodinger Suite 2021-1.
 32 35  0  0  1  0            999 V2000
   29.0927    0.7611   26.9734 C   0  0  0  0  0  0
   29.6342    1.0025   28.2276 C   0  0  0  0  0  0
   30.8389    0.3695   28.6349 C   0  0  0  0  0  0
   31.4927   -0.5283   27.7218 C   0  0  0  0  0  0
   32.6709   -1.1893   28.1964 C   0  0  0  0  0  0
   33.1970   -0.9420   29.4558 C   0  0  0  0  0  0
   32.5780   -0.0483   30.3078 C   0  0  0  0  0  0
   31.4152    0.6013   29.9244 C   0  0  0  0  0  0
   30.8600    1.4580   30.8341 O   0  0  0  0  0  0
   30.9400   -0.7141   26.3939 C   0  0  0  0  0  0
   29.7353   -0.0786   26.0762 C   0  0  0  0  0  0
   31.5933   -1.5074   25.2855 C   0  0  0  0  0  0
   32.8002   -2.0141   25.3198 N   0  0  0  0  0  0
   32.9619   -2.5830   24.1048 C   0  0  0  0  0  0
   34.0600   -3.2527   23.5945 C   0  0  0  0  0  0
   33.9969   -3.7420   22.2898 C   0  0  0  0  0  0
   32.8421   -3.6049   21.5251 C   0  0  0  0  0  0
   31.7109   -2.9420   22.0238 C   0  0  0  0  0  0
   31.8213   -2.4145   23.3252 C   0  0  0  0  0  0
   30.9385   -1.6922   24.0858 O   0  0  0  0  0  0
   32.8600   -4.1420   20.2705 O   0  0  0  0  0  0
   28.1712    1.2453   26.6831 H   0  0  0  0  0  0
   29.1189    1.6745   28.8972 H   0  0  0  0  0  0
   33.1970   -1.9170   27.6081 H   0  0  0  0  0  0
   34.0924   -1.4551   29.7768 H   0  0  0  0  0  0
   33.0026    0.1341   31.2845 H   0  0  0  0  0  0
   30.0740    1.9002   30.5118 H   0  0  0  0  0  0
   29.2901   -0.2069   25.0995 H   0  0  0  0  0  0
   34.9385   -3.3420   24.2064 H   0  0  0  0  0  0
   34.8484   -4.2552   21.8640 H   0  0  0  0  0  0
   30.8156   -2.8330   21.4321 H   0  0  0  0  0  0
   32.1385   -4.7794   20.1224 H   0  0  0  0  0  0
  1 11  1  0  0  0
  1  2  2  0  0  0
  1 22  1  0  0  0
  2  3  1  0  0  0
  2 23  1  0  0  0
  3  8  2  0  0  0
  3  4  1  0  0  0
  4  5  2  0  0  0
  4 10  1  0  0  0
  5  6  1  0  0  0
  5 24  1  0  0  0
  6  7  2  0  0  0
  6 25  1  0  0  0
  7  8  1  0  0  0
  7 26  1  0  0  0
  8  9  1  0  0  0
  9 27  1  0  0  0
 10 11  2  0  0  0
 10 12  1  0  0  0
 11 28  1  0  0  0
 12 20  1  0  0  0
 12 13  2  0  0  0
 13 14  1  0  0  0
 14 19  2  0  0  0
 14 15  1  0  0  0
 15 16  2  0  0  0
 15 29  1  0  0  0
 16 17  1  0  0  0
 16 30  1  0  0  0
 17 18  2  0  0  0
 17 21  1  0  0  0
 18 19  1  0  0  0
 18 31  1  0  0  0
 19 20  1  0  0  0
 21 32  1  0  0  0
M  END
> <s_m_entry_id>
17517

> <s_m_entry_name>
ligand_docking-pose.444

> <s_m_Source_Path>
/home/csk/Desktop/cluster/DUD-E-result/esr1

> <s_m_Source_File>
ligand_docking-pose.sdf

> <i_m_Source_File_Index>
444

> <i_lp_mmshare_version>
53161

> <i_f3d_flags>
0

> <r_lp_tautomer_probability>
1

> <s_lp_Force_Field>
OPLS_2005

> <r_lp_Energy>
22.305636

> <b_lp_Chiralities_Consistent>
1

> <s_lp_Variant>
313426-1

> <s_i_glide_gridfile>
glide-grid_1sj0

> <i_i_glide_lignum>
53

> <i_i_glide_rotatable_bonds>
3

> <r_i_docking_score>
-8.09027517553644

> <r_i_glide_ligand_efficiency>
-0.385251198835069

> <r_i_glide_ligand_efficiency_sa>
-1.06287884536723

> <r_i_glide_ligand_efficiency_ln>
-2.0003041892111

> <r_i_glide_gscore>
-8.09027517553644

> <r_i_glide_lipo>
-3.80821306615201

> <r_i_glide_hbond>
-0.16

> <r_i_glide_metal>
0

> <r_i_glide_rewards>
-2.16624975617009

> <r_i_glide_evdw>
-31.3354015350342

> <r_i_glide_ecoul>
-4.15499448776245

> <r_i_glide_erotb>
0.234206896701733

> <r_i_glide_esite>
0

> <r_i_glide_emodel>
-48.8676594497291

> <r_i_glide_energy>
-35.4903960227966

> <r_i_glide_einternal>
3.85752773284912

> <i_i_glide_confnum>
4

> <i_i_glide_posenum>
305

> <r_i_glide_eff_state_penalty>
0

> <s_user_duplicate_titles>
313426

> <s_m_subgroup_title>
dock_pv

> <s_m_subgroupid>
dock_pv1

> <b_m_subgroup_collapsed>
0

$$$$
566298
                    3D
 Schrodinger Suite 2021-1.
 35 36  0  0  1  0            999 V2000
   33.6676    1.5500   26.8000 C   0  0  0  0  0  0
   32.9860    0.5836   27.7839 C   0  0  0  0  0  0
   31.7186   -0.1001   27.2093 C   0  0  2  0  0  0
   30.8045   -0.6750   28.3217 C   0  0  0  0  0  0
   29.3634   -0.8783   27.8698 C   0  0  0  0  0  0
   28.9099   -2.1383   27.4672 C   0  0  0  0  0  0
   27.5852   -2.3005   27.0641 C   0  0  0  0  0  0
   26.7249   -1.2029   27.0641 C   0  0  0  0  0  0
   27.1730    0.0514   27.4640 C   0  0  0  0  0  0
   28.4943    0.2156   27.8640 C   0  0  0  0  0  0
   25.4261   -1.3420   26.6641 O   0  0  0  0  0  0
   32.0599   -1.1448   26.1388 C   0  0  0  0  0  0
   32.7748   -2.3078   26.4557 C   0  0  0  0  0  0
   33.1016   -3.1964   25.4288 C   0  0  0  0  0  0
   32.7072   -2.9104   24.1218 C   0  0  0  0  0  0
   31.9832   -1.7420   23.8862 C   0  0  0  0  0  0
   31.6562   -0.8651   24.8694 N   0  0  0  0  0  0
   33.0309   -3.7625   23.1013 O   0  0  0  0  0  0
   34.5891    1.9550   27.2209 H   0  0  0  0  0  0
   33.9246    1.0580   25.8644 H   0  0  0  0  0  0
   33.0197    2.3920   26.5576 H   0  0  0  0  0  0
   32.7251    1.1567   28.6748 H   0  0  0  0  0  0
   33.7036   -0.1673   28.1180 H   0  0  0  0  0  0
   31.1461    0.7006   26.7341 H   0  0  0  0  0  0
   31.2098   -1.6011   28.7315 H   0  0  0  0  0  0
   30.7791    0.0058   29.1749 H   0  0  0  0  0  0
   29.5799   -2.9869   27.4592 H   0  0  0  0  0  0
   27.2315   -3.2715   26.7458 H   0  0  0  0  0  0
   26.4986    0.8957   27.4579 H   0  0  0  0  0  0
   28.8407    1.1920   28.1702 H   0  0  0  0  0  0
   25.2234   -2.2148   26.2688 H   0  0  0  0  0  0
   33.0883   -2.5106   27.4693 H   0  0  0  0  0  0
   33.6597   -4.0965   25.6398 H   0  0  0  0  0  0
   31.6602   -1.4838   22.8910 H   0  0  0  0  0  0
   32.6450   -3.5365   22.2513 H   0  0  0  0  0  0
  1  2  1  0  0  0
  1 19  1  0  0  0
  1 20  1  0  0  0
  1 21  1  0  0  0
  2  3  1  0  0  0
  2 22  1  0  0  0
  2 23  1  0  0  0
  3  4  1  0  0  0
  3 12  1  0  0  0
  3 24  1  0  0  0
  4  5  1  0  0  0
  4 25  1  0  0  0
  4 26  1  0  0  0
  5 10  1  0  0  0
  5  6  2  0  0  0
  6  7  1  0  0  0
  6 27  1  0  0  0
  7  8  2  0  0  0
  7 28  1  0  0  0
  8  9  1  0  0  0
  8 11  1  0  0  0
  9 10  2  0  0  0
  9 29  1  0  0  0
 10 30  1  0  0  0
 11 31  1  0  0  0
 12 17  1  0  0  0
 12 13  2  0  0  0
 13 14  1  0  0  0
 13 32  1  0  0  0
 14 15  2  0  0  0
 14 33  1  0  0  0
 15 16  1  0  0  0
 15 18  1  0  0  0
 16 17  2  0  0  0
 16 34  1  0  0  0
 18 35  1  0  0  0
M  END
> <s_m_entry_id>
17518

> <s_m_entry_name>
ligand_docking-pose.445

> <s_m_Source_Path>
/home/csk/Desktop/cluster/DUD-E-result/esr1

> <s_m_Source_File>
ligand_docking-pose.sdf

> <i_m_Source_File_Index>
445

> <i_lp_mmshare_version>
53161

> <i_f3d_flags>
0

> <r_lp_tautomer_probability>
0.43657999999885

> <s_lp_Force_Field>
OPLS_2005

> <r_lp_Energy>
6.110577

> <b_lp_Chiralities_Consistent>
1

> <s_lp_Variant>
566298-3

> <s_i_glide_gridfile>
glide-grid_1sj0

> <i_i_glide_lignum>
1405

> <i_i_glide_rotatable_bonds>
6

> <r_i_docking_score>
-8.08934864825087

> <r_i_glide_ligand_efficiency>
-0.449408258236159

> <r_i_glide_ligand_efficiency_sa>
-1.17778282412408

> <r_i_glide_ligand_efficiency_ln>
-2.07932535800266

> <r_i_glide_gscore>
-8.08934864825087

> <r_i_glide_lipo>
-3.74974893769263

> <r_i_glide_hbond>
-0.16

> <r_i_glide_metal>
0

> <r_i_glide_rewards>
-2.34061905536475

> <r_i_glide_evdw>
-32.6625022888184

> <r_i_glide_ecoul>
-5.4789023399353

> <r_i_glide_erotb>
0.615979810237725

> <r_i_glide_esite>
0

> <r_i_glide_emodel>
-56.9143139789041

> <r_i_glide_energy>
-38.1414046287537

> <r_i_glide_einternal>
3.22996783256531

> <i_i_glide_confnum>
9

> <i_i_glide_posenum>
358

> <r_i_glide_eff_state_penalty>
0

> <s_user_duplicate_titles>
566298

> <s_m_subgroup_title>
dock_pv

> <s_m_subgroupid>
dock_pv1

> <b_m_subgroup_collapsed>
0

$$$$
323184
                    3D
 Schrodinger Suite 2021-1.
 30 32  0  0  1  0            999 V2000
   30.6688   -1.3413   24.1810 C   0  0  0  0  0  0
   30.6987   -0.8843   25.4916 C   0  0  0  0  0  0
   31.7839   -1.1369   26.3362 C   0  0  0  0  0  0
   32.8092   -1.9493   25.8322 C   0  0  0  0  0  0
   32.7929   -2.4705   24.5153 C   0  0  0  0  0  0
   31.6958   -2.1608   23.6660 C   0  0  0  0  0  0
   31.6603   -2.7141   22.3540 C   0  0  0  0  0  0
   32.7145   -3.4877   21.8833 C   0  0  0  0  0  0
   33.8036   -3.7421   22.6971 C   0  0  0  0  0  0
   33.8388   -3.2781   24.0132 C   0  0  0  0  0  0
   32.7067   -4.0022   20.6136 O   0  0  0  0  0  0
   31.8698   -0.5250   27.7127 C   0  0  0  0  0  0
   31.2967    0.7353   27.9949 C   0  0  0  0  0  0
   31.4118    1.3196   29.2502 C   0  0  0  0  0  0
   32.1321    0.6950   30.2516 C   0  0  0  0  0  0
   32.7021   -0.5438   30.0131 C   0  0  0  0  0  0
   32.5584   -1.1608   28.7706 C   0  0  0  0  0  0
   33.1045   -2.3898   28.6262 F   0  0  0  0  0  0
   32.2784    1.3010   31.4636 O   0  0  0  0  0  0
   30.6254    1.4468   27.0641 F   0  0  0  0  0  0
   29.8272   -1.0968   23.5544 H   0  0  0  0  0  0
   29.8530   -0.3065   25.8315 H   0  0  0  0  0  0
   33.6623   -2.1679   26.4413 H   0  0  0  0  0  0
   30.8106   -2.5420   21.7141 H   0  0  0  0  0  0
   34.6088   -4.3353   22.2866 H   0  0  0  0  0  0
   34.6710   -3.5101   24.6626 H   0  0  0  0  0  0
   32.0316   -4.6842   20.4462 H   0  0  0  0  0  0
   30.9436    2.2685   29.4308 H   0  0  0  0  0  0
   33.2577   -1.0359   30.7958 H   0  0  0  0  0  0
   31.8540    2.1610   31.5002 H   0  0  0  0  0  0
  1  6  1  0  0  0
  1  2  2  0  0  0
  1 21  1  0  0  0
  2  3  1  0  0  0
  2 22  1  0  0  0
  3  4  2  0  0  0
  3 12  1  0  0  0
  4  5  1  0  0  0
  4 23  1  0  0  0
  5 10  2  0  0  0
  5  6  1  0  0  0
  6  7  2  0  0  0
  7  8  1  0  0  0
  7 24  1  0  0  0
  8  9  2  0  0  0
  8 11  1  0  0  0
  9 10  1  0  0  0
  9 25  1  0  0  0
 10 26  1  0  0  0
 11 27  1  0  0  0
 12 17  1  0  0  0
 12 13  2  0  0  0
 13 14  1  0  0  0
 13 20  1  0  0  0
 14 15  2  0  0  0
 14 28  1  0  0  0
 15 16  1  0  0  0
 15 19  1  0  0  0
 16 17  2  0  0  0
 16 29  1  0  0  0
 17 18  1  0  0  0
 19 30  1  0  0  0
M  END
> <s_m_entry_id>
17519

> <s_m_entry_name>
ligand_docking-pose.446

> <s_m_Source_Path>
/home/csk/Desktop/cluster/DUD-E-result/esr1

> <s_m_Source_File>
ligand_docking-pose.sdf

> <i_m_Source_File_Index>
446

> <i_lp_mmshare_version>
53161

> <i_f3d_flags>
0

> <r_lp_tautomer_probability>
0.999999999997365

> <s_lp_Force_Field>
OPLS_2005

> <r_lp_Energy>
18.188238

> <b_lp_Chiralities_Consistent>
1

> <s_lp_Variant>
323184-1

> <s_i_glide_gridfile>
glide-grid_1sj0

> <i_i_glide_lignum>
140

> <i_i_glide_rotatable_bonds>
3

> <r_i_docking_score>
-8.08920220806429

> <r_i_glide_ligand_efficiency>
-0.404460110403214

> <r_i_glide_ligand_efficiency_sa>
-1.09787364779209

> <r_i_glide_ligand_efficiency_ln>
-2.02446051293356

> <r_i_glide_gscore>
-8.08920220806429

> <r_i_glide_lipo>
-3.84231872037674

> <r_i_glide_hbond>
-0.16

> <r_i_glide_metal>
0

> <r_i_glide_rewards>
-2.53483716933176

> <r_i_glide_evdw>
-25.699333190918

> <r_i_glide_ecoul>
-3.39222550392151

> <r_i_glide_erotb>
0.241754166778343

> <r_i_glide_esite>
0

> <r_i_glide_emodel>
-39.4542778076376

> <r_i_glide_energy>
-29.0915586948395

> <r_i_glide_einternal>
5.98375749588013

> <i_i_glide_confnum>
1

> <i_i_glide_posenum>
125

> <r_i_glide_eff_state_penalty>
0

> <s_user_duplicate_titles>
323184

> <s_m_subgroup_title>
dock_pv

> <s_m_subgroupid>
dock_pv1

> <b_m_subgroup_collapsed>
0

$$$$
319425
                    3D
 Schrodinger Suite 2021-1.
 31 33  0  0  1  0            999 V2000
   29.2252   -0.3885   25.4640 C   0  0  0  0  0  0
   30.3998   -0.5959   26.3916 C   0  0  0  0  0  0
   31.5323   -1.3339   26.2847 C   0  0  0  0  0  0
   32.2601   -1.3002   27.5567 C   0  0  0  0  0  0
   33.2600   -1.9340   27.8615 O   0  0  0  0  0  0
   31.5359   -0.3612   28.3821 C   0  0  0  0  0  0
   30.4165    0.0610   27.6936 C   0  0  0  0  0  0
   29.5487    0.9774   28.2808 C   0  0  0  0  0  0
   29.8398    1.4580   29.5557 C   0  0  0  0  0  0
   30.9748    1.0190   30.2495 C   0  0  0  0  0  0
   31.8278    0.0944   29.6632 C   0  0  0  0  0  0
   31.2600    1.4580   31.5109 O   0  0  0  0  0  0
   32.0399   -2.0429   25.0680 C   0  0  0  0  0  0
   32.9314   -3.1152   25.1787 C   0  0  0  0  0  0
   33.4260   -3.7420   24.0497 C   0  0  0  0  0  0
   32.9589   -3.4187   22.7924 C   0  0  0  0  0  0
   32.0600   -2.3795   22.6541 C   0  0  0  0  0  0
   31.6579   -1.6532   23.7743 C   0  0  0  0  0  0
   33.3720   -4.1420   21.7076 O   0  0  0  0  0  0
   29.2134    0.6232   25.0640 H   0  0  0  0  0  0
   29.2600   -1.1139   24.6606 H   0  0  0  0  0  0
   28.2898   -0.5577   25.9981 H   0  0  0  0  0  0
   28.6671    1.3288   27.7647 H   0  0  0  0  0  0
   29.1636    2.1728   29.9891 H   0  0  0  0  0  0
   32.7012   -0.2483   30.2005 H   0  0  0  0  0  0
   30.6276    2.1067   31.8268 H   0  0  0  0  0  0
   33.2600   -3.5012   26.1289 H   0  0  0  0  0  0
   34.1023   -4.5557   24.1699 H   0  0  0  0  0  0
   31.6915   -2.1420   21.6694 H   0  0  0  0  0  0
   31.0307   -0.7935   23.6103 H   0  0  0  0  0  0
   32.7275   -4.1857   20.9947 H   0  0  0  0  0  0
  1  2  1  0  0  0
  1 20  1  0  0  0
  1 21  1  0  0  0
  1 22  1  0  0  0
  2  7  1  0  0  0
  2  3  2  0  0  0
  3  4  1  0  0  0
  3 13  1  0  0  0
  4  5  2  0  0  0
  4  6  1  0  0  0
  6 11  2  0  0  0
  6  7  1  0  0  0
  7  8  2  0  0  0
  8  9  1  0  0  0
  8 23  1  0  0  0
  9 10  2  0  0  0
  9 24  1  0  0  0
 10 11  1  0  0  0
 10 12  1  0  0  0
 11 25  1  0  0  0
 12 26  1  0  0  0
 13 18  1  0  0  0
 13 14  2  0  0  0
 14 15  1  0  0  0
 14 27  1  0  0  0
 15 16  2  0  0  0
 15 28  1  0  0  0
 16 17  1  0  0  0
 16 19  1  0  0  0
 17 18  2  0  0  0
 17 29  1  0  0  0
 18 30  1  0  0  0
 19 31  1  0  0  0
M  END
> <s_m_entry_id>
17520

> <s_m_entry_name>
ligand_docking-pose.447

> <s_m_Source_Path>
/home/csk/Desktop/cluster/DUD-E-result/esr1

> <s_m_Source_File>
ligand_docking-pose.sdf

> <i_m_Source_File_Index>
447

> <i_lp_mmshare_version>
53161

> <i_f3d_flags>
0

> <r_lp_tautomer_probability>
1

> <s_lp_Force_Field>
OPLS_2005

> <r_lp_Energy>
24.274681

> <b_lp_Chiralities_Consistent>
1

> <s_lp_Variant>
319425-1

> <s_i_glide_gridfile>
glide-grid_1sj0

> <i_i_glide_lignum>
1046

> <i_i_glide_rotatable_bonds>
3

> <r_i_docking_score>
-8.08888120139853

> <r_i_glide_ligand_efficiency>
-0.425730589547291

> <r_i_glide_ligand_efficiency_sa>
-1.13602020594438

> <r_i_glide_ligand_efficiency_ln>
-2.05070511779293

> <r_i_glide_gscore>
-8.08888120139853

> <r_i_glide_lipo>
-3.98820681934599

> <r_i_glide_hbond>
0

> <r_i_glide_metal>
0

> <r_i_glide_rewards>
-2.73906941703482

> <r_i_glide_evdw>
-29.7474517822266

> <r_i_glide_ecoul>
-0.999565124511719

> <r_i_glide_erotb>
0.27570239277036

> <r_i_glide_esite>
0

> <r_i_glide_emodel>
-41.107836928852

> <r_i_glide_energy>
-30.7470169067383

> <r_i_glide_einternal>
3.22211790084839

> <i_i_glide_confnum>
2

> <i_i_glide_posenum>
170

> <r_i_glide_eff_state_penalty>
0

> <s_user_duplicate_titles>
319425

> <s_m_subgroup_title>
dock_pv

> <s_m_subgroupid>
dock_pv1

> <b_m_subgroup_collapsed>
0

$$$$
330272
                    3D
 Schrodinger Suite 2021-1.
 29 31  0  0  1  0            999 V2000
   33.0347   -2.9353   24.9751 C   0  0  0  0  0  0
   33.3550   -3.7420   23.8894 C   0  0  0  0  0  0
   32.7000   -3.5895   22.6780 C   0  0  0  0  0  0
   31.7658   -2.5768   22.5290 C   0  0  0  0  0  0
   31.4673   -1.7420   23.6077 C   0  0  0  0  0  0
   32.0634   -1.9274   24.8632 C   0  0  0  0  0  0
   31.6557   -1.0959   26.0484 C   0  0  0  0  0  0
   30.4923   -0.3150   26.0644 C   0  0  0  0  0  0
   30.1504    0.4165   27.1994 C   0  0  0  0  0  0
   30.9864    0.3451   28.3470 C   0  0  0  0  0  0
   30.7200    1.0338   29.5599 C   0  0  0  0  0  0
   31.5520    0.8526   30.6616 C   0  0  0  0  0  0
   32.6713    0.0370   30.5808 C   0  0  0  0  0  0
   32.9855   -0.6247   29.3982 C   0  0  0  0  0  0
   32.1442   -0.4883   28.2693 C   0  0  0  0  0  0
   32.4609   -1.1775   27.1419 N   0  0  0  0  0  0
   31.2600    1.4580   31.8490 O   0  0  0  0  0  0
   28.5511    1.4582   27.1741 Br  0  0  0  0  0  0
   32.9680   -4.4591   21.6538 O   0  0  0  0  0  0
   33.5327   -3.1259   25.9140 H   0  0  0  0  0  0
   34.0600   -4.5420   24.0102 H   0  0  0  0  0  0
   31.2603   -2.4638   21.5824 H   0  0  0  0  0  0
   30.7293   -0.9708   23.4640 H   0  0  0  0  0  0
   29.8293   -0.2692   25.2153 H   0  0  0  0  0  0
   29.8470    1.6642   29.6350 H   0  0  0  0  0  0
   33.2936   -0.0918   31.4528 H   0  0  0  0  0  0
   33.8589   -1.2602   29.3443 H   0  0  0  0  0  0
   30.4805    2.0151   31.8012 H   0  0  0  0  0  0
   32.2363   -4.6472   21.0514 H   0  0  0  0  0  0
  1  6  1  0  0  0
  1  2  2  0  0  0
  1 20  1  0  0  0
  2  3  1  0  0  0
  2 21  1  0  0  0
  3  4  2  0  0  0
  3 19  1  0  0  0
  4  5  1  0  0  0
  4 22  1  0  0  0
  5  6  2  0  0  0
  5 23  1  0  0  0
  6  7  1  0  0  0
  7 16  1  0  0  0
  7  8  2  0  0  0
  8  9  1  0  0  0
  8 24  1  0  0  0
  9 10  2  0  0  0
  9 18  1  0  0  0
 10 15  1  0  0  0
 10 11  1  0  0  0
 11 12  2  0  0  0
 11 25  1  0  0  0
 12 13  1  0  0  0
 12 17  1  0  0  0
 13 14  2  0  0  0
 13 26  1  0  0  0
 14 15  1  0  0  0
 14 27  1  0  0  0
 15 16  2  0  0  0
 17 28  1  0  0  0
 19 29  1  0  0  0
M  END
> <s_m_entry_id>
17521

> <s_m_entry_name>
ligand_docking-pose.448

> <s_m_Source_Path>
/home/csk/Desktop/cluster/DUD-E-result/esr1

> <s_m_Source_File>
ligand_docking-pose.sdf

> <i_m_Source_File_Index>
448

> <i_lp_mmshare_version>
53161

> <i_f3d_flags>
0

> <r_lp_tautomer_probability>
0.999999999997365

> <s_lp_Force_Field>
OPLS_2005

> <r_lp_Energy>
12.12462

> <b_lp_Chiralities_Consistent>
1

> <s_lp_Variant>
330272-1

> <s_i_glide_gridfile>
glide-grid_1sj0

> <i_i_glide_lignum>
321

> <i_i_glide_rotatable_bonds>
3

> <r_i_docking_score>
-8.08612071104505

> <r_i_glide_ligand_efficiency>
-0.425585300581318

> <r_i_glide_ligand_efficiency_sa>
-1.13563251662841

> <r_i_glide_ligand_efficiency_ln>
-2.05000527419842

> <r_i_glide_gscore>
-8.08612071104505

> <r_i_glide_lipo>
-4.27814784111368

> <r_i_glide_hbond>
-0.0801445269221761

> <r_i_glide_metal>
0

> <r_i_glide_rewards>
-1.92435034592747

> <r_i_glide_evdw>
-32.7315216064453

> <r_i_glide_ecoul>
-2.3541407585144

> <r_i_glide_erotb>
0.186219197017704

> <r_i_glide_esite>
0

> <r_i_glide_emodel>
-51.0101966650091

> <r_i_glide_energy>
-35.0856623649597

> <r_i_glide_einternal>
1.11130356788635

> <i_i_glide_confnum>
2

> <i_i_glide_posenum>
294

> <r_i_glide_eff_state_penalty>
0

> <s_user_duplicate_titles>
330272

> <s_m_subgroup_title>
dock_pv

> <s_m_subgroupid>
dock_pv1

> <b_m_subgroup_collapsed>
0

$$$$
300897
                    3D
 Schrodinger Suite 2021-1.
 42 44  0  0  1  0            999 V2000
   31.3794   -1.0294   25.3837 C   0  0  0  0  0  0
   32.0188   -0.4506   26.6360 C   0  0  0  0  0  0
   32.8601    0.6026   26.5853 C   0  0  0  0  0  0
   33.5733    1.2689   27.7808 C   0  0  0  0  0  0
   33.1099    0.5888   29.1588 C   0  0  2  0  0  0
   32.9094   -0.9312   28.9213 C   0  0  0  0  0  0
   31.7026   -1.1236   27.9669 C   0  0  1  0  0  0
   30.4391   -0.5295   28.6554 C   0  0  1  0  0  0
   30.6645    0.8496   28.9738 O   0  0  0  0  0  0
   31.7876    1.1044   29.7992 C   0  0  0  0  0  0
   29.0867   -0.6870   27.9427 C   0  0  0  0  0  0
   28.3752    0.4599   27.5647 C   0  0  0  0  0  0
   27.0686    0.3631   27.1071 C   0  0  0  0  0  0
   26.4637   -0.8785   26.9557 C   0  0  0  0  0  0
   27.1729   -2.0340   27.2683 C   0  0  0  0  0  0
   28.4688   -1.9398   27.7815 C   0  0  0  0  0  0
   29.2504   -3.3930   28.2638 Cl  0  0  0  0  0  0
   25.1791   -0.9421   26.4889 O   0  0  0  0  0  0
   34.0600    0.7632   30.1819 O   0  0  0  0  0  0
   33.2602    2.7703   27.6296 C   0  0  0  0  0  0
   35.1028    1.0683   27.6116 C   0  0  0  0  0  0
   31.5878   -2.1917   27.7947 H   0  0  0  0  0  0
   30.3303   -1.0855   29.5835 H   0  0  0  0  0  0
   30.2958   -0.9183   25.4174 H   0  0  0  0  0  0
   31.7306   -0.5304   24.4797 H   0  0  0  0  0  0
   31.6162   -2.0897   25.2902 H   0  0  0  0  0  0
   33.0562    1.0130   25.6052 H   0  0  0  0  0  0
   33.8041   -1.3930   28.5033 H   0  0  0  0  0  0
   32.7333   -1.4511   29.8635 H   0  0  0  0  0  0
   31.6070    0.6131   30.7587 H   0  0  0  0  0  0
   31.8161    2.1670   30.0312 H   0  0  0  0  0  0
   28.8010    1.4460   27.6776 H   0  0  0  0  0  0
   26.5186    1.2617   26.8770 H   0  0  0  0  0  0
   26.7066   -3.0016   27.1453 H   0  0  0  0  0  0
   24.9304   -1.8397   26.2045 H   0  0  0  0  0  0
   34.9058    0.4397   29.8600 H   0  0  0  0  0  0
   34.1089    3.4071   27.8641 H   0  0  0  0  0  0
   33.0024    3.0572   26.6091 H   0  0  0  0  0  0
   32.4374    3.0580   28.2610 H   0  0  0  0  0  0
   35.6596    1.6334   28.3608 H   0  0  0  0  0  0
   35.4166    0.0326   27.7260 H   0  0  0  0  0  0
   35.4559    1.4580   26.6640 H   0  0  0  0  0  0
  1  2  1  0  0  0
  1 24  1  0  0  0
  1 25  1  0  0  0
  1 26  1  0  0  0
  2  7  1  0  0  0
  2  3  2  0  0  0
  3  4  1  0  0  0
  3 27  1  0  0  0
  4  5  1  0  0  0
  4 20  1  0  0  0
  4 21  1  0  0  0
  5 10  1  0  0  0
  5  6  1  0  0  0
  5 19  1  0  0  0
  6  7  1  0  0  0
  6 28  1  0  0  0
  6 29  1  0  0  0
  7 22  1  0  0  0
  7  8  1  0  0  0
  8 23  1  0  0  0
  8  9  1  0  0  0
  8 11  1  0  0  0
  9 10  1  0  0  0
 10 30  1  0  0  0
 10 31  1  0  0  0
 11 16  1  0  0  0
 11 12  2  0  0  0
 12 13  1  0  0  0
 12 32  1  0  0  0
 13 14  2  0  0  0
 13 33  1  0  0  0
 14 15  1  0  0  0
 14 18  1  0  0  0
 15 16  2  0  0  0
 15 34  1  0  0  0
 16 17  1  0  0  0
 18 35  1  0  0  0
 19 36  1  0  0  0
 20 37  1  0  0  0
 20 38  1  0  0  0
 20 39  1  0  0  0
 21 40  1  0  0  0
 21 41  1  0  0  0
 21 42  1  0  0  0
M  END
> <s_m_entry_id>
17522

> <s_m_entry_name>
ligand_docking-pose.449

> <s_m_Source_Path>
/home/csk/Desktop/cluster/DUD-E-result/esr1

> <s_m_Source_File>
ligand_docking-pose.sdf

> <i_m_Source_File_Index>
449

> <i_lp_mmshare_version>
53161

> <i_f3d_flags>
0

> <r_lp_tautomer_probability>
0.999999999997365

> <s_lp_Force_Field>
OPLS_2005

> <r_lp_Energy>
28.595357

> <b_lp_Chiralities_Consistent>
1

> <s_lp_Variant>
300897-1

> <s_i_glide_gridfile>
glide-grid_1sj0

> <i_i_glide_lignum>
929

> <i_i_glide_rotatable_bonds>
3

> <r_i_docking_score>
-8.08478091276387

> <r_i_glide_ligand_efficiency>
-0.38498956727447

> <r_i_glide_ligand_efficiency_sa>
-1.06215702373012

> <r_i_glide_ligand_efficiency_ln>
-1.99894574384278

> <r_i_glide_gscore>
-8.08478091276387

> <r_i_glide_lipo>
-3.84903205786081

> <r_i_glide_hbond>
-0.167677236645045

> <r_i_glide_metal>
0

> <r_i_glide_rewards>
-2.18823100064852

> <r_i_glide_evdw>
-27.8797798156738

> <r_i_glide_ecoul>
-4.14471387863159

> <r_i_glide_erotb>
0.135855454968934

> <r_i_glide_esite>
0

> <r_i_glide_emodel>
-30.2418472842322

> <r_i_glide_energy>
-32.0244936943054

> <r_i_glide_einternal>
4.56683540344238

> <i_i_glide_confnum>
1

> <i_i_glide_posenum>
84

> <r_i_glide_eff_state_penalty>
0

> <s_user_duplicate_titles>
300897

> <s_m_subgroup_title>
dock_pv

> <s_m_subgroupid>
dock_pv1

> <b_m_subgroup_collapsed>
0

$$$$
356801
                    3D
 Schrodinger Suite 2021-1.
 52 55  0  0  1  0            999 V2000
   35.2818    0.0426   29.2842 C   0  0  0  0  0  0
   34.0842   -0.8740   29.0613 C   0  0  0  0  0  0
   32.9772   -0.6912   30.1102 C   0  0  0  0  0  0
   31.6230   -1.2745   29.6734 C   0  0  0  0  0  0
   30.9233   -0.4792   28.5728 C   0  0  0  0  0  0
   30.9507   -0.8001   27.2460 C   0  0  0  0  0  0
   31.6927   -1.8334   26.4652 C   0  0  0  0  0  0
   32.4593   -2.9391   26.8287 C   0  0  0  0  0  0
   33.1112   -3.6842   25.8545 C   0  0  0  0  0  0
   33.0393   -3.3379   24.5072 C   0  0  0  0  0  0
   32.3276   -2.2123   24.1369 C   0  0  0  0  0  0
   31.6607   -1.4833   25.1136 C   0  0  0  0  0  0
   31.0343   -0.1627   24.9455 C   0  0  0  0  0  0
   30.1674    0.0010   26.1968 C   0  0  2  0  0  0
   30.0718    1.4651   26.6654 C   0  0  0  0  0  0
   29.5094    1.6197   28.0771 C   0  0  0  0  0  0
   30.3032    0.7783   29.0676 C   0  0  0  0  0  0
   30.4601    1.1952   30.2150 O   0  0  0  0  0  0
   28.7626   -0.5838   25.8605 C   0  0  0  0  0  0
   27.9624   -1.3378   26.9036 C   0  0  0  0  0  0
   28.2007   -2.7001   27.0979 C   0  0  0  0  0  0
   27.2615   -3.4858   27.7510 C   0  0  0  0  0  0
   26.1196   -2.8837   28.2641 C   0  0  0  0  0  0
   25.9839   -1.4942   28.2440 C   0  0  0  0  0  0
   26.8747   -0.7225   27.5155 C   0  0  0  0  0  0
   33.6590   -4.0870   23.5468 O   0  0  0  0  0  0
   36.0589   -0.1457   28.5402 H   0  0  0  0  0  0
   35.0079    1.0965   29.2253 H   0  0  0  0  0  0
   35.7135   -0.1352   30.2636 H   0  0  0  0  0  0
   34.4229   -1.9100   29.0663 H   0  0  0  0  0  0
   33.7028   -0.6685   28.0621 H   0  0  0  0  0  0
   32.8699    0.3671   30.3499 H   0  0  0  0  0  0
   33.2601   -1.1610   31.0478 H   0  0  0  0  0  0
   30.9622   -1.2981   30.5427 H   0  0  0  0  0  0
   31.7091   -2.3215   29.4246 H   0  0  0  0  0  0
   32.6042   -3.2509   27.8452 H   0  0  0  0  0  0
   33.6610   -4.5421   26.1686 H   0  0  0  0  0  0
   32.3085   -1.8993   23.1030 H   0  0  0  0  0  0
   31.8819    0.5250   24.8975 H   0  0  0  0  0  0
   30.4797   -0.1423   24.0064 H   0  0  0  0  0  0
   29.4831    2.0679   25.9777 H   0  0  0  0  0  0
   31.0867    1.8581   26.6676 H   0  0  0  0  0  0
   28.4826    1.2675   28.1105 H   0  0  0  0  0  0
   29.5039    2.6550   28.4147 H   0  0  0  0  0  0
   28.1361    0.1885   25.4227 H   0  0  0  0  0  0
   28.8645   -1.3186   25.0641 H   0  0  0  0  0  0
   29.0721   -3.1697   26.6674 H   0  0  0  0  0  0
   27.4074   -4.5525   27.8291 H   0  0  0  0  0  0
   25.3783   -3.4940   28.7604 H   0  0  0  0  0  0
   25.1464   -1.0095   28.7152 H   0  0  0  0  0  0
   26.6765    0.3309   27.3789 H   0  0  0  0  0  0
   33.4354   -3.8256   22.6505 H   0  0  0  0  0  0
  1  2  1  0  0  0
  1 27  1  0  0  0
  1 28  1  0  0  0
  1 29  1  0  0  0
  2  3  1  0  0  0
  2 30  1  0  0  0
  2 31  1  0  0  0
  3  4  1  0  0  0
  3 32  1  0  0  0
  3 33  1  0  0  0
  4  5  1  0  0  0
  4 34  1  0  0  0
  4 35  1  0  0  0
  5 17  1  0  0  0
  5  6  2  0  0  0
  6 14  1  0  0  0
  6  7  1  0  0  0
  7 12  2  0  0  0
  7  8  1  0  0  0
  8  9  2  0  0  0
  8 36  1  0  0  0
  9 10  1  0  0  0
  9 37  1  0  0  0
 10 11  2  0  0  0
 10 26  1  0  0  0
 11 12  1  0  0  0
 11 38  1  0  0  0
 12 13  1  0  0  0
 13 14  1  0  0  0
 13 39  1  0  0  0
 13 40  1  0  0  0
 14 15  1  0  0  0
 14 19  1  0  0  0
 15 16  1  0  0  0
 15 41  1  0  0  0
 15 42  1  0  0  0
 16 17  1  0  0  0
 16 43  1  0  0  0
 16 44  1  0  0  0
 17 18  2  0  0  0
 19 20  1  0  0  0
 19 45  1  0  0  0
 19 46  1  0  0  0
 20 25  1  0  0  0
 20 21  2  0  0  0
 21 22  1  0  0  0
 21 47  1  0  0  0
 22 23  2  0  0  0
 22 48  1  0  0  0
 23 24  1  0  0  0
 23 49  1  0  0  0
 24 25  2  0  0  0
 24 50  1  0  0  0
 25 51  1  0  0  0
 26 52  1  0  0  0
M  END
> <s_m_entry_id>
17523

> <s_m_entry_name>
ligand_docking-pose.450

> <s_m_Source_Path>
/home/csk/Desktop/cluster/DUD-E-result/esr1

> <s_m_Source_File>
ligand_docking-pose.sdf

> <i_m_Source_File_Index>
450

> <i_lp_mmshare_version>
53161

> <i_f3d_flags>
0

> <r_lp_tautomer_probability>
1

> <s_lp_Force_Field>
OPLS_2005

> <r_lp_Energy>
22.995249

> <b_lp_Chiralities_Consistent>
1

> <s_lp_Variant>
356801-2

> <s_i_glide_gridfile>
glide-grid_1sj0

> <i_i_glide_lignum>
1365

> <i_i_glide_rotatable_bonds>
6

> <r_i_docking_score>
-8.08118295794069

> <r_i_glide_ligand_efficiency>
-0.310814729151565

> <r_i_glide_ligand_efficiency_sa>
-0.920787412114608

> <r_i_glide_ligand_efficiency_ln>
-1.8978393011483

> <r_i_glide_gscore>
-8.08118295794069

> <r_i_glide_lipo>
-4.93773705673604

> <r_i_glide_hbond>
0

> <r_i_glide_metal>
0

> <r_i_glide_rewards>
-2.26247869257833

> <r_i_glide_evdw>
-30.5174083709717

> <r_i_glide_ecoul>
0.0756396055221558

> <r_i_glide_erotb>
0.633557269093938

> <r_i_glide_esite>
0

> <r_i_glide_emodel>
-27.1171495032324

> <r_i_glide_energy>
-30.4417687654495

> <r_i_glide_einternal>
12.0293598175049

> <i_i_glide_confnum>
9

> <i_i_glide_posenum>
62

> <r_i_glide_eff_state_penalty>
0

> <s_user_duplicate_titles>
356801

> <s_m_subgroup_title>
dock_pv

> <s_m_subgroupid>
dock_pv1

> <b_m_subgroup_collapsed>
0

$$$$
354367
                    3D
 Schrodinger Suite 2021-1.
 34 37  0  0  1  0            999 V2000
   28.5473   -2.2801   27.9426 C   0  0  0  0  0  0
   28.5912   -0.7380   27.8600 C   0  0  0  0  0  0
   29.9422   -0.0740   27.4190 C   0  0  1  0  0  0
   29.9061    1.4539   27.5786 C   0  0  0  0  0  0
   29.8821    1.8973   29.0576 C   0  0  0  0  0  0
   30.8597    1.1185   29.9725 C   0  0  0  0  0  0
   31.0622    1.4566   31.1360 O   0  0  0  0  0  0
   31.5199   -0.0517   29.4084 C   0  0  0  0  0  0
   31.1556   -0.5694   28.2113 C   0  0  0  0  0  0
   31.7922   -1.5856   27.3767 C   0  0  0  0  0  0
   32.7504   -2.5423   27.6810 C   0  0  0  0  0  0
   33.1458   -3.4829   26.7295 C   0  0  0  0  0  0
   32.8583   -3.1962   25.3957 C   0  0  0  0  0  0
   31.9545   -2.1802   25.0559 C   0  0  0  0  0  0
   31.3338   -1.4549   26.0724 C   0  0  0  0  0  0
   30.2360   -0.5071   25.9850 C   0  0  0  0  0  0
   29.6598   -0.1420   24.9689 O   0  0  0  0  0  0
   31.8932   -2.2179   23.6470 C   0  0  0  0  0  0
   32.6755   -3.1349   23.1431 N   0  0  0  0  0  0
   33.2606   -3.7420   24.1911 N   0  0  0  0  0  0
   32.9615   -0.6252   30.2634 Cl  0  0  0  0  0  0
   33.9002   -4.5106   24.0449 H   0  0  0  0  0  0
   27.5626   -2.6235   28.2608 H   0  0  0  0  0  0
   28.7510   -2.7497   26.9816 H   0  0  0  0  0  0
   29.2737   -2.6629   28.6609 H   0  0  0  0  0  0
   27.7878   -0.4060   27.1982 H   0  0  0  0  0  0
   28.3062   -0.3610   28.8392 H   0  0  0  0  0  0
   30.7963    1.8604   27.0972 H   0  0  0  0  0  0
   29.0498    1.8766   27.0483 H   0  0  0  0  0  0
   30.1089    2.9585   29.0639 H   0  0  0  0  0  0
   28.8821    1.7451   29.4616 H   0  0  0  0  0  0
   33.0853   -2.6866   28.6954 H   0  0  0  0  0  0
   33.6511   -4.3827   27.0252 H   0  0  0  0  0  0
   31.2601   -1.5844   23.0619 H   0  0  0  0  0  0
  1  2  1  0  0  0
  1 23  1  0  0  0
  1 24  1  0  0  0
  1 25  1  0  0  0
  2  3  1  0  0  0
  2 26  1  0  0  0
  2 27  1  0  0  0
  3  9  1  0  0  0
  3 16  1  0  0  0
  3  4  1  0  0  0
  4  5  1  0  0  0
  4 28  1  0  0  0
  4 29  1  0  0  0
  5  6  1  0  0  0
  5 30  1  0  0  0
  5 31  1  0  0  0
  6  7  2  0  0  0
  6  8  1  0  0  0
  8  9  2  0  0  0
  8 21  1  0  0  0
  9 10  1  0  0  0
 10 15  1  0  0  0
 10 11  2  0  0  0
 11 12  1  0  0  0
 11 32  1  0  0  0
 12 13  2  0  0  0
 12 33  1  0  0  0
 13 20  1  0  0  0
 13 14  1  0  0  0
 14 15  2  0  0  0
 14 18  1  0  0  0
 15 16  1  0  0  0
 16 17  2  0  0  0
 18 19  2  0  0  0
 18 34  1  0  0  0
 19 20  1  0  0  0
 20 22  1  0  0  0
M  END
> <s_m_entry_id>
17524

> <s_m_entry_name>
ligand_docking-pose.451

> <s_m_Source_Path>
/home/csk/Desktop/cluster/DUD-E-result/esr1

> <s_m_Source_File>
ligand_docking-pose.sdf

> <i_m_Source_File_Index>
451

> <i_lp_mmshare_version>
53161

> <i_f3d_flags>
0

> <r_lp_tautomer_probability>
1

> <s_lp_Force_Field>
OPLS_2005

> <r_lp_Energy>
45.526279

> <b_lp_Chiralities_Consistent>
1

> <s_lp_Variant>
354367-1

> <s_i_glide_gridfile>
glide-grid_1sj0

> <i_i_glide_lignum>
1098

> <i_i_glide_rotatable_bonds>
1

> <r_i_docking_score>
-8.08111186446553

> <r_i_glide_ligand_efficiency>
-0.384814850688835

> <r_i_glide_ligand_efficiency_sa>
-1.06167499391849

> <r_i_glide_ligand_efficiency_ln>
-1.99803857906503

> <r_i_glide_gscore>
-8.08111186446553

> <r_i_glide_lipo>
-3.83123316765847

> <r_i_glide_hbond>
-0.0466954801549974

> <r_i_glide_metal>
0

> <r_i_glide_rewards>
-2.79736693692782

> <r_i_glide_evdw>
-28.3135852813721

> <r_i_glide_ecoul>
0.0657532289624214

> <r_i_glide_erotb>
0

> <r_i_glide_esite>
0

> <r_i_glide_emodel>
-40.336379589625

> <r_i_glide_energy>
-28.2478320524096

> <r_i_glide_einternal>
0.102615140378475

> <i_i_glide_confnum>
1

> <i_i_glide_posenum>
27

> <r_i_glide_eff_state_penalty>
0

> <s_user_duplicate_titles>
354367

> <s_m_subgroup_title>
dock_pv

> <s_m_subgroupid>
dock_pv1

> <b_m_subgroup_collapsed>
0

$$$$
354111
                    3D
 Schrodinger Suite 2021-1.
 38 41  0  0  1  0            999 V2000
   28.9947   -2.7678   27.5782 C   0  0  0  0  0  0
   28.5693   -1.5338   26.7583 C   0  0  0  0  0  0
   29.6951   -0.5196   26.3117 C   0  0  1  0  0  0
   29.2737    0.9358   26.6693 C   0  0  0  0  0  0
   29.2336    1.1763   28.1971 C   0  0  0  0  0  0
   30.5359    0.7541   28.8988 C   0  0  0  0  0  0
   30.7528    1.1197   30.0545 O   0  0  0  0  0  0
   31.4039   -0.2181   28.1937 C   0  0  0  0  0  0
   31.0504   -0.7684   26.9981 C   0  0  0  0  0  0
   31.7855   -1.6966   26.1100 C   0  0  0  0  0  0
   32.8389   -2.5536   26.3946 C   0  0  0  0  0  0
   33.3864   -3.3573   25.4061 C   0  0  0  0  0  0
   32.9399   -3.2287   24.1114 C   0  0  0  0  0  0
   31.8530   -2.4096   23.7821 C   0  0  0  0  0  0
   31.2558   -1.6400   24.8192 C   0  0  0  0  0  0
   30.0628   -0.7272   24.8200 C   0  0  0  0  0  0
   31.6590   -2.7475   22.3963 C   0  0  0  0  0  0
   32.5683   -3.5523   21.9261 N   0  0  0  0  0  0
   33.3517   -3.8560   22.9572 N   0  0  0  0  0  0
   32.7653   -0.4519   28.8565 C   0  0  0  0  0  0
   34.1005   -4.5221   22.8408 H   0  0  0  0  0  0
   28.1486   -3.4337   27.7508 H   0  0  0  0  0  0
   29.7620   -3.3419   27.0637 H   0  0  0  0  0  0
   29.3909   -2.4818   28.5530 H   0  0  0  0  0  0
   27.8069   -1.0243   27.3464 H   0  0  0  0  0  0
   28.0041   -1.8813   25.8930 H   0  0  0  0  0  0
   28.3088    1.1781   26.2214 H   0  0  0  0  0  0
   29.9851    1.6515   26.2639 H   0  0  0  0  0  0
   29.0067    2.2119   28.4506 H   0  0  0  0  0  0
   28.4502    0.5601   28.6343 H   0  0  0  0  0  0
   33.1945   -2.6771   27.4057 H   0  0  0  0  0  0
   34.0597   -4.1419   25.5988 H   0  0  0  0  0  0
   29.2612   -1.1846   24.2638 H   0  0  0  0  0  0
   30.2809    0.2113   24.3304 H   0  0  0  0  0  0
   30.8392   -2.5420   21.7361 H   0  0  0  0  0  0
   33.1008    0.3955   29.4573 H   0  0  0  0  0  0
   32.7248   -1.3271   29.5056 H   0  0  0  0  0  0
   33.5486   -0.6028   28.1149 H   0  0  0  0  0  0
  1  2  1  0  0  0
  1 22  1  0  0  0
  1 23  1  0  0  0
  1 24  1  0  0  0
  2  3  1  0  0  0
  2 25  1  0  0  0
  2 26  1  0  0  0
  3  9  1  0  0  0
  3 16  1  0  0  0
  3  4  1  0  0  0
  4  5  1  0  0  0
  4 27  1  0  0  0
  4 28  1  0  0  0
  5  6  1  0  0  0
  5 29  1  0  0  0
  5 30  1  0  0  0
  6  7  2  0  0  0
  6  8  1  0  0  0
  8  9  2  0  0  0
  8 20  1  0  0  0
  9 10  1  0  0  0
 10 15  1  0  0  0
 10 11  2  0  0  0
 11 12  1  0  0  0
 11 31  1  0  0  0
 12 13  2  0  0  0
 12 32  1  0  0  0
 13 19  1  0  0  0
 13 14  1  0  0  0
 14 15  2  0  0  0
 14 17  1  0  0  0
 15 16  1  0  0  0
 16 33  1  0  0  0
 16 34  1  0  0  0
 17 18  2  0  0  0
 17 35  1  0  0  0
 18 19  1  0  0  0
 19 21  1  0  0  0
 20 36  1  0  0  0
 20 37  1  0  0  0
 20 38  1  0  0  0
M  END
> <s_m_entry_id>
17525

> <s_m_entry_name>
ligand_docking-pose.452

> <s_m_Source_Path>
/home/csk/Desktop/cluster/DUD-E-result/esr1

> <s_m_Source_File>
ligand_docking-pose.sdf

> <i_m_Source_File_Index>
452

> <i_lp_mmshare_version>
53161

> <i_f3d_flags>
0

> <r_lp_tautomer_probability>
1

> <s_lp_Force_Field>
OPLS_2005

> <r_lp_Energy>
37.482836

> <b_lp_Chiralities_Consistent>
1

> <s_lp_Variant>
354111-1

> <s_i_glide_gridfile>
glide-grid_1sj0

> <i_i_glide_lignum>
1069

> <i_i_glide_rotatable_bonds>
1

> <r_i_docking_score>
-8.07138835798792

> <r_i_glide_ligand_efficiency>
-0.403569417899396

> <r_i_glide_ligand_efficiency_sa>
-1.09545593637117

> <r_i_glide_ligand_efficiency_ln>
-2.02000229379954

> <r_i_glide_gscore>
-8.07138835798792

> <r_i_glide_lipo>
-4.1102902189967

> <r_i_glide_hbond>
0

> <r_i_glide_metal>
0

> <r_i_glide_rewards>
-2.72974971086107

> <r_i_glide_evdw>
-24.9535369873047

> <r_i_glide_ecoul>
0.10885614156723

> <r_i_glide_erotb>
0

> <r_i_glide_esite>
0

> <r_i_glide_emodel>
-34.4026819001012

> <r_i_glide_energy>
-24.8446808457375

> <r_i_glide_einternal>
4.34086990356445

> <i_i_glide_confnum>
1

> <i_i_glide_posenum>
21

> <r_i_glide_eff_state_penalty>
0

> <s_user_duplicate_titles>
354111

> <s_m_subgroup_title>
dock_pv

> <s_m_subgroupid>
dock_pv1

> <b_m_subgroup_collapsed>
0

$$$$
322838
                    3D
 Schrodinger Suite 2021-1.
 34 36  0  0  1  0            999 V2000
   27.9899    0.6963   27.6536 C   0  0  0  0  0  0
   28.9302    0.5968   26.6991 C   0  0  0  0  0  0
   30.2466   -0.0716   26.8187 C   0  0  0  0  0  0
   30.6585   -0.8085   25.7034 C   0  0  0  0  0  0
   31.8621   -1.5218   25.6554 C   0  0  0  0  0  0
   32.6731   -1.4890   26.7938 C   0  0  0  0  0  0
   32.3235   -0.7577   27.9485 C   0  0  0  0  0  0
   31.1023   -0.0152   27.9721 C   0  0  0  0  0  0
   30.8249    0.7581   29.1397 C   0  0  0  0  0  0
   31.6834    0.7387   30.2366 C   0  0  0  0  0  0
   32.8484   -0.0113   30.2064 C   0  0  0  0  0  0
   33.1810   -0.7475   29.0774 C   0  0  0  0  0  0
   31.3889    1.4579   31.3616 O   0  0  0  0  0  0
   32.2612   -2.3257   24.4459 C   0  0  0  0  0  0
   33.2208   -3.3420   24.5371 C   0  0  0  0  0  0
   33.5448   -4.1245   23.4361 C   0  0  0  0  0  0
   32.9178   -3.9551   22.2139 C   0  0  0  0  0  0
   31.9487   -2.9700   22.0949 C   0  0  0  0  0  0
   31.6600   -2.1420   23.1880 C   0  0  0  0  0  0
   31.2598   -2.8615   20.9368 F   0  0  0  0  0  0
   33.2601   -4.7589   21.1552 O   0  0  0  0  0  0
   27.0614    1.2187   27.4682 H   0  0  0  0  0  0
   28.1279    0.2483   28.6253 H   0  0  0  0  0  0
   28.7152    1.0471   25.7401 H   0  0  0  0  0  0
   29.9882   -0.8444   24.8584 H   0  0  0  0  0  0
   33.6147   -2.0140   26.8142 H   0  0  0  0  0  0
   29.9421    1.3744   29.1832 H   0  0  0  0  0  0
   33.5056   -0.0142   31.0634 H   0  0  0  0  0  0
   34.1005   -1.3156   29.0598 H   0  0  0  0  0  0
   30.5823    1.9701   31.2805 H   0  0  0  0  0  0
   33.7004   -3.5880   25.4692 H   0  0  0  0  0  0
   34.2171   -4.9420   23.5618 H   0  0  0  0  0  0
   30.9071   -1.3870   23.0640 H   0  0  0  0  0  0
   32.4989   -5.0866   20.6516 H   0  0  0  0  0  0
  1  2  2  0  0  0
  1 22  1  0  0  0
  1 23  1  0  0  0
  2  3  1  0  0  0
  2 24  1  0  0  0
  3  8  1  0  0  0
  3  4  2  0  0  0
  4  5  1  0  0  0
  4 25  1  0  0  0
  5  6  2  0  0  0
  5 14  1  0  0  0
  6  7  1  0  0  0
  6 26  1  0  0  0
  7 12  2  0  0  0
  7  8  1  0  0  0
  8  9  2  0  0  0
  9 10  1  0  0  0
  9 27  1  0  0  0
 10 11  2  0  0  0
 10 13  1  0  0  0
 11 12  1  0  0  0
 11 28  1  0  0  0
 12 29  1  0  0  0
 13 30  1  0  0  0
 14 19  1  0  0  0
 14 15  2  0  0  0
 15 16  1  0  0  0
 15 31  1  0  0  0
 16 17  2  0  0  0
 16 32  1  0  0  0
 17 18  1  0  0  0
 17 21  1  0  0  0
 18 19  2  0  0  0
 18 20  1  0  0  0
 19 33  1  0  0  0
 21 34  1  0  0  0
M  END
> <s_m_entry_id>
17526

> <s_m_entry_name>
ligand_docking-pose.453

> <s_m_Source_Path>
/home/csk/Desktop/cluster/DUD-E-result/esr1

> <s_m_Source_File>
ligand_docking-pose.sdf

> <i_m_Source_File_Index>
453

> <i_lp_mmshare_version>
53161

> <i_f3d_flags>
0

> <r_lp_tautomer_probability>
0.999999999997365

> <s_lp_Force_Field>
OPLS_2005

> <r_lp_Energy>
21.810643

> <b_lp_Chiralities_Consistent>
1

> <s_lp_Variant>
322838-1

> <s_i_glide_gridfile>
glide-grid_1sj0

> <i_i_glide_lignum>
1146

> <i_i_glide_rotatable_bonds>
4

> <r_i_docking_score>
-8.06443540847503

> <r_i_glide_ligand_efficiency>
-0.384020733736906

> <r_i_glide_ligand_efficiency_sa>
-1.05948408546316

> <r_i_glide_ligand_efficiency_ln>
-1.99391535901933

> <r_i_glide_gscore>
-8.06443540847503

> <r_i_glide_lipo>
-4.33622806120555

> <r_i_glide_hbond>
-0.16

> <r_i_glide_metal>
0

> <r_i_glide_rewards>
-2.28609266191209

> <r_i_glide_evdw>
-27.8131980895996

> <r_i_glide_ecoul>
-2.030601978302

> <r_i_glide_erotb>
0.459690400583437

> <r_i_glide_esite>
-0.0465548847155497

> <r_i_glide_emodel>
-40.8993825376088

> <r_i_glide_energy>
-29.8438000679016

> <r_i_glide_einternal>
5.68828248977661

> <i_i_glide_confnum>
2

> <i_i_glide_posenum>
242

> <r_i_glide_eff_state_penalty>
0

> <s_user_duplicate_titles>
322838

> <s_m_subgroup_title>
dock_pv

> <s_m_subgroupid>
dock_pv1

> <b_m_subgroup_collapsed>
0

$$$$
127434
                    3D
 Schrodinger Suite 2021-1.
 28 31  0  0  1  0            999 V2000
   31.0627    0.8247   29.6235 C   0  0  0  0  0  0
   30.4155    0.6802   28.3997 C   0  0  0  0  0  0
   30.9654   -0.1284   27.3969 C   0  0  0  0  0  0
   32.1908   -0.7935   27.6518 C   0  0  0  0  0  0
   32.8285   -0.6535   28.8823 C   0  0  0  0  0  0
   32.2584    0.1561   29.8619 C   0  0  0  0  0  0
   32.8698    0.3016   31.0678 O   0  0  0  0  0  0
   32.8267   -1.6013   26.7174 O   0  0  0  0  0  0
   32.2312   -1.6978   25.4841 C   0  0  0  0  0  0
   32.6746   -2.4170   24.3293 C   0  0  0  0  0  0
   33.7645   -3.2199   23.9640 C   0  0  0  0  0  0
   33.8036   -3.7422   22.6637 C   0  0  0  0  0  0
   32.7634   -3.5594   21.7625 C   0  0  0  0  0  0
   31.6604   -2.7842   22.1005 C   0  0  0  0  0  0
   31.6600   -2.1853   23.3706 C   0  0  0  0  0  0
   30.6965   -1.3420   23.8636 O   0  0  0  0  0  0
   31.0386   -1.0823   25.1528 C   0  0  0  0  0  0
   30.2626   -0.2765   26.0807 C   0  0  0  0  0  0
   29.1711    0.2420   25.8404 O   0  0  0  0  0  0
   32.8601   -4.1419   20.5284 O   0  0  0  0  0  0
   30.6326    1.4525   30.3907 H   0  0  0  0  0  0
   29.4833    1.2050   28.2374 H   0  0  0  0  0  0
   33.7617   -1.1663   29.0643 H   0  0  0  0  0  0
   33.6728   -0.2215   31.1410 H   0  0  0  0  0  0
   34.5633   -3.4111   24.6640 H   0  0  0  0  0  0
   34.6382   -4.3360   22.3201 H   0  0  0  0  0  0
   30.8580   -2.6251   21.3967 H   0  0  0  0  0  0
   32.1232   -4.7332   20.2928 H   0  0  0  0  0  0
  1  6  1  0  0  0
  1  2  2  0  0  0
  1 21  1  0  0  0
  2  3  1  0  0  0
  2 22  1  0  0  0
  3 18  1  0  0  0
  3  4  2  0  0  0
  4  5  1  0  0  0
  4  8  1  0  0  0
  5  6  2  0  0  0
  5 23  1  0  0  0
  6  7  1  0  0  0
  7 24  1  0  0  0
  8  9  1  0  0  0
  9 17  2  0  0  0
  9 10  1  0  0  0
 10 15  2  0  0  0
 10 11  1  0  0  0
 11 12  2  0  0  0
 11 25  1  0  0  0
 12 13  1  0  0  0
 12 26  1  0  0  0
 13 14  2  0  0  0
 13 20  1  0  0  0
 14 15  1  0  0  0
 14 27  1  0  0  0
 15 16  1  0  0  0
 16 17  1  0  0  0
 17 18  1  0  0  0
 18 19  2  0  0  0
 20 28  1  0  0  0
M  END
> <s_m_entry_id>
17527

> <s_m_entry_name>
ligand_docking-pose.454

> <s_m_Source_Path>
/home/csk/Desktop/cluster/DUD-E-result/esr1

> <s_m_Source_File>
ligand_docking-pose.sdf

> <i_m_Source_File_Index>
454

> <i_lp_mmshare_version>
53161

> <i_f3d_flags>
0

> <r_lp_tautomer_probability>
1

> <s_lp_Force_Field>
OPLS_2005

> <r_lp_Energy>
15.684096

> <b_lp_Chiralities_Consistent>
1

> <s_lp_Variant>
127434-1

> <s_i_glide_gridfile>
glide-grid_1sj0

> <i_i_glide_lignum>
38

> <i_i_glide_rotatable_bonds>
2

> <r_i_docking_score>
-8.06035759689602

> <r_i_glide_ligand_efficiency>
-0.403017879844801

> <r_i_glide_ligand_efficiency_sa>
-1.09395883176106

> <r_i_glide_ligand_efficiency_ln>
-2.01724165811709

> <r_i_glide_gscore>
-8.06035759689602

> <r_i_glide_lipo>
-3.37980445070786

> <r_i_glide_hbond>
-0.16

> <r_i_glide_metal>
0

> <r_i_glide_rewards>
-2.16906982499828

> <r_i_glide_evdw>
-29.8897743225098

> <r_i_glide_ecoul>
-5.71329736709595

> <r_i_glide_erotb>
0

> <r_i_glide_esite>
0

> <r_i_glide_emodel>
-51.5307076241675

> <r_i_glide_energy>
-35.6030716896057

> <r_i_glide_einternal>
3.61021423339844

> <i_i_glide_confnum>
1

> <i_i_glide_posenum>
2

> <r_i_glide_eff_state_penalty>
0

> <s_user_duplicate_titles>
127434

> <s_m_subgroup_title>
dock_pv

> <s_m_subgroupid>
dock_pv1

> <b_m_subgroup_collapsed>
0

$$$$
308613
                    3D
 Schrodinger Suite 2021-1.
 30 32  0  0  1  0            999 V2000
   28.7871    1.3826   26.9393 C   0  0  0  0  0  0
   29.9875    0.8952   27.7321 C   0  0  0  0  0  0
   30.1798    1.3299   29.0497 C   0  0  0  0  0  0
   31.2640    0.8999   29.8180 C   0  0  0  0  0  0
   32.2077    0.0084   29.3091 C   0  0  0  0  0  0
   32.0523   -0.4489   27.9934 C   0  0  0  0  0  0
   30.9533    0.0058   27.2285 C   0  0  0  0  0  0
   30.9811   -0.5389   25.9731 O   0  0  0  0  0  0
   32.0848   -1.3470   25.9168 C   0  0  0  0  0  0
   32.7613   -1.3349   27.1321 C   0  0  0  0  0  0
   32.3356   -2.0868   24.6423 C   0  0  0  0  0  0
   33.2387   -3.1504   24.6320 C   0  0  0  0  0  0
   33.4220   -3.8950   23.4721 C   0  0  0  0  0  0
   32.7061   -3.6103   22.3230 C   0  0  0  0  0  0
   31.8220   -2.5426   22.3139 C   0  0  0  0  0  0
   31.6550   -1.7658   23.4651 C   0  0  0  0  0  0
   32.8861   -4.3965   21.2167 O   0  0  0  0  0  0
   31.4087    1.3555   31.0978 O   0  0  0  0  0  0
   29.0903    1.6631   25.9313 H   0  0  0  0  0  0
   28.0474    0.5875   26.8493 H   0  0  0  0  0  0
   28.3178    2.2560   27.3953 H   0  0  0  0  0  0
   29.4697    2.0136   29.4914 H   0  0  0  0  0  0
   33.0417   -0.3270   29.9069 H   0  0  0  0  0  0
   33.6580   -1.8894   27.3577 H   0  0  0  0  0  0
   33.7710   -3.4347   25.5259 H   0  0  0  0  0  0
   34.0600   -4.7558   23.4913 H   0  0  0  0  0  0
   31.2661   -2.3353   21.4132 H   0  0  0  0  0  0
   30.9521   -0.9458   23.4654 H   0  0  0  0  0  0
   32.0870   -4.7552   20.7997 H   0  0  0  0  0  0
   32.2101    1.0320   31.5122 H   0  0  0  0  0  0
  1  2  1  0  0  0
  1 19  1  0  0  0
  1 20  1  0  0  0
  1 21  1  0  0  0
  2  7  1  0  0  0
  2  3  2  0  0  0
  3  4  1  0  0  0
  3 22  1  0  0  0
  4  5  2  0  0  0
  4 18  1  0  0  0
  5  6  1  0  0  0
  5 23  1  0  0  0
  6 10  1  0  0  0
  6  7  2  0  0  0
  7  8  1  0  0  0
  8  9  1  0  0  0
  9 10  2  0  0  0
  9 11  1  0  0  0
 10 24  1  0  0  0
 11 16  1  0  0  0
 11 12  2  0  0  0
 12 13  1  0  0  0
 12 25  1  0  0  0
 13 14  2  0  0  0
 13 26  1  0  0  0
 14 15  1  0  0  0
 14 17  1  0  0  0
 15 16  2  0  0  0
 15 27  1  0  0  0
 16 28  1  0  0  0
 17 29  1  0  0  0
 18 30  1  0  0  0
M  END
> <s_m_entry_id>
17528

> <s_m_entry_name>
ligand_docking-pose.455

> <s_m_Source_Path>
/home/csk/Desktop/cluster/DUD-E-result/esr1

> <s_m_Source_File>
ligand_docking-pose.sdf

> <i_m_Source_File_Index>
455

> <i_lp_mmshare_version>
53161

> <i_f3d_flags>
0

> <r_lp_tautomer_probability>
0.999999999997365

> <s_lp_Force_Field>
OPLS_2005

> <r_lp_Energy>
8.561937

> <b_lp_Chiralities_Consistent>
1

> <s_lp_Variant>
308613-1

> <s_i_glide_gridfile>
glide-grid_1sj0

> <i_i_glide_lignum>
967

> <i_i_glide_rotatable_bonds>
3

> <r_i_docking_score>
-8.05488571652058

> <r_i_glide_ligand_efficiency>
-0.44749365091781

> <r_i_glide_ligand_efficiency_sa>
-1.17276513347606

> <r_i_glide_ligand_efficiency_ln>
-2.07046683910653

> <r_i_glide_gscore>
-8.05488571652058

> <r_i_glide_lipo>
-3.85249745896403

> <r_i_glide_hbond>
-0.16

> <r_i_glide_metal>
0

> <r_i_glide_rewards>
-2.53142406287354

> <r_i_glide_evdw>
-27.5292472839355

> <r_i_glide_ecoul>
-2.89470434188843

> <r_i_glide_erotb>
0.29970382079703

> <r_i_glide_esite>
0

> <r_i_glide_emodel>
-43.9172416732437

> <r_i_glide_energy>
-30.423951625824

> <r_i_glide_einternal>
3.36117219924927

> <i_i_glide_confnum>
1

> <i_i_glide_posenum>
124

> <r_i_glide_eff_state_penalty>
0

> <s_user_duplicate_titles>
308613

> <s_m_subgroup_title>
dock_pv

> <s_m_subgroupid>
dock_pv1

> <b_m_subgroup_collapsed>
0

$$$$
364628
                    3D
 Schrodinger Suite 2021-1.
 45 47  0  0  1  0            999 V2000
   27.7252   -1.9771   26.2610 C   0  0  0  0  0  0
   27.0499   -0.6837   26.6650 C   0  0  0  0  0  0
   27.6644    0.5167   26.6643 C   0  0  0  0  0  0
   29.1077    0.8032   26.2650 C   0  0  0  0  0  0
   30.1016    0.5279   27.3974 C   0  0  0  0  0  0
   30.0333    1.2778   28.5764 C   0  0  0  0  0  0
   30.8907    1.0360   29.6352 C   0  0  0  0  0  0
   31.8045   -0.0033   29.5647 C   0  0  0  0  0  0
   31.8886   -0.7988   28.4053 C   0  0  0  0  0  0
   31.0783   -0.4761   27.2981 C   0  0  0  0  0  0
   31.1784   -1.1633   26.0945 O   0  0  0  0  0  0
   32.4603   -1.7672   25.8310 C   0  0  1  0  0  0
   32.7345   -2.7410   26.9947 C   0  0  0  0  0  0
   32.8495   -1.9288   28.2813 C   0  0  0  0  0  0
   33.6602   -2.1846   29.1631 O   0  0  0  0  0  0
   32.5405   -2.4311   24.4516 C   0  0  0  0  0  0
   33.5819   -3.3130   24.1430 C   0  0  0  0  0  0
   33.6603   -3.8795   22.8755 C   0  0  0  0  0  0
   32.7185   -3.5961   21.9068 C   0  0  0  0  0  0
   31.6722   -2.7397   22.2056 C   0  0  0  0  0  0
   31.6063   -2.1285   23.4601 C   0  0  0  0  0  0
   32.8595   -4.1420   20.6582 O   0  0  0  0  0  0
   32.5956   -0.2082   30.6643 O   0  0  0  0  0  0
   29.1034    2.2579   28.7238 O   0  0  0  0  0  0
   25.5997   -0.8427   27.0757 C   0  0  0  0  0  0
   33.2091   -0.9776   25.7845 H   0  0  0  0  0  0
   27.1659   -2.4712   25.4661 H   0  0  0  0  0  0
   27.7991   -2.6565   27.1105 H   0  0  0  0  0  0
   28.7297   -1.7906   25.8914 H   0  0  0  0  0  0
   27.0917    1.3791   26.9754 H   0  0  0  0  0  0
   29.3576    0.2579   25.3549 H   0  0  0  0  0  0
   29.1772    1.8544   25.9887 H   0  0  0  0  0  0
   30.8232    1.6335   30.5328 H   0  0  0  0  0  0
   31.8746   -3.4071   27.0627 H   0  0  0  0  0  0
   33.6590   -3.2895   26.8395 H   0  0  0  0  0  0
   34.3468   -3.5559   24.8642 H   0  0  0  0  0  0
   34.4572   -4.5501   22.6207 H   0  0  0  0  0  0
   30.9248   -2.5461   21.4523 H   0  0  0  0  0  0
   30.7977   -1.4422   23.6653 H   0  0  0  0  0  0
   32.1490   -4.7582   20.4056 H   0  0  0  0  0  0
   33.2078   -0.9375   30.5101 H   0  0  0  0  0  0
   28.4951    2.2625   27.9841 H   0  0  0  0  0  0
   25.0154   -1.2531   26.2513 H   0  0  0  0  0  0
   25.5222   -1.5161   27.9304 H   0  0  0  0  0  0
   25.1509    0.1097   27.3535 H   0  0  0  0  0  0
  1  2  1  0  0  0
  1 27  1  0  0  0
  1 28  1  0  0  0
  1 29  1  0  0  0
  2  3  2  3  0  0
  2 25  1  0  0  0
  3  4  1  0  0  0
  3 30  1  0  0  0
  4  5  1  0  0  0
  4 31  1  0  0  0
  4 32  1  0  0  0
  5 10  1  0  0  0
  5  6  2  0  0  0
  6  7  1  0  0  0
  6 24  1  0  0  0
  7  8  2  0  0  0
  7 33  1  0  0  0
  8  9  1  0  0  0
  8 23  1  0  0  0
  9 14  1  0  0  0
  9 10  2  0  0  0
 10 11  1  0  0  0
 11 12  1  0  0  0
 12 26  1  0  0  0
 12 13  1  0  0  0
 12 16  1  0  0  0
 13 14  1  0  0  0
 13 34  1  0  0  0
 13 35  1  0  0  0
 14 15  2  0  0  0
 16 21  1  0  0  0
 16 17  2  0  0  0
 17 18  1  0  0  0
 17 36  1  0  0  0
 18 19  2  0  0  0
 18 37  1  0  0  0
 19 20  1  0  0  0
 19 22  1  0  0  0
 20 21  2  0  0  0
 20 38  1  0  0  0
 21 39  1  0  0  0
 22 40  1  0  0  0
 23 41  1  0  0  0
 24 42  1  0  0  0
 25 43  1  0  0  0
 25 44  1  0  0  0
 25 45  1  0  0  0
M  END
> <s_m_entry_id>
17529

> <s_m_entry_name>
ligand_docking-pose.456

> <s_m_Source_Path>
/home/csk/Desktop/cluster/DUD-E-result/esr1

> <s_m_Source_File>
ligand_docking-pose.sdf

> <i_m_Source_File_Index>
456

> <i_lp_mmshare_version>
53161

> <i_f3d_flags>
0

> <r_lp_tautomer_probability>
0.999949999997365

> <s_lp_Force_Field>
OPLS_2005

> <r_lp_Energy>
27.911735

> <b_lp_Chiralities_Consistent>
1

> <s_lp_Variant>
364628-1

> <s_i_glide_gridfile>
glide-grid_1sj0

> <i_i_glide_lignum>
1379

> <i_i_glide_rotatable_bonds>
6

> <r_i_docking_score>
-8.05082045097462

> <r_i_glide_ligand_efficiency>
-0.322032818038985

> <r_i_glide_ligand_efficiency_sa>
-0.941629671222338

> <r_i_glide_ligand_efficiency_ln>
-1.90828571050112

> <r_i_glide_gscore>
-8.05082045097462

> <r_i_glide_lipo>
-3.92887388158706

> <r_i_glide_hbond>
-0.16

> <r_i_glide_metal>
0

> <r_i_glide_rewards>
-2.01071736513923

> <r_i_glide_evdw>
-37.049446105957

> <r_i_glide_ecoul>
-3.9274742603302

> <r_i_glide_erotb>
0.490364240099055

> <r_i_glide_esite>
0

> <r_i_glide_emodel>
-51.5147714557647

> <r_i_glide_energy>
-40.9769203662872

> <r_i_glide_einternal>
7.82221698760986

> <i_i_glide_confnum>
19

> <i_i_glide_posenum>
34

> <r_i_glide_eff_state_penalty>
0

> <s_user_duplicate_titles>
364628

> <s_m_subgroup_title>
dock_pv

> <s_m_subgroupid>
dock_pv1

> <b_m_subgroup_collapsed>
0

$$$$
63839
                    3D
 Schrodinger Suite 2021-1.
 50 53  0  0  1  0            999 V2000
   31.6417   -0.4461   30.8622 C   0  0  0  0  0  0
   31.9514    0.1814   29.4589 C   0  0  2  0  0  0
   30.7769    1.1980   29.1420 C   0  0  0  0  0  0
   30.2430    1.2869   27.6915 C   0  0  1  0  0  0
   30.2427   -0.0695   26.9899 C   0  0  2  0  0  0
   29.2027   -1.1046   27.4465 C   0  0  0  0  0  0
   28.0094   -0.7382   28.0909 C   0  0  0  0  0  0
   26.9312   -1.5901   28.1742 C   0  0  0  0  0  0
   27.1002   -2.9014   27.7927 C   0  0  0  0  0  0
   28.3384   -3.3412   27.3441 C   0  0  0  0  0  0
   29.4090   -2.4617   27.1278 C   0  0  0  0  0  0
   30.7874   -2.9422   26.5980 C   0  0  0  0  0  0
   31.6424   -1.8300   26.0025 C   0  0  0  0  0  0
   31.6512   -0.6528   26.9799 C   0  0  2  0  0  0
   32.1385   -0.9709   28.4228 C   0  0  1  0  0  0
   33.6182   -1.3907   28.4498 C   0  0  0  0  0  0
   34.3495   -0.3679   29.2996 C   0  0  0  0  0  0
   33.3857    0.8181   29.4479 C   0  0  1  0  0  0
   33.6186    1.7798   28.3361 C   0  0  0  0  0  0
   33.7738    2.4879   27.3533 C   0  0  0  0  0  0
   33.6607    1.4580   30.6643 O   0  0  0  0  0  0
   26.0386   -3.7416   27.8640 O   0  0  0  0  0  0
   28.9836    1.9613   27.6757 O   0  0  0  0  0  0
   28.1587    1.8581   26.5056 C   0  0  0  0  0  0
   31.2970    0.3090   31.5718 H   0  0  0  0  0  0
   30.8601   -1.1999   30.8051 H   0  0  0  0  0  0
   32.5059   -0.9383   31.3078 H   0  0  0  0  0  0
   29.9008    0.8108   29.6589 H   0  0  0  0  0  0
   30.9891    2.1722   29.5817 H   0  0  0  0  0  0
   30.9078    1.9308   27.1255 H   0  0  0  0  0  0
   29.9954    0.1392   25.9473 H   0  0  0  0  0  0
   27.8282    0.2505   28.4551 H   0  0  0  0  0  0
   25.9887   -1.2455   28.5736 H   0  0  0  0  0  0
   28.4437   -4.3825   27.1030 H   0  0  0  0  0  0
   31.3478   -3.3420   27.4305 H   0  0  0  0  0  0
   30.7783   -3.7411   25.8630 H   0  0  0  0  0  0
   32.6497   -2.2205   25.8556 H   0  0  0  0  0  0
   31.2616   -1.5413   25.0203 H   0  0  0  0  0  0
   32.3202    0.0888   26.5429 H   0  0  0  0  0  0
   31.5509   -1.8033   28.7999 H   0  0  0  0  0  0
   33.7481   -2.4061   28.8280 H   0  0  0  0  0  0
   34.0487   -1.3419   27.4561 H   0  0  0  0  0  0
   34.5377   -0.8209   30.2622 H   0  0  0  0  0  0
   35.3333   -0.1081   28.9003 H   0  0  0  0  0  0
   33.8705    3.0468   26.4538 H   0  0  0  0  0  0
   34.5669    1.7729   30.6259 H   0  0  0  0  0  0
   25.5356   -3.7407   27.0237 H   0  0  0  0  0  0
   27.2619    2.4398   26.6648 H   0  0  0  0  0  0
   28.6427    2.2413   25.6249 H   0  0  0  0  0  0
   27.8096    0.8649   26.2450 H   0  0  0  0  0  0
  1  2  1  0  0  0
  1 25  1  0  0  0
  1 26  1  0  0  0
  1 27  1  0  0  0
  2 15  1  0  0  0
  2 18  1  0  0  0
  2  3  1  0  0  0
  3  4  1  0  0  0
  3 28  1  0  0  0
  3 29  1  0  0  0
  4  5  1  0  0  0
  4 23  1  0  0  0
  4 30  1  0  0  0
  5 14  1  0  0  0
  5  6  1  0  0  0
  5 31  1  0  0  0
  6 11  2  0  0  0
  6  7  1  0  0  0
  7  8  2  0  0  0
  7 32  1  0  0  0
  8  9  1  0  0  0
  8 33  1  0  0  0
  9 10  2  0  0  0
  9 22  1  0  0  0
 10 11  1  0  0  0
 10 34  1  0  0  0
 11 12  1  0  0  0
 12 13  1  0  0  0
 12 35  1  0  0  0
 12 36  1  0  0  0
 13 14  1  0  0  0
 13 37  1  0  0  0
 13 38  1  0  0  0
 14 15  1  0  0  0
 14 39  1  0  0  0
 15 16  1  0  0  0
 15 40  1  0  0  0
 16 17  1  0  0  0
 16 41  1  0  0  0
 16 42  1  0  0  0
 17 18  1  0  0  0
 17 43  1  0  0  0
 17 44  1  0  0  0
 18 19  1  0  0  0
 18 21  1  0  0  0
 19 20  3  0  0  0
 20 45  1  0  0  0
 21 46  1  0  0  0
 22 47  1  0  0  0
 23 24  1  0  0  0
 24 48  1  0  0  0
 24 49  1  0  0  0
 24 50  1  0  0  0
M  END
> <s_m_entry_id>
17530

> <s_m_entry_name>
ligand_docking-pose.457

> <s_m_Source_Path>
/home/csk/Desktop/cluster/DUD-E-result/esr1

> <s_m_Source_File>
ligand_docking-pose.sdf

> <i_m_Source_File_Index>
457

> <i_lp_mmshare_version>
53161

> <i_f3d_flags>
0

> <r_lp_tautomer_probability>
0.999999999997365

> <s_lp_Force_Field>
OPLS_2005

> <r_lp_Energy>
53.269136

> <b_lp_Chiralities_Consistent>
1

> <s_lp_Variant>
63839-1

> <s_i_glide_gridfile>
glide-grid_1sj0

> <i_i_glide_lignum>
707

> <i_i_glide_rotatable_bonds>
4

> <r_i_docking_score>
-8.05075668231441

> <r_i_glide_ligand_efficiency>
-0.335448195096434

> <r_i_glide_ligand_efficiency_sa>
-0.967600029451426

> <r_i_glide_ligand_efficiency_ln>
-1.92691549922992

> <r_i_glide_gscore>
-8.05075668231441

> <r_i_glide_lipo>
-4.35448870431938

> <r_i_glide_hbond>
-0.16

> <r_i_glide_metal>
0

> <r_i_glide_rewards>
-2.08343631818182

> <r_i_glide_evdw>
-15.3347244262695

> <r_i_glide_ecoul>
-5.74734926223755

> <r_i_glide_erotb>
0.176006950835905

> <r_i_glide_esite>
0

> <r_i_glide_emodel>
-15.7453209751942

> <r_i_glide_energy>
-21.0820736885071

> <r_i_glide_einternal>
20.5736217498779

> <i_i_glide_confnum>
1

> <i_i_glide_posenum>
45

> <r_i_glide_eff_state_penalty>
0

> <s_user_duplicate_titles>
63839

> <s_m_subgroup_title>
dock_pv

> <s_m_subgroupid>
dock_pv1

> <b_m_subgroup_collapsed>
0

$$$$
120985
                    3D
 Schrodinger Suite 2021-1.
 32 34  0  0  1  0            999 V2000
   29.2635   -1.0474   26.3926 C   0  0  0  0  0  0
   30.5412   -0.2371   26.1083 C   0  0  2  0  0  0
   31.8039   -1.1636   26.0253 C   0  0  0  0  0  0
   32.5478   -1.2512   27.0656 N   0  0  0  0  0  0
   32.2576   -0.5490   28.2316 C   0  0  0  0  0  0
   32.9753   -0.8640   29.3846 C   0  0  0  0  0  0
   32.7388   -0.1440   30.5548 C   0  0  0  0  0  0
   31.8276    0.9060   30.5663 C   0  0  0  0  0  0
   31.1128    1.2377   29.4136 C   0  0  0  0  0  0
   31.3324    0.4991   28.2530 C   0  0  0  0  0  0
   30.6491    0.8237   27.0969 O   0  0  0  0  0  0
   31.6576    1.6016   31.7247 O   0  0  0  0  0  0
   32.1106   -1.9439   24.7985 C   0  0  0  0  0  0
   31.4263   -1.7480   23.5871 C   0  0  0  0  0  0
   31.6606   -2.6003   22.4992 C   0  0  0  0  0  0
   32.6236   -3.5961   22.5851 C   0  0  0  0  0  0
   33.3525   -3.7420   23.7519 C   0  0  0  0  0  0
   33.0954   -2.9418   24.8538 C   0  0  0  0  0  0
   32.8598   -4.4603   21.5467 O   0  0  0  0  0  0
   29.0389   -1.7419   25.5851 H   0  0  0  0  0  0
   29.3477   -1.6233   27.3159 H   0  0  0  0  0  0
   28.4029   -0.3863   26.5004 H   0  0  0  0  0  0
   30.4080    0.2580   25.1524 H   0  0  0  0  0  0
   33.7029   -1.6635   29.3807 H   0  0  0  0  0  0
   33.2598   -0.3960   31.4636 H   0  0  0  0  0  0
   30.4020    2.0492   29.4050 H   0  0  0  0  0  0
   31.0035    2.2980   31.6460 H   0  0  0  0  0  0
   30.6552   -1.0026   23.4791 H   0  0  0  0  0  0
   31.0806   -2.5333   21.5914 H   0  0  0  0  0  0
   34.0600   -4.5443   23.8313 H   0  0  0  0  0  0
   33.6539   -3.1347   25.7584 H   0  0  0  0  0  0
   32.1036   -4.6952   20.9908 H   0  0  0  0  0  0
  1  2  1  0  0  0
  1 20  1  0  0  0
  1 21  1  0  0  0
  1 22  1  0  0  0
  2 11  1  0  0  0
  2  3  1  0  0  0
  2 23  1  0  0  0
  3  4  2  0  0  0
  3 13  1  0  0  0
  4  5  1  0  0  0
  5 10  2  0  0  0
  5  6  1  0  0  0
  6  7  2  0  0  0
  6 24  1  0  0  0
  7  8  1  0  0  0
  7 25  1  0  0  0
  8  9  2  0  0  0
  8 12  1  0  0  0
  9 10  1  0  0  0
  9 26  1  0  0  0
 10 11  1  0  0  0
 12 27  1  0  0  0
 13 18  1  0  0  0
 13 14  2  0  0  0
 14 15  1  0  0  0
 14 28  1  0  0  0
 15 16  2  0  0  0
 15 29  1  0  0  0
 16 17  1  0  0  0
 16 19  1  0  0  0
 17 18  2  0  0  0
 17 30  1  0  0  0
 18 31  1  0  0  0
 19 32  1  0  0  0
M  END
> <s_m_entry_id>
17531

> <s_m_entry_name>
ligand_docking-pose.458

> <s_m_Source_Path>
/home/csk/Desktop/cluster/DUD-E-result/esr1

> <s_m_Source_File>
ligand_docking-pose.sdf

> <i_m_Source_File_Index>
458

> <i_lp_mmshare_version>
53161

> <i_f3d_flags>
0

> <r_lp_tautomer_probability>
0.999601159137504

> <s_lp_Force_Field>
OPLS_2005

> <r_lp_Energy>
20.791086

> <b_lp_Chiralities_Consistent>
1

> <s_lp_Variant>
120985-1

> <s_i_glide_gridfile>
glide-grid_1sj0

> <i_i_glide_lignum>
1051

> <i_i_glide_rotatable_bonds>
3

> <r_i_docking_score>
-8.0474491211968

> <r_i_glide_ligand_efficiency>
-0.4235499537472

> <r_i_glide_ligand_efficiency_sa>
-1.13020139378586

> <r_i_glide_ligand_efficiency_ln>
-2.0402011955823

> <r_i_glide_gscore>
-8.0474491211968

> <r_i_glide_lipo>
-3.65702403266415

> <r_i_glide_hbond>
-0.132903641716732

> <r_i_glide_metal>
0

> <r_i_glide_rewards>
-2.60318066776543

> <r_i_glide_evdw>
-30.3493690490723

> <r_i_glide_ecoul>
-2.71351051330566

> <r_i_glide_erotb>
0.270154250398971

> <r_i_glide_esite>
0

> <r_i_glide_emodel>
-47.2696462083478

> <r_i_glide_energy>
-33.0628795623779

> <r_i_glide_einternal>
1.65209567546844

> <i_i_glide_confnum>
4

> <i_i_glide_posenum>
145

> <r_i_glide_eff_state_penalty>
0

> <s_user_duplicate_titles>
120985

> <s_m_subgroup_title>
dock_pv

> <s_m_subgroupid>
dock_pv1

> <b_m_subgroup_collapsed>
0

$$$$
562798
                    3D
 Schrodinger Suite 2021-1.
 33 34  0  0  1  0            999 V2000
   33.1729   -0.0567   28.3095 C   0  0  0  0  0  0
   31.8505   -0.4058   27.5931 C   0  0  2  0  0  0
   30.8202   -1.0057   28.5765 C   0  0  0  0  0  0
   29.4066   -1.1048   28.0148 C   0  0  0  0  0  0
   28.6259    0.0498   27.9163 C   0  0  0  0  0  0
   27.3131   -0.0353   27.4640 C   0  0  0  0  0  0
   26.7918   -1.2715   27.0925 C   0  0  0  0  0  0
   27.5719   -2.4238   27.1605 C   0  0  0  0  0  0
   28.8825   -2.3414   27.6267 C   0  0  0  0  0  0
   25.4973   -1.3420   26.6640 O   0  0  0  0  0  0
   32.0696   -1.2979   26.3679 C   0  0  0  0  0  0
   31.5050   -0.9482   25.1365 C   0  0  0  0  0  0
   31.7265   -1.7430   24.0131 C   0  0  0  0  0  0
   32.5080   -2.8907   24.1244 C   0  0  0  0  0  0
   33.0608   -3.2514   25.3487 C   0  0  0  0  0  0
   32.8341   -2.4642   26.4721 C   0  0  0  0  0  0
   32.7364   -3.6836   23.0322 O   0  0  0  0  0  0
   33.9071    0.3464   27.6114 H   0  0  0  0  0  0
   33.0134    0.6989   29.0800 H   0  0  0  0  0  0
   33.6194   -0.9244   28.7960 H   0  0  0  0  0  0
   31.4561    0.5496   27.2416 H   0  0  0  0  0  0
   31.1527   -1.9825   28.9322 H   0  0  0  0  0  0
   30.7718   -0.3894   29.4752 H   0  0  0  0  0  0
   29.0263    1.0083   28.2111 H   0  0  0  0  0  0
   26.6985    0.8516   27.4035 H   0  0  0  0  0  0
   27.1624   -3.3789   26.8624 H   0  0  0  0  0  0
   29.4837   -3.2374   27.6861 H   0  0  0  0  0  0
   25.2598   -2.2108   26.2796 H   0  0  0  0  0  0
   30.8943   -0.0626   25.0520 H   0  0  0  0  0  0
   31.2919   -1.4679   23.0642 H   0  0  0  0  0  0
   33.6629   -4.1420   25.4257 H   0  0  0  0  0  0
   33.2599   -2.7612   27.4190 H   0  0  0  0  0  0
   32.2527   -3.4205   22.2458 H   0  0  0  0  0  0
  1  2  1  0  0  0
  1 18  1  0  0  0
  1 19  1  0  0  0
  1 20  1  0  0  0
  2  3  1  0  0  0
  2 11  1  0  0  0
  2 21  1  0  0  0
  3  4  1  0  0  0
  3 22  1  0  0  0
  3 23  1  0  0  0
  4  9  1  0  0  0
  4  5  2  0  0  0
  5  6  1  0  0  0
  5 24  1  0  0  0
  6  7  2  0  0  0
  6 25  1  0  0  0
  7  8  1  0  0  0
  7 10  1  0  0  0
  8  9  2  0  0  0
  8 26  1  0  0  0
  9 27  1  0  0  0
 10 28  1  0  0  0
 11 16  1  0  0  0
 11 12  2  0  0  0
 12 13  1  0  0  0
 12 29  1  0  0  0
 13 14  2  0  0  0
 13 30  1  0  0  0
 14 15  1  0  0  0
 14 17  1  0  0  0
 15 16  2  0  0  0
 15 31  1  0  0  0
 16 32  1  0  0  0
 17 33  1  0  0  0
M  END
> <s_m_entry_id>
17532

> <s_m_entry_name>
ligand_docking-pose.459

> <s_m_Source_Path>
/home/csk/Desktop/cluster/DUD-E-result/esr1

> <s_m_Source_File>
ligand_docking-pose.sdf

> <i_m_Source_File_Index>
459

> <i_lp_mmshare_version>
53161

> <i_f3d_flags>
0

> <r_lp_tautomer_probability>
0.99999999999473

> <s_lp_Force_Field>
OPLS_2005

> <r_lp_Energy>
8.834537

> <b_lp_Chiralities_Consistent>
1

> <s_lp_Variant>
562798-1

> <s_i_glide_gridfile>
glide-grid_1sj0

> <i_i_glide_lignum>
1275

> <i_i_glide_rotatable_bonds>
5

> <r_i_docking_score>
-8.03724484135884

> <r_i_glide_ligand_efficiency>
-0.472779108315226

> <r_i_glide_ligand_efficiency_sa>
-1.21564821651069

> <r_i_glide_ligand_efficiency_ln>
-2.09673819846772

> <r_i_glide_gscore>
-8.03724484135884

> <r_i_glide_lipo>
-3.76642960948204

> <r_i_glide_hbond>
-0.16

> <r_i_glide_metal>
0

> <r_i_glide_rewards>
-2.46857275760547

> <r_i_glide_evdw>
-30.7204055786133

> <r_i_glide_ecoul>
-5.28494215011597

> <r_i_glide_erotb>
0.686519127176735

> <r_i_glide_esite>
0

> <r_i_glide_emodel>
-54.8059786769289

> <r_i_glide_energy>
-36.0053477287292

> <r_i_glide_einternal>
0.80552738904953

> <i_i_glide_confnum>
2

> <i_i_glide_posenum>
223

> <r_i_glide_eff_state_penalty>
0

> <s_user_duplicate_titles>
562798

> <s_m_subgroup_title>
dock_pv

> <s_m_subgroupid>
dock_pv1

> <b_m_subgroup_collapsed>
0

$$$$
323055
                    3D
 Schrodinger Suite 2021-1.
 33 35  0  0  1  0            999 V2000
   29.3348   -0.1974   28.0626 C   0  0  0  0  0  0
   30.7741    0.0730   28.4936 C   0  0  0  0  0  0
   30.9661    0.7023   29.7289 C   0  0  0  0  0  0
   32.2464    0.9003   30.2324 C   0  0  0  0  0  0
   33.3545    0.5224   29.4888 C   0  0  0  0  0  0
   33.1760   -0.0729   28.2452 C   0  0  0  0  0  0
   31.8941   -0.3240   27.7234 C   0  0  0  0  0  0
   31.7962   -0.9795   26.3802 C   0  0  0  0  0  0
   30.8740   -0.5451   25.4256 C   0  0  0  0  0  0
   30.7972   -1.1225   24.1655 C   0  0  0  0  0  0
   31.6946   -2.1380   23.7760 C   0  0  0  0  0  0
   31.6601   -2.7479   22.4884 C   0  0  0  0  0  0
   32.6604   -3.6280   22.1051 C   0  0  0  0  0  0
   33.6600   -3.9636   22.9979 C   0  0  0  0  0  0
   33.6601   -3.4754   24.3005 C   0  0  0  0  0  0
   32.6831   -2.5503   24.7137 C   0  0  0  0  0  0
   32.6787   -2.0051   26.0203 C   0  0  0  0  0  0
   32.7005   -4.1420   20.8382 O   0  0  0  0  0  0
   32.4170    1.4579   31.4640 O   0  0  0  0  0  0
   29.2521   -1.1513   27.5428 H   0  0  0  0  0  0
   28.6601   -0.2676   28.9144 H   0  0  0  0  0  0
   28.9655    0.5985   27.4172 H   0  0  0  0  0  0
   30.1213    1.0286   30.3187 H   0  0  0  0  0  0
   34.3554    0.6844   29.8633 H   0  0  0  0  0  0
   34.0588   -0.3406   27.6843 H   0  0  0  0  0  0
   30.2018    0.2682   25.6443 H   0  0  0  0  0  0
   30.0602   -0.7706   23.4640 H   0  0  0  0  0  0
   30.8694   -2.5346   21.7881 H   0  0  0  0  0  0
   34.4560   -4.6103   22.6632 H   0  0  0  0  0  0
   34.4382   -3.7712   24.9872 H   0  0  0  0  0  0
   33.4161   -2.3571   26.7270 H   0  0  0  0  0  0
   31.9944   -4.7766   20.6199 H   0  0  0  0  0  0
   33.3441    1.5505   31.6891 H   0  0  0  0  0  0
  1  2  1  0  0  0
  1 20  1  0  0  0
  1 21  1  0  0  0
  1 22  1  0  0  0
  2  7  1  0  0  0
  2  3  2  0  0  0
  3  4  1  0  0  0
  3 23  1  0  0  0
  4  5  2  0  0  0
  4 19  1  0  0  0
  5  6  1  0  0  0
  5 24  1  0  0  0
  6  7  2  0  0  0
  6 25  1  0  0  0
  7  8  1  0  0  0
  8 17  1  0  0  0
  8  9  2  0  0  0
  9 10  1  0  0  0
  9 26  1  0  0  0
 10 11  2  0  0  0
 10 27  1  0  0  0
 11 16  1  0  0  0
 11 12  1  0  0  0
 12 13  2  0  0  0
 12 28  1  0  0  0
 13 14  1  0  0  0
 13 18  1  0  0  0
 14 15  2  0  0  0
 14 29  1  0  0  0
 15 16  1  0  0  0
 15 30  1  0  0  0
 16 17  2  0  0  0
 17 31  1  0  0  0
 18 32  1  0  0  0
 19 33  1  0  0  0
M  END
> <s_m_entry_id>
17533

> <s_m_entry_name>
ligand_docking-pose.460

> <s_m_Source_Path>
/home/csk/Desktop/cluster/DUD-E-result/esr1

> <s_m_Source_File>
ligand_docking-pose.sdf

> <i_m_Source_File_Index>
460

> <i_lp_mmshare_version>
53161

> <i_f3d_flags>
0

> <r_lp_tautomer_probability>
0.999999999997365

> <s_lp_Force_Field>
OPLS_2005

> <r_lp_Energy>
16.97596

> <b_lp_Chiralities_Consistent>
1

> <s_lp_Variant>
323055-1

> <s_i_glide_gridfile>
glide-grid_1sj0

> <i_i_glide_lignum>
985

> <i_i_glide_rotatable_bonds>
3

> <r_i_docking_score>
-8.03489209420906

> <r_i_glide_ligand_efficiency>
-0.422889057589951

> <r_i_glide_ligand_efficiency_sa>
-1.12843785739196

> <r_i_glide_ligand_efficiency_ln>
-2.0370177195407

> <r_i_glide_gscore>
-8.03489209420906

> <r_i_glide_lipo>
-3.98568923544853

> <r_i_glide_hbond>
-0.16

> <r_i_glide_metal>
0

> <r_i_glide_rewards>
-2.3237233676593

> <r_i_glide_evdw>
-26.7582530975342

> <r_i_glide_ecoul>
-3.38004875183105

> <r_i_glide_erotb>
0.27944047655014

> <r_i_glide_esite>
0

> <r_i_glide_emodel>
-41.4513841969069

> <r_i_glide_energy>
-30.1383018493652

> <r_i_glide_einternal>
5.28214645385742

> <i_i_glide_confnum>
4

> <i_i_glide_posenum>
302

> <r_i_glide_eff_state_penalty>
0

> <s_user_duplicate_titles>
323055

> <s_m_subgroup_title>
dock_pv

> <s_m_subgroupid>
dock_pv1

> <b_m_subgroup_collapsed>
0

$$$$
338957
                    3D
 Schrodinger Suite 2021-1.
 40 41  0  0  1  0            999 V2000
   34.1514    1.1029   29.6553 C   0  0  0  0  0  0
   34.3407    1.1731   28.1302 C   0  0  0  0  0  0
   33.0429    1.2694   27.2983 C   0  0  0  0  0  0
   32.0884    0.1820   27.5395 N   0  0  0  0  0  0
   32.0940   -0.9001   26.6423 C   0  0  0  0  0  0
   31.6045   -0.6949   25.3472 C   0  0  0  0  0  0
   31.6603   -1.7069   24.3922 C   0  0  0  0  0  0
   32.2076   -2.9421   24.7250 C   0  0  0  0  0  0
   32.6756   -3.1698   26.0171 C   0  0  0  0  0  0
   32.6177   -2.1585   26.9772 C   0  0  0  0  0  0
   33.2752   -2.5424   28.7189 Br  0  0  0  0  0  0
   30.8929    0.3296   28.8607 S   0  0  0  0  0  0
   31.2604   -0.6244   29.9115 O   0  0  0  0  0  0
   30.7581    1.7579   29.1726 O   0  0  0  0  0  0
   29.3327   -0.2063   28.1742 C   0  0  0  0  0  0
   28.4845    0.7298   27.5879 C   0  0  0  0  0  0
   27.2509    0.3224   27.0965 C   0  0  0  0  0  0
   26.8578   -1.0135   27.1634 C   0  0  0  0  0  0
   27.7055   -1.9668   27.7484 C   0  0  0  0  0  0
   28.9535   -1.5524   28.2413 C   0  0  0  0  0  0
   27.2627   -3.4251   27.8706 C   0  0  0  0  0  0
   28.0629   -4.1423   28.6525 F   0  0  0  0  0  0
   26.0352   -3.4999   28.3863 F   0  0  0  0  0  0
   27.2616   -3.9806   26.6659 F   0  0  0  0  0  0
   25.6234   -1.3410   26.6620 O   0  0  0  0  0  0
   35.0920    1.3066   30.1646 H   0  0  0  0  0  0
   33.4258    1.8353   30.0101 H   0  0  0  0  0  0
   33.8137    0.1180   29.9740 H   0  0  0  0  0  0
   34.9116    0.2978   27.8209 H   0  0  0  0  0  0
   34.9718    2.0287   27.8858 H   0  0  0  0  0  0
   33.2955    1.3515   26.2399 H   0  0  0  0  0  0
   32.5400    2.1884   27.5960 H   0  0  0  0  0  0
   31.1803    0.2564   25.0728 H   0  0  0  0  0  0
   31.2831   -1.5342   23.3951 H   0  0  0  0  0  0
   32.2554   -3.7280   23.9845 H   0  0  0  0  0  0
   33.0842   -4.1361   26.2740 H   0  0  0  0  0  0
   28.7660    1.7720   27.5320 H   0  0  0  0  0  0
   26.5851    1.0543   26.6658 H   0  0  0  0  0  0
   29.6252   -2.2686   28.6943 H   0  0  0  0  0  0
   25.4663   -2.2699   26.4111 H   0  0  0  0  0  0
  1  2  1  0  0  0
  1 26  1  0  0  0
  1 27  1  0  0  0
  1 28  1  0  0  0
  2  3  1  0  0  0
  2 29  1  0  0  0
  2 30  1  0  0  0
  3  4  1  0  0  0
  3 31  1  0  0  0
  3 32  1  0  0  0
  4  5  1  0  0  0
  4 12  1  0  0  0
  5 10  1  0  0  0
  5  6  2  0  0  0
  6  7  1  0  0  0
  6 33  1  0  0  0
  7  8  2  0  0  0
  7 34  1  0  0  0
  8  9  1  0  0  0
  8 35  1  0  0  0
  9 10  2  0  0  0
  9 36  1  0  0  0
 10 11  1  0  0  0
 12 13  2  0  0  0
 12 14  2  0  0  0
 12 15  1  0  0  0
 15 20  1  0  0  0
 15 16  2  0  0  0
 16 17  1  0  0  0
 16 37  1  0  0  0
 17 18  2  0  0  0
 17 38  1  0  0  0
 18 19  1  0  0  0
 18 25  1  0  0  0
 19 20  2  0  0  0
 19 21  1  0  0  0
 20 39  1  0  0  0
 21 22  1  0  0  0
 21 23  1  0  0  0
 21 24  1  0  0  0
 25 40  1  0  0  0
M  END
> <s_m_entry_id>
17534

> <s_m_entry_name>
ligand_docking-pose.461

> <s_m_Source_Path>
/home/csk/Desktop/cluster/DUD-E-result/esr1

> <s_m_Source_File>
ligand_docking-pose.sdf

> <i_m_Source_File_Index>
461

> <i_lp_mmshare_version>
53161

> <i_f3d_flags>
0

> <r_lp_tautomer_probability>
0.999999999997365

> <s_lp_Force_Field>
OPLS_2005

> <r_lp_Energy>
10.803928

> <b_lp_Chiralities_Consistent>
1

> <s_lp_Variant>
338957-1

> <s_i_glide_gridfile>
glide-grid_1sj0

> <i_i_glide_lignum>
1525

> <i_i_glide_rotatable_bonds>
7

> <r_i_docking_score>
-8.03419977630757

> <r_i_glide_ligand_efficiency>
-0.321367991052303

> <r_i_glide_ligand_efficiency_sa>
-0.939685705322523

> <r_i_glide_ligand_efficiency_ln>
-1.9043461125236

> <r_i_glide_gscore>
-8.03419977630757

> <r_i_glide_lipo>
-4.17336338716898

> <r_i_glide_hbond>
-0.16

> <r_i_glide_metal>
0

> <r_i_glide_rewards>
-1.29134369923629

> <r_i_glide_evdw>
-42.9551315307617

> <r_i_glide_ecoul>
-3.9729642868042

> <r_i_glide_erotb>
0.415433389422252

> <r_i_glide_esite>
-0.0812248597658274

> <r_i_glide_emodel>
-65.0595108482186

> <r_i_glide_energy>
-46.9280958175659

> <r_i_glide_einternal>
4.63079833984375

> <i_i_glide_confnum>
3

> <i_i_glide_posenum>
80

> <r_i_glide_eff_state_penalty>
0

> <s_user_duplicate_titles>
338957

> <s_m_subgroup_title>
dock_pv

> <s_m_subgroupid>
dock_pv1

> <b_m_subgroup_collapsed>
0

$$$$
120953
                    3D
 Schrodinger Suite 2021-1.
 33 35  0  0  1  0            999 V2000
   29.1952   -1.0123   26.3248 C   0  0  0  0  0  0
   30.4945   -0.2328   26.0506 C   0  0  2  0  0  0
   31.7345   -1.1890   25.9905 C   0  0  0  0  0  0
   32.4442   -1.2984   27.0468 N   0  0  0  0  0  0
   32.1524   -0.5910   28.2138 C   0  0  0  0  0  0
   32.8265   -0.9189   29.3952 C   0  0  0  0  0  0
   32.6434   -0.1420   30.5364 C   0  0  0  0  0  0
   31.7915    0.9565   30.5020 C   0  0  0  0  0  0
   31.0935    1.2817   29.3397 C   0  0  0  0  0  0
   31.2797    0.5002   28.2031 C   0  0  0  0  0  0
   30.6197    0.8315   27.0357 O   0  0  0  0  0  0
   31.6600    1.7118   31.6249 O   0  0  0  0  0  0
   33.6615   -1.9999   29.4640 O   0  0  0  0  0  0
   32.0712   -1.9659   24.7709 C   0  0  0  0  0  0
   33.0773   -2.9420   24.8302 C   0  0  0  0  0  0
   33.3499   -3.7420   23.7305 C   0  0  0  0  0  0
   32.6263   -3.6053   22.5584 C   0  0  0  0  0  0
   31.6600   -2.6154   22.4633 C   0  0  0  0  0  0
   31.3940   -1.7828   23.5575 C   0  0  0  0  0  0
   32.8600   -4.4752   21.5247 O   0  0  0  0  0  0
   28.9770   -1.7269   25.5329 H   0  0  0  0  0  0
   29.2479   -1.5640   27.2645 H   0  0  0  0  0  0
   28.3446   -0.3336   26.3938 H   0  0  0  0  0  0
   30.3857    0.2580   25.0897 H   0  0  0  0  0  0
   33.1700   -0.3894   31.4456 H   0  0  0  0  0  0
   30.4298    2.1320   29.3134 H   0  0  0  0  0  0
   32.2131    1.3865   32.3358 H   0  0  0  0  0  0
   34.2573   -1.9609   30.2163 H   0  0  0  0  0  0
   33.6326   -3.1263   25.7391 H   0  0  0  0  0  0
   34.0600   -4.5420   23.8166 H   0  0  0  0  0  0
   31.0863   -2.5420   21.5517 H   0  0  0  0  0  0
   30.6044   -1.0556   23.4640 H   0  0  0  0  0  0
   32.1033   -4.7110   20.9693 H   0  0  0  0  0  0
  1  2  1  0  0  0
  1 21  1  0  0  0
  1 22  1  0  0  0
  1 23  1  0  0  0
  2 11  1  0  0  0
  2  3  1  0  0  0
  2 24  1  0  0  0
  3  4  2  0  0  0
  3 14  1  0  0  0
  4  5  1  0  0  0
  5 10  2  0  0  0
  5  6  1  0  0  0
  6  7  2  0  0  0
  6 13  1  0  0  0
  7  8  1  0  0  0
  7 25  1  0  0  0
  8  9  2  0  0  0
  8 12  1  0  0  0
  9 10  1  0  0  0
  9 26  1  0  0  0
 10 11  1  0  0  0
 12 27  1  0  0  0
 13 28  1  0  0  0
 14 19  1  0  0  0
 14 15  2  0  0  0
 15 16  1  0  0  0
 15 29  1  0  0  0
 16 17  2  0  0  0
 16 30  1  0  0  0
 17 18  1  0  0  0
 17 20  1  0  0  0
 18 19  2  0  0  0
 18 31  1  0  0  0
 19 32  1  0  0  0
 20 33  1  0  0  0
M  END
> <s_m_entry_id>
17535

> <s_m_entry_name>
ligand_docking-pose.462

> <s_m_Source_Path>
/home/csk/Desktop/cluster/DUD-E-result/esr1

> <s_m_Source_File>
ligand_docking-pose.sdf

> <i_m_Source_File_Index>
462

> <i_lp_mmshare_version>
53161

> <i_f3d_flags>
0

> <r_lp_tautomer_probability>
0.999601159137504

> <s_lp_Force_Field>
OPLS_2005

> <r_lp_Energy>
21.867033

> <b_lp_Chiralities_Consistent>
1

> <s_lp_Variant>
120953-1

> <s_i_glide_gridfile>
glide-grid_1sj0

> <i_i_glide_lignum>
1053

> <i_i_glide_rotatable_bonds>
4

> <r_i_docking_score>
-8.03413968616198

> <r_i_glide_ligand_efficiency>
-0.401706984308099

> <r_i_glide_ligand_efficiency_sa>
-1.09040051382627

> <r_i_glide_ligand_efficiency_ln>
-2.01068017978493

> <r_i_glide_gscore>
-8.03413968616198

> <r_i_glide_lipo>
-3.62960179144823

> <r_i_glide_hbond>
-0.142008859037696

> <r_i_glide_metal>
0

> <r_i_glide_rewards>
-2.51004696839283

> <r_i_glide_evdw>
-30.7483310699463

> <r_i_glide_ecoul>
-3.05553793907166

> <r_i_glide_erotb>
0.243265177074849

> <r_i_glide_esite>
0

> <r_i_glide_emodel>
-47.6993276031048

> <r_i_glide_energy>
-33.8038690090179

> <r_i_glide_einternal>
3.53256249427795

> <i_i_glide_confnum>
1

> <i_i_glide_posenum>
202

> <r_i_glide_eff_state_penalty>
0

> <s_user_duplicate_titles>
120953

> <s_m_subgroup_title>
dock_pv

> <s_m_subgroupid>
dock_pv1

> <b_m_subgroup_collapsed>
0

$$$$
357682
                    3D
 Schrodinger Suite 2021-1.
 40 43  0  0  1  0            999 V2000
   33.3528   -2.5277   23.4605 C   0  0  0  0  0  0
   31.8797   -2.0822   23.4966 C   0  0  0  0  0  0
   31.3941   -1.4160   24.8105 C   0  0  0  0  0  0
   32.2016   -1.7934   26.0725 C   0  0  0  0  0  0
   31.6284   -1.4113   27.4724 C   0  0  1  0  0  0
   32.7901   -1.2450   28.5045 C   0  0  0  0  0  0
   33.6165    0.0516   28.3054 C   0  0  0  0  0  0
   32.7497    1.2842   27.9912 C   0  0  0  0  0  0
   33.2495    2.3976   27.8625 O   0  0  0  0  0  0
   31.3134    1.0632   27.8263 C   0  0  0  0  0  0
   30.7807   -0.1327   27.5182 C   0  0  0  0  0  0
   29.3546   -0.5087   27.3879 C   0  0  0  0  0  0
   28.1926    0.2370   27.1466 C   0  0  0  0  0  0
   26.9181   -0.3324   27.2348 C   0  0  0  0  0  0
   26.8623   -1.6752   27.6153 C   0  0  0  0  0  0
   28.0215   -2.4454   27.8373 C   0  0  0  0  0  0
   29.2709   -1.8569   27.6788 C   0  0  0  0  0  0
   30.6044   -2.4339   27.9551 C   0  0  0  0  0  0
   27.6813   -3.7007   28.2419 N   0  0  0  0  0  0
   26.3108   -3.7415   28.2640 N   0  0  0  0  0  0
   25.8365   -2.5539   27.8644 N   0  0  0  0  0  0
   30.0603    2.3616   28.6009 Br  0  0  0  0  0  0
   24.8601   -2.4521   27.6473 H   0  0  0  0  0  0
   33.6721   -2.7462   22.4414 H   0  0  0  0  0  0
   33.5106   -3.4320   24.0491 H   0  0  0  0  0  0
   34.0054   -1.7560   23.8643 H   0  0  0  0  0  0
   31.7054   -1.3978   22.6663 H   0  0  0  0  0  0
   31.2601   -2.9483   23.2767 H   0  0  0  0  0  0
   31.4238   -0.3324   24.6939 H   0  0  0  0  0  0
   30.3439   -1.6665   24.9535 H   0  0  0  0  0  0
   32.4004   -2.8665   26.0641 H   0  0  0  0  0  0
   33.1836   -1.3417   25.9607 H   0  0  0  0  0  0
   32.3916   -1.2225   29.5207 H   0  0  0  0  0  0
   33.4495   -2.1137   28.4739 H   0  0  0  0  0  0
   34.2921   -0.0717   27.4642 H   0  0  0  0  0  0
   34.2158    0.2643   29.1910 H   0  0  0  0  0  0
   28.2578    1.2837   26.8894 H   0  0  0  0  0  0
   26.0278    0.2531   27.0641 H   0  0  0  0  0  0
   30.7153   -3.3915   27.4633 H   0  0  0  0  0  0
   30.6556   -2.5421   29.0384 H   0  0  0  0  0  0
  1  2  1  0  0  0
  1 24  1  0  0  0
  1 25  1  0  0  0
  1 26  1  0  0  0
  2  3  1  0  0  0
  2 27  1  0  0  0
  2 28  1  0  0  0
  3  4  1  0  0  0
  3 29  1  0  0  0
  3 30  1  0  0  0
  4  5  1  0  0  0
  4 31  1  0  0  0
  4 32  1  0  0  0
  5 11  1  0  0  0
  5 18  1  0  0  0
  5  6  1  0  0  0
  6  7  1  0  0  0
  6 33  1  0  0  0
  6 34  1  0  0  0
  7  8  1  0  0  0
  7 35  1  0  0  0
  7 36  1  0  0  0
  8  9  2  0  0  0
  8 10  1  0  0  0
 10 11  2  0  0  0
 10 22  1  0  0  0
 11 12  1  0  0  0
 12 17  1  0  0  0
 12 13  2  0  0  0
 13 14  1  0  0  0
 13 37  1  0  0  0
 14 15  2  0  0  0
 14 38  1  0  0  0
 15 21  1  0  0  0
 15 16  1  0  0  0
 16 17  2  0  0  0
 16 19  1  0  0  0
 17 18  1  0  0  0
 18 39  1  0  0  0
 18 40  1  0  0  0
 19 20  2  0  0  0
 20 21  1  0  0  0
 21 23  1  0  0  0
M  END
> <s_m_entry_id>
17536

> <s_m_entry_name>
ligand_docking-pose.463

> <s_m_Source_Path>
/home/csk/Desktop/cluster/DUD-E-result/esr1

> <s_m_Source_File>
ligand_docking-pose.sdf

> <i_m_Source_File_Index>
463

> <i_lp_mmshare_version>
53161

> <i_f3d_flags>
0

> <r_lp_tautomer_probability>
0.25

> <s_lp_Force_Field>
OPLS_2005

> <r_lp_Energy>
46.149477

> <b_lp_Chiralities_Consistent>
1

> <s_lp_Variant>
357682-2

> <s_i_glide_gridfile>
glide-grid_1sj0

> <i_i_glide_lignum>
1309

> <i_i_glide_rotatable_bonds>
3

> <r_i_docking_score>
-8.03240774447502

> <r_i_glide_ligand_efficiency>
-0.365109442930683

> <r_i_glide_ligand_efficiency_sa>
-1.02305101803135

> <r_i_glide_ligand_efficiency_ln>
-1.963413441941

> <r_i_glide_gscore>
-8.03240774447502

> <r_i_glide_lipo>
-4.03196383428907

> <r_i_glide_hbond>
-0.00229817345377235

> <r_i_glide_metal>
0

> <r_i_glide_rewards>
-2.1364799810411

> <r_i_glide_evdw>
-32.0691604614258

> <r_i_glide_ecoul>
-1.97083926200867

> <r_i_glide_erotb>
0.147765112328367

> <r_i_glide_esite>
-0.110346955646852

> <r_i_glide_emodel>
-42.1205467910869

> <r_i_glide_energy>
-34.0399997234344

> <r_i_glide_einternal>
8.32319736480713

> <i_i_glide_confnum>
1

> <i_i_glide_posenum>
5

> <r_i_glide_eff_state_penalty>
0

> <s_user_duplicate_titles>
357682,357202

> <s_m_subgroup_title>
dock_pv

> <s_m_subgroupid>
dock_pv1

> <b_m_subgroup_collapsed>
0

$$$$
223847
                    3D
 Schrodinger Suite 2021-1.
 37 40  0  0  1  0            999 V2000
   32.8023    1.1054   27.8536 C   0  0  0  0  0  0
   31.7507    0.0981   28.4224 C   0  0  2  0  0  0
   32.3959   -1.2617   28.7989 C   0  0  0  0  0  0
   33.1343   -1.8924   27.5893 C   0  0  0  0  0  0
   32.3013   -1.7587   26.3007 C   0  0  0  0  0  0
   32.5852   -2.3729   25.0369 C   0  0  0  0  0  0
   33.6189   -3.2455   24.6641 C   0  0  0  0  0  0
   33.6621   -3.7422   23.3615 C   0  0  0  0  0  0
   32.7157   -3.4219   22.4106 C   0  0  0  0  0  0
   31.6913   -2.5478   22.7297 C   0  0  0  0  0  0
   31.6387   -2.0203   24.0329 C   0  0  0  0  0  0
   30.4224   -0.9419   24.6647 S   0  0  0  0  0  0
   31.1628   -0.9568   26.2349 C   0  0  0  0  0  0
   30.5968   -0.2473   27.4597 C   0  0  2  0  0  0
   29.7262    1.0113   27.3926 C   0  0  0  0  0  0
   29.8177    1.5801   28.8276 C   0  0  0  0  0  0
   30.9442    0.7842   29.5421 C   0  0  2  0  0  0
   31.6591    1.4595   30.5552 O   0  0  0  0  0  0
   32.8111   -3.9884   21.1659 O   0  0  0  0  0  0
   29.9638   -1.0193   27.9072 H   0  0  0  0  0  0
   30.4606   -0.0268   30.0770 H   0  0  0  0  0  0
   33.6344    1.2331   28.5464 H   0  0  0  0  0  0
   33.2216    0.7897   26.8990 H   0  0  0  0  0  0
   32.3757    2.0948   27.6900 H   0  0  0  0  0  0
   33.1135   -1.1208   29.6090 H   0  0  0  0  0  0
   31.6481   -1.9551   29.1896 H   0  0  0  0  0  0
   34.0600   -1.3424   27.4639 H   0  0  0  0  0  0
   33.3910   -2.9306   27.8030 H   0  0  0  0  0  0
   34.3675   -3.5367   25.3789 H   0  0  0  0  0  0
   34.4427   -4.4172   23.0582 H   0  0  0  0  0  0
   30.9362   -2.3361   21.9955 H   0  0  0  0  0  0
   30.1227    1.7182   26.6641 H   0  0  0  0  0  0
   28.7015    0.7868   27.0919 H   0  0  0  0  0  0
   30.0657    2.6418   28.7724 H   0  0  0  0  0  0
   28.8652    1.5036   29.3586 H   0  0  0  0  0  0
   32.1961    0.8185   31.0267 H   0  0  0  0  0  0
   31.9992   -4.3672   20.8049 H   0  0  0  0  0  0
  1  2  1  0  0  0
  1 22  1  0  0  0
  1 23  1  0  0  0
  1 24  1  0  0  0
  2 14  1  0  0  0
  2 17  1  0  0  0
  2  3  1  0  0  0
  3  4  1  0  0  0
  3 25  1  0  0  0
  3 26  1  0  0  0
  4  5  1  0  0  0
  4 27  1  0  0  0
  4 28  1  0  0  0
  5 13  2  0  0  0
  5  6  1  0  0  0
  6 11  2  0  0  0
  6  7  1  0  0  0
  7  8  2  0  0  0
  7 29  1  0  0  0
  8  9  1  0  0  0
  8 30  1  0  0  0
  9 10  2  0  0  0
  9 19  1  0  0  0
 10 11  1  0  0  0
 10 31  1  0  0  0
 11 12  1  0  0  0
 12 13  1  0  0  0
 13 14  1  0  0  0
 14 20  1  0  0  0
 14 15  1  0  0  0
 15 16  1  0  0  0
 15 32  1  0  0  0
 15 33  1  0  0  0
 16 17  1  0  0  0
 16 34  1  0  0  0
 16 35  1  0  0  0
 17 21  1  0  0  0
 17 18  1  0  0  0
 18 36  1  0  0  0
 19 37  1  0  0  0
M  END
> <s_m_entry_id>
17538

> <s_m_entry_name>
ligand_docking-pose.465

> <s_m_Source_Path>
/home/csk/Desktop/cluster/DUD-E-result/esr1

> <s_m_Source_File>
ligand_docking-pose.sdf

> <i_m_Source_File_Index>
465

> <i_lp_mmshare_version>
53161

> <i_f3d_flags>
0

> <r_lp_tautomer_probability>
1

> <s_lp_Force_Field>
OPLS_2005

> <r_lp_Energy>
37.680058

> <b_lp_Chiralities_Consistent>
1

> <s_lp_Variant>
223847-1

> <s_i_glide_gridfile>
glide-grid_1sj0

> <i_i_glide_lignum>
760

> <i_i_glide_rotatable_bonds>
2

> <r_i_docking_score>
-8.02115182024475

> <r_i_glide_ligand_efficiency>
-0.42216588527604

> <r_i_glide_ligand_efficiency_sa>
-1.1265081431991

> <r_i_glide_ligand_efficiency_ln>
-2.03353426497672

> <r_i_glide_gscore>
-8.02115182024475

> <r_i_glide_lipo>
-4.34894773723148

> <r_i_glide_hbond>
-0.0834513263455086

> <r_i_glide_metal>
0

> <r_i_glide_rewards>
-2.21843383724752

> <r_i_glide_evdw>
-24.2954139709473

> <r_i_glide_ecoul>
-1.03698813915253

> <r_i_glide_erotb>
0

> <r_i_glide_esite>
0

> <r_i_glide_emodel>
-33.5361557400288

> <r_i_glide_energy>
-25.3324021100998

> <r_i_glide_einternal>
1.78966212272644

> <i_i_glide_confnum>
1

> <i_i_glide_posenum>
56

> <r_i_glide_eff_state_penalty>
0

> <s_user_duplicate_titles>
223847

> <s_m_subgroup_title>
dock_pv

> <s_m_subgroupid>
dock_pv1

> <b_m_subgroup_collapsed>
0

$$$$
373391
                    3D
 Schrodinger Suite 2021-1.
 31 33  0  0  1  0            999 V2000
   28.1546    1.2202   27.1559 C   0  0  0  0  0  0
   29.4677    0.5928   27.1758 N   0  0  0  0  0  0
   30.4272    0.5935   28.1708 C   0  0  0  0  0  0
   30.4609    1.1681   29.4470 C   0  0  0  0  0  0
   31.6197    0.9694   30.1951 C   0  0  0  0  0  0
   32.7169    0.2866   29.6851 C   0  0  0  0  0  0
   32.6876   -0.2706   28.4097 C   0  0  0  0  0  0
   31.5121   -0.1592   27.6449 C   0  0  0  0  0  0
   31.0472   -0.6290   26.3665 C   0  0  0  0  0  0
   29.8497   -0.1427   26.1184 N   0  0  0  0  0  0
   31.7265   -1.5495   25.3881 C   0  0  0  0  0  0
   31.4677   -1.3629   24.0219 C   0  0  0  0  0  0
   32.0608   -2.1778   23.0598 C   0  0  0  0  0  0
   32.9712   -3.1546   23.4415 C   0  0  0  0  0  0
   33.2587   -3.3423   24.7869 C   0  0  0  0  0  0
   32.6186   -2.5756   25.7580 C   0  0  0  0  0  0
   32.8463   -2.9173   27.0637 O   0  0  0  0  0  0
   33.5671   -3.9493   22.5031 O   0  0  0  0  0  0
   31.6802    1.4584   31.4658 O   0  0  0  0  0  0
   28.0344    1.8694   28.0231 H   0  0  0  0  0  0
   28.0474    1.8231   26.2507 H   0  0  0  0  0  0
   27.3837    0.4502   27.1714 H   0  0  0  0  0  0
   29.6239    1.7214   29.8457 H   0  0  0  0  0  0
   33.6065    0.1790   30.2895 H   0  0  0  0  0  0
   33.5552   -0.7885   28.0329 H   0  0  0  0  0  0
   30.7847   -0.5906   23.6981 H   0  0  0  0  0  0
   31.8230   -2.0522   22.0153 H   0  0  0  0  0  0
   33.9456   -4.1280   25.0662 H   0  0  0  0  0  0
   33.3866   -3.7019   27.1461 H   0  0  0  0  0  0
   33.1645   -3.8810   21.6345 H   0  0  0  0  0  0
   30.8767    1.9129   31.7231 H   0  0  0  0  0  0
  1  2  1  0  0  0
  1 20  1  0  0  0
  1 21  1  0  0  0
  1 22  1  0  0  0
  2 10  1  0  0  0
  2  3  1  0  0  0
  3  8  2  0  0  0
  3  4  1  0  0  0
  4  5  2  0  0  0
  4 23  1  0  0  0
  5  6  1  0  0  0
  5 19  1  0  0  0
  6  7  2  0  0  0
  6 24  1  0  0  0
  7  8  1  0  0  0
  7 25  1  0  0  0
  8  9  1  0  0  0
  9 10  2  0  0  0
  9 11  1  0  0  0
 11 16  1  0  0  0
 11 12  2  0  0  0
 12 13  1  0  0  0
 12 26  1  0  0  0
 13 14  2  0  0  0
 13 27  1  0  0  0
 14 15  1  0  0  0
 14 18  1  0  0  0
 15 16  2  0  0  0
 15 28  1  0  0  0
 16 17  1  0  0  0
 17 29  1  0  0  0
 18 30  1  0  0  0
 19 31  1  0  0  0
M  END
> <s_m_entry_id>
17539

> <s_m_entry_name>
ligand_docking-pose.466

> <s_m_Source_Path>
/home/csk/Desktop/cluster/DUD-E-result/esr1

> <s_m_Source_File>
ligand_docking-pose.sdf

> <i_m_Source_File_Index>
466

> <i_lp_mmshare_version>
53161

> <i_f3d_flags>
0

> <r_lp_tautomer_probability>
0.999999999898

> <s_lp_Force_Field>
OPLS_2005

> <r_lp_Energy>
18.078521

> <b_lp_Chiralities_Consistent>
1

> <s_lp_Variant>
373391-1

> <s_i_glide_gridfile>
glide-grid_1sj0

> <i_i_glide_lignum>
1671

> <i_i_glide_rotatable_bonds>
4

> <r_i_docking_score>
-8.01492724721243

> <r_i_glide_ligand_efficiency>
-0.421838276169075

> <r_i_glide_ligand_efficiency_sa>
-1.1256339505188

> <r_i_glide_ligand_efficiency_ln>
-2.03195620202146

> <r_i_glide_gscore>
-8.01492724721243

> <r_i_glide_lipo>
-3.86096236144953

> <r_i_glide_hbond>
0

> <r_i_glide_metal>
0

> <r_i_glide_rewards>
-2.50754360813726

> <r_i_glide_evdw>
-37.5894317626953

> <r_i_glide_ecoul>
-0.235439494252205

> <r_i_glide_erotb>
0.268366234646958

> <r_i_glide_esite>
0

> <r_i_glide_emodel>
-54.1519707154055

> <r_i_glide_energy>
-37.8248712569475

> <r_i_glide_einternal>
2.56761264801025

> <i_i_glide_confnum>
3

> <i_i_glide_posenum>
383

> <r_i_glide_eff_state_penalty>
0

> <s_user_duplicate_titles>
373391

> <s_m_subgroup_title>
dock_pv

> <s_m_subgroupid>
dock_pv1

> <b_m_subgroup_collapsed>
0

$$$$
410172
                    3D
 Schrodinger Suite 2021-1.
 56 59  0  0  1  0            999 V2000
   34.2862   -3.1583   23.9550 C   0  0  0  0  0  0
   32.8760   -2.9470   23.3945 C   0  0  1  0  0  0
   32.4755   -4.0324   22.3574 C   0  0  0  0  0  0
   33.5543   -4.4246   21.3129 C   0  0  0  0  0  0
   33.8873   -3.3487   20.2863 C   0  0  0  0  0  0
   32.9882   -3.0804   19.2503 C   0  0  0  0  0  0
   33.3125   -2.1422   18.2711 C   0  0  0  0  0  0
   34.5319   -1.4697   18.3391 C   0  0  0  0  0  0
   35.4286   -1.7280   19.3719 C   0  0  0  0  0  0
   35.1108   -2.6750   20.3402 C   0  0  0  0  0  0
   34.8601   -0.5467   17.3857 O   0  0  0  0  0  0
   31.9578   -2.9456   24.5357 N   0  0  0  0  0  0
   31.8835   -1.9711   25.4537 C   0  0  0  0  0  0
   32.4596   -0.8952   25.3029 O   0  0  0  0  0  0
   31.1213   -2.2751   26.7544 C   0  0  0  0  0  0
   30.3063   -1.0869   27.2273 C   0  0  0  0  0  0
   28.8764   -0.9967   27.1969 C   0  0  0  0  0  0
   27.8497   -1.9070   26.8988 C   0  0  0  0  0  0
   26.5340   -1.4625   26.9045 C   0  0  0  0  0  0
   26.2295   -0.1404   27.1758 C   0  0  0  0  0  0
   27.2151    0.8059   27.4641 C   0  0  0  0  0  0
   28.5336    0.3499   27.5058 C   0  0  0  0  0  0
   29.7092    0.9930   27.8205 N   0  0  0  0  0  0
   30.7741    0.1309   27.7136 C   0  0  0  0  0  0
   32.1786    0.5472   27.9804 C   0  0  0  0  0  0
   32.7021    1.6649   27.3287 C   0  0  0  0  0  0
   34.0451    1.9883   27.4629 C   0  0  0  0  0  0
   34.8607    1.2007   28.2668 C   0  0  0  0  0  0
   34.3460    0.0988   28.9466 C   0  0  0  0  0  0
   33.0022   -0.2324   28.7982 C   0  0  0  0  0  0
   32.8307   -1.9735   22.8960 H   0  0  0  0  0  0
   29.8269    1.9531   28.1064 H   0  0  0  0  0  0
   35.0623   -2.9422   23.2235 H   0  0  0  0  0  0
   34.4579   -2.5435   24.8319 H   0  0  0  0  0  0
   34.3985   -4.1798   24.2994 H   0  0  0  0  0  0
   32.1993   -4.9426   22.8872 H   0  0  0  0  0  0
   31.5634   -3.7242   21.8447 H   0  0  0  0  0  0
   34.4626   -4.7578   21.8105 H   0  0  0  0  0  0
   33.2436   -5.3123   20.7602 H   0  0  0  0  0  0
   32.0508   -3.6139   19.1954 H   0  0  0  0  0  0
   32.6144   -1.9401   17.4719 H   0  0  0  0  0  0
   36.3743   -1.2073   19.4124 H   0  0  0  0  0  0
   35.8275   -2.8895   21.1167 H   0  0  0  0  0  0
   34.1908   -0.4691   16.7040 H   0  0  0  0  0  0
   31.3944   -3.7712   24.6693 H   0  0  0  0  0  0
   31.8673   -2.5538   27.4969 H   0  0  0  0  0  0
   30.4879   -3.1547   26.6268 H   0  0  0  0  0  0
   28.0671   -2.9387   26.6658 H   0  0  0  0  0  0
   25.7290   -2.1420   26.6698 H   0  0  0  0  0  0
   25.1966    0.1728   27.1339 H   0  0  0  0  0  0
   26.9541    1.8342   27.6729 H   0  0  0  0  0  0
   32.0886    2.2488   26.6654 H   0  0  0  0  0  0
   34.4595    2.8233   26.9214 H   0  0  0  0  0  0
   35.9082    1.4431   28.3362 H   0  0  0  0  0  0
   34.9932   -0.5090   29.5631 H   0  0  0  0  0  0
   32.6066   -1.1045   29.2963 H   0  0  0  0  0  0
  1  2  1  0  0  0
  1 33  1  0  0  0
  1 34  1  0  0  0
  1 35  1  0  0  0
  2 31  1  0  0  0
  2  3  1  0  0  0
  2 12  1  0  0  0
  3  4  1  0  0  0
  3 36  1  0  0  0
  3 37  1  0  0  0
  4  5  1  0  0  0
  4 38  1  0  0  0
  4 39  1  0  0  0
  5 10  1  0  0  0
  5  6  2  0  0  0
  6  7  1  0  0  0
  6 40  1  0  0  0
  7  8  2  0  0  0
  7 41  1  0  0  0
  8  9  1  0  0  0
  8 11  1  0  0  0
  9 10  2  0  0  0
  9 42  1  0  0  0
 10 43  1  0  0  0
 11 44  1  0  0  0
 12 13  1  0  0  0
 12 45  1  0  0  0
 13 14  2  0  0  0
 13 15  1  0  0  0
 15 16  1  0  0  0
 15 46  1  0  0  0
 15 47  1  0  0  0
 16 24  2  0  0  0
 16 17  1  0  0  0
 17 22  2  0  0  0
 17 18  1  0  0  0
 18 19  2  0  0  0
 18 48  1  0  0  0
 19 20  1  0  0  0
 19 49  1  0  0  0
 20 21  2  0  0  0
 20 50  1  0  0  0
 21 22  1  0  0  0
 21 51  1  0  0  0
 22 23  1  0  0  0
 23 32  1  0  0  0
 23 24  1  0  0  0
 24 25  1  0  0  0
 25 30  1  0  0  0
 25 26  2  0  0  0
 26 27  1  0  0  0
 26 52  1  0  0  0
 27 28  2  0  0  0
 27 53  1  0  0  0
 28 29  1  0  0  0
 28 54  1  0  0  0
 29 30  2  0  0  0
 29 55  1  0  0  0
 30 56  1  0  0  0
M  END
> <s_m_entry_id>
17540

> <s_m_entry_name>
ligand_docking-pose.467

> <s_m_Source_Path>
/home/csk/Desktop/cluster/DUD-E-result/esr1

> <s_m_Source_File>
ligand_docking-pose.sdf

> <i_m_Source_File_Index>
467

> <i_lp_mmshare_version>
53161

> <i_f3d_flags>
0

> <r_lp_tautomer_probability>
0.999999999997365

> <s_lp_Force_Field>
OPLS_2005

> <r_lp_Energy>
14.231706

> <b_lp_Chiralities_Consistent>
1

> <s_lp_Variant>
410172-1

> <s_i_glide_gridfile>
glide-grid_1sj0

> <i_i_glide_lignum>
1587

> <i_i_glide_rotatable_bonds>
9

> <r_i_docking_score>
-8.01244713675363

> <r_i_glide_ligand_efficiency>
-0.267081571225121

> <r_i_glide_ligand_efficiency_sa>
-0.82988453891106

> <r_i_glide_ligand_efficiency_ln>
-1.82051529207437

> <r_i_glide_gscore>
-8.01244713675363

> <r_i_glide_lipo>
-4.34213430748173

> <r_i_glide_hbond>
0

> <r_i_glide_metal>
0

> <r_i_glide_rewards>
-1.97229586898069

> <r_i_glide_evdw>
-46.5666465759277

> <r_i_glide_ecoul>
-2.37564992904663

> <r_i_glide_erotb>
0.986662857862175

> <r_i_glide_esite>
0

> <r_i_glide_emodel>
-66.4529413757702

> <r_i_glide_energy>
-48.9422965049744

> <r_i_glide_einternal>
7.25127983093262

> <i_i_glide_confnum>
6

> <i_i_glide_posenum>
2

> <r_i_glide_eff_state_penalty>
0

> <s_user_duplicate_titles>
410172

> <s_m_subgroup_title>
dock_pv

> <s_m_subgroupid>
dock_pv1

> <b_m_subgroup_collapsed>
0

$$$$
88112
                    3D
 Schrodinger Suite 2021-1.
 29 31  0  0  1  0            999 V2000
   33.0366   -2.9407   24.9649 C   0  0  0  0  0  0
   33.3549   -3.7419   23.8748 C   0  0  0  0  0  0
   32.7008   -3.5820   22.6645 C   0  0  0  0  0  0
   31.7663   -2.5682   22.5210 C   0  0  0  0  0  0
   31.4682   -1.7417   23.6051 C   0  0  0  0  0  0
   32.0684   -1.9289   24.8585 C   0  0  0  0  0  0
   31.6731   -1.0911   26.0444 C   0  0  0  0  0  0
   30.5424   -0.2605   26.0482 C   0  0  0  0  0  0
   30.2213    0.4788   27.1844 C   0  0  0  0  0  0
   31.0292    0.3620   28.3379 C   0  0  0  0  0  0
   30.7525    1.0561   29.5410 C   0  0  0  0  0  0
   31.5577    0.8476   30.6580 C   0  0  0  0  0  0
   32.6550    0.0003   30.5951 C   0  0  0  0  0  0
   32.9704   -0.6750   29.4197 C   0  0  0  0  0  0
   32.1550   -0.5126   28.2761 C   0  0  0  0  0  0
   32.4605   -1.2096   27.1495 N   0  0  0  0  0  0
   31.2602    1.4580   31.8413 O   0  0  0  0  0  0
   32.9698   -4.4460   21.6353 O   0  0  0  0  0  0
   33.5374   -3.1357   25.9018 H   0  0  0  0  0  0
   34.0600   -4.5421   23.9910 H   0  0  0  0  0  0
   31.2606   -2.4496   21.5751 H   0  0  0  0  0  0
   30.7309   -0.9699   23.4641 H   0  0  0  0  0  0
   29.8939   -0.1754   25.1908 H   0  0  0  0  0  0
   29.3541    1.1231   27.1962 H   0  0  0  0  0  0
   29.8958    1.7120   29.5889 H   0  0  0  0  0  0
   33.2602   -0.1430   31.4761 H   0  0  0  0  0  0
   33.8240   -1.3376   29.3817 H   0  0  0  0  0  0
   30.4968    2.0351   31.7798 H   0  0  0  0  0  0
   32.2336   -4.6477   21.0432 H   0  0  0  0  0  0
  1  6  1  0  0  0
  1  2  2  0  0  0
  1 19  1  0  0  0
  2  3  1  0  0  0
  2 20  1  0  0  0
  3  4  2  0  0  0
  3 18  1  0  0  0
  4  5  1  0  0  0
  4 21  1  0  0  0
  5  6  2  0  0  0
  5 22  1  0  0  0
  6  7  1  0  0  0
  7 16  1  0  0  0
  7  8  2  0  0  0
  8  9  1  0  0  0
  8 23  1  0  0  0
  9 10  2  0  0  0
  9 24  1  0  0  0
 10 15  1  0  0  0
 10 11  1  0  0  0
 11 12  2  0  0  0
 11 25  1  0  0  0
 12 13  1  0  0  0
 12 17  1  0  0  0
 13 14  2  0  0  0
 13 26  1  0  0  0
 14 15  1  0  0  0
 14 27  1  0  0  0
 15 16  2  0  0  0
 17 28  1  0  0  0
 18 29  1  0  0  0
M  END
> <s_m_entry_id>
17541

> <s_m_entry_name>
ligand_docking-pose.468

> <s_m_Source_Path>
/home/csk/Desktop/cluster/DUD-E-result/esr1

> <s_m_Source_File>
ligand_docking-pose.sdf

> <i_m_Source_File_Index>
468

> <i_lp_mmshare_version>
53161

> <i_f3d_flags>
0

> <r_lp_tautomer_probability>
0.999999999997365

> <s_lp_Force_Field>
OPLS_2005

> <r_lp_Energy>
13.126638

> <b_lp_Chiralities_Consistent>
1

> <s_lp_Variant>
88112-1

> <s_i_glide_gridfile>
glide-grid_1sj0

> <i_i_glide_lignum>
325

> <i_i_glide_rotatable_bonds>
3

> <r_i_docking_score>
-7.99916149430129

> <r_i_glide_ligand_efficiency>
-0.444397860794516

> <r_i_glide_ligand_efficiency_sa>
-1.16465186815998

> <r_i_glide_ligand_efficiency_ln>
-2.05614321512222

> <r_i_glide_gscore>
-7.99916149430129

> <r_i_glide_lipo>
-3.94667422711644

> <r_i_glide_hbond>
-0.0835260452624375

> <r_i_glide_metal>
0

> <r_i_glide_rewards>
-2.47623577213009

> <r_i_glide_evdw>
-29.4462223052979

> <r_i_glide_ecoul>
-2.17739272117615

> <r_i_glide_erotb>
0.306194573648988

> <r_i_glide_esite>
0

> <r_i_glide_emodel>
-45.6452933064354

> <r_i_glide_energy>
-31.623615026474

> <r_i_glide_einternal>
1.07986259460449

> <i_i_glide_confnum>
2

> <i_i_glide_posenum>
209

> <r_i_glide_eff_state_penalty>
0

> <s_user_duplicate_titles>
88112

> <s_m_subgroup_title>
dock_pv

> <s_m_subgroupid>
dock_pv1

> <b_m_subgroup_collapsed>
0

$$$$
338557
                    3D
 Schrodinger Suite 2021-1.
 65 67  0  0  1  0            999 V2000
   35.8525   -3.1962   19.9907 C   0  0  0  0  0  0
   34.4390   -3.1530   19.6243 N   0  0  0  0  0  0
   34.3009   -3.2571   18.1747 C   0  0  0  0  0  0
   33.6413   -4.2017   20.2801 C   0  0  0  0  0  0
   33.5851   -4.0872   21.8196 C   0  0  0  0  0  0
   33.1883   -2.7667   22.1750 O   0  0  0  0  0  0
   32.6547   -2.5309   23.4201 C   0  0  0  0  0  0
   32.9009   -3.3029   24.5606 C   0  0  0  0  0  0
   32.2713   -2.9775   25.7635 C   0  0  0  0  0  0
   31.3993   -1.8850   25.8278 C   0  0  0  0  0  0
   31.1790   -1.1098   24.6949 C   0  0  0  0  0  0
   31.8241   -1.4242   23.5159 C   0  0  0  0  0  0
   30.7335   -1.5309   27.0910 C   0  0  0  0  0  0
   31.3690   -0.7439   28.0114 C   0  0  0  0  0  0
   30.7731   -0.3534   29.3613 C   0  0  0  0  0  0
   29.6602    0.7181   29.3403 C   0  0  0  0  0  0
   29.9106    1.9763   28.4988 C   0  0  0  0  0  0
   29.1584    2.0277   27.1646 C   0  0  0  0  0  0
   29.2218    0.8706   26.4299 O   0  0  0  0  0  0
   32.6985   -0.1161   27.8216 C   0  0  0  0  0  0
   32.8594    0.9512   26.9319 C   0  0  0  0  0  0
   34.0207    1.7180   26.9536 C   0  0  0  0  0  0
   35.0340    1.3993   27.8526 C   0  0  0  0  0  0
   34.9040    0.3069   28.7067 C   0  0  0  0  0  0
   33.7425   -0.4536   28.6877 C   0  0  0  0  0  0
   29.3639   -2.1111   27.2853 C   0  0  0  0  0  0
   29.2070   -3.0747   28.2638 C   0  0  0  0  0  0
   27.9962   -3.6996   28.5202 C   0  0  0  0  0  0
   26.8653   -3.2526   27.8639 C   0  0  0  0  0  0
   26.9765   -2.3027   26.8501 C   0  0  0  0  0  0
   28.2275   -1.7737   26.5305 C   0  0  0  0  0  0
   25.6514   -3.7386   28.2640 O   0  0  0  0  0  0
   36.4006   -2.3938   19.4953 H   0  0  0  0  0  0
   35.9871   -3.0550   21.0630 H   0  0  0  0  0  0
   36.3133   -4.1425   19.7074 H   0  0  0  0  0  0
   34.8431   -2.4533   17.6748 H   0  0  0  0  0  0
   34.6809   -4.2094   17.8015 H   0  0  0  0  0  0
   33.2544   -3.1710   17.8791 H   0  0  0  0  0  0
   34.0117   -5.1903   20.0011 H   0  0  0  0  0  0
   32.6160   -4.1429   19.9090 H   0  0  0  0  0  0
   34.5478   -4.3309   22.2634 H   0  0  0  0  0  0
   32.8614   -4.8179   22.1889 H   0  0  0  0  0  0
   33.5771   -4.1421   24.5203 H   0  0  0  0  0  0
   32.4574   -3.5785   26.6415 H   0  0  0  0  0  0
   30.5250   -0.2546   24.7058 H   0  0  0  0  0  0
   31.6601   -0.7999   22.6640 H   0  0  0  0  0  0
   30.4599   -1.2641   29.8647 H   0  0  0  0  0  0
   31.5504    0.0139   30.0335 H   0  0  0  0  0  0
   28.7160    0.2568   29.0473 H   0  0  0  0  0  0
   29.5171    1.0581   30.3662 H   0  0  0  0  0  0
   29.5790    2.8454   29.0633 H   0  0  0  0  0  0
   30.9761    2.1481   28.3586 H   0  0  0  0  0  0
   28.0995    2.2582   27.2815 H   0  0  0  0  0  0
   29.6601    2.6580   26.4591 H   0  0  0  0  0  0
   30.0344    0.4136   26.6623 H   0  0  0  0  0  0
   32.0607    1.2281   26.2655 H   0  0  0  0  0  0
   34.1341    2.5548   26.2799 H   0  0  0  0  0  0
   35.9404    1.9884   27.8679 H   0  0  0  0  0  0
   35.6967    0.0599   29.3963 H   0  0  0  0  0  0
   33.6341   -1.2679   29.3902 H   0  0  0  0  0  0
   30.0597   -3.3401   28.8323 H   0  0  0  0  0  0
   27.9158   -4.4497   29.2912 H   0  0  0  0  0  0
   26.1037   -1.9866   26.2977 H   0  0  0  0  0  0
   28.2875   -1.1156   25.6808 H   0  0  0  0  0  0
   25.0318   -3.7304   27.5210 H   0  0  0  0  0  0
  1  2  1  0  0  0
  1 33  1  0  0  0
  1 34  1  0  0  0
  1 35  1  0  0  0
  2  3  1  0  0  0
  2  4  1  0  0  0
  3 36  1  0  0  0
  3 37  1  0  0  0
  3 38  1  0  0  0
  4  5  1  0  0  0
  4 39  1  0  0  0
  4 40  1  0  0  0
  5  6  1  0  0  0
  5 41  1  0  0  0
  5 42  1  0  0  0
  6  7  1  0  0  0
  7 12  1  0  0  0
  7  8  2  0  0  0
  8  9  1  0  0  0
  8 43  1  0  0  0
  9 10  2  0  0  0
  9 44  1  0  0  0
 10 11  1  0  0  0
 10 13  1  0  0  0
 11 12  2  0  0  0
 11 45  1  0  0  0
 12 46  1  0  0  0
 13 14  2  0  0  0
 13 26  1  0  0  0
 14 15  1  0  0  0
 14 20  1  0  0  0
 15 16  1  0  0  0
 15 47  1  0  0  0
 15 48  1  0  0  0
 16 17  1  0  0  0
 16 49  1  0  0  0
 16 50  1  0  0  0
 17 18  1  0  0  0
 17 51  1  0  0  0
 17 52  1  0  0  0
 18 19  1  0  0  0
 18 53  1  0  0  0
 18 54  1  0  0  0
 19 55  1  0  0  0
 20 25  1  0  0  0
 20 21  2  0  0  0
 21 22  1  0  0  0
 21 56  1  0  0  0
 22 23  2  0  0  0
 22 57  1  0  0  0
 23 24  1  0  0  0
 23 58  1  0  0  0
 24 25  2  0  0  0
 24 59  1  0  0  0
 25 60  1  0  0  0
 26 31  1  0  0  0
 26 27  2  0  0  0
 27 28  1  0  0  0
 27 61  1  0  0  0
 28 29  2  0  0  0
 28 62  1  0  0  0
 29 30  1  0  0  0
 29 32  1  0  0  0
 30 31  2  0  0  0
 30 63  1  0  0  0
 31 64  1  0  0  0
 32 65  1  0  0  0
M  END
> <s_m_entry_id>
17542

> <s_m_entry_name>
ligand_docking-pose.469

> <s_m_Source_Path>
/home/csk/Desktop/cluster/DUD-E-result/esr1

> <s_m_Source_File>
ligand_docking-pose.sdf

> <i_m_Source_File_Index>
469

> <i_lp_mmshare_version>
53161

> <i_f3d_flags>
0

> <r_lp_tautomer_probability>
1

> <s_lp_Force_Field>
OPLS_2005

> <r_lp_Energy>
38.051602

> <b_lp_Chiralities_Consistent>
1

> <s_lp_Variant>
338557-1

> <s_i_glide_gridfile>
glide-grid_1sj0

> <i_i_glide_lignum>
1724

> <i_i_glide_rotatable_bonds>
13

> <r_i_docking_score>
-7.99629452531188

> <r_i_glide_ligand_efficiency>
-0.249884203915996

> <r_i_glide_ligand_efficiency_sa>
-0.793332895416483

> <r_i_glide_ligand_efficiency_ln>
-1.79058831497374

> <r_i_glide_gscore>
-7.99629452531188

> <r_i_glide_lipo>
-5.2877317403001

> <r_i_glide_hbond>
-0.16

> <r_i_glide_metal>
0

> <r_i_glide_rewards>
-1.2957903998532

> <r_i_glide_evdw>
-35.0234985351562

> <r_i_glide_ecoul>
-3.79714369773865

> <r_i_glide_erotb>
1.06797409626003

> <r_i_glide_esite>
0

> <r_i_glide_emodel>
-42.8606177892886

> <r_i_glide_energy>
-38.8206422328949

> <r_i_glide_einternal>
17.4149837493896

> <i_i_glide_confnum>
15

> <i_i_glide_posenum>
3

> <r_i_glide_eff_state_penalty>
0

> <s_user_duplicate_titles>
338557

> <s_m_subgroup_title>
dock_pv

> <s_m_subgroupid>
dock_pv1

> <b_m_subgroup_collapsed>
0

$$$$
350763
                    3D
 Schrodinger Suite 2021-1.
 42 44  0  0  1  0            999 V2000
   27.2392   -3.4856   27.4007 C   0  0  0  0  0  0
   28.2957   -2.3875   27.5659 C   0  0  0  0  0  0
   29.6599   -2.9374   28.0163 C   0  0  0  0  0  0
   30.5797   -1.9470   28.7859 C   0  0  0  0  0  0
   31.5345   -1.0025   27.9735 C   0  0  2  0  0  0
   31.9322    0.2457   28.8061 C   0  0  0  0  0  0
   30.7251    1.1473   29.1656 C   0  0  0  0  0  0
   29.6522    1.2356   28.0612 C   0  0  0  0  0  0
   28.6125    1.8580   28.2663 O   0  0  0  0  0  0
   29.8643    0.4619   26.8162 C   0  0  0  0  0  0
   30.8387   -0.4859   26.7100 C   0  0  0  0  0  0
   31.3804   -1.2879   25.5725 C   0  0  0  0  0  0
   31.0436   -1.3420   24.2146 C   0  0  0  0  0  0
   31.7568   -2.1562   23.3337 C   0  0  0  0  0  0
   32.8158   -2.9303   23.7943 C   0  0  0  0  0  0
   33.1753   -2.8734   25.1352 C   0  0  0  0  0  0
   32.4560   -2.0641   26.0189 C   0  0  0  0  0  0
   32.7547   -1.7856   27.4581 C   0  0  0  0  0  0
   33.5072   -3.7412   22.9369 O   0  0  0  0  0  0
   28.8598    0.8076   25.7252 C   0  0  0  0  0  0
   26.2974   -3.0546   27.0655 H   0  0  0  0  0  0
   27.0459   -4.0053   28.3392 H   0  0  0  0  0  0
   27.5462   -4.2276   26.6636 H   0  0  0  0  0  0
   28.4072   -1.8856   26.6090 H   0  0  0  0  0  0
   27.9268   -1.6431   28.2713 H   0  0  0  0  0  0
   29.4545   -3.7865   28.6638 H   0  0  0  0  0  0
   30.1898   -3.3419   27.1572 H   0  0  0  0  0  0
   29.9554   -1.3753   29.4634 H   0  0  0  0  0  0
   31.1996   -2.5226   29.4638 H   0  0  0  0  0  0
   32.4373   -0.0639   29.7228 H   0  0  0  0  0  0
   32.6619    0.8447   28.2567 H   0  0  0  0  0  0
   31.0705    2.1575   29.3841 H   0  0  0  0  0  0
   30.2346    0.7597   30.0570 H   0  0  0  0  0  0
   30.2285   -0.7888   23.7918 H   0  0  0  0  0  0
   31.4742   -2.1948   22.2924 H   0  0  0  0  0  0
   34.0188   -3.4573   25.4661 H   0  0  0  0  0  0
   33.6596   -1.1815   27.5292 H   0  0  0  0  0  0
   32.9489   -2.6958   28.0257 H   0  0  0  0  0  0
   33.1054   -3.8037   22.0662 H   0  0  0  0  0  0
   28.5145    1.8425   25.7672 H   0  0  0  0  0  0
   29.2256    0.6435   24.7258 H   0  0  0  0  0  0
   27.9875    0.1751   25.8646 H   0  0  0  0  0  0
  1  2  1  0  0  0
  1 21  1  0  0  0
  1 22  1  0  0  0
  1 23  1  0  0  0
  2  3  1  0  0  0
  2 24  1  0  0  0
  2 25  1  0  0  0
  3  4  1  0  0  0
  3 26  1  0  0  0
  3 27  1  0  0  0
  4  5  1  0  0  0
  4 28  1  0  0  0
  4 29  1  0  0  0
  5 11  1  0  0  0
  5 18  1  0  0  0
  5  6  1  0  0  0
  6  7  1  0  0  0
  6 30  1  0  0  0
  6 31  1  0  0  0
  7  8  1  0  0  0
  7 32  1  0  0  0
  7 33  1  0  0  0
  8  9  2  0  0  0
  8 10  1  0  0  0
 10 11  2  0  0  0
 10 20  1  0  0  0
 11 12  1  0  0  0
 12 17  1  0  0  0
 12 13  2  0  0  0
 13 14  1  0  0  0
 13 34  1  0  0  0
 14 15  2  0  0  0
 14 35  1  0  0  0
 15 16  1  0  0  0
 15 19  1  0  0  0
 16 17  2  0  0  0
 16 36  1  0  0  0
 17 18  1  0  0  0
 18 37  1  0  0  0
 18 38  1  0  0  0
 19 39  1  0  0  0
 20 40  1  0  0  0
 20 41  1  0  0  0
 20 42  1  0  0  0
M  END
> <s_m_entry_id>
17543

> <s_m_entry_name>
ligand_docking-pose.470

> <s_m_Source_Path>
/home/csk/Desktop/cluster/DUD-E-result/esr1

> <s_m_Source_File>
ligand_docking-pose.sdf

> <i_m_Source_File_Index>
470

> <i_lp_mmshare_version>
53161

> <i_f3d_flags>
0

> <r_lp_tautomer_probability>
1

> <s_lp_Force_Field>
OPLS_2005

> <r_lp_Energy>
21.337293

> <b_lp_Chiralities_Consistent>
1

> <s_lp_Variant>
350763-1

> <s_i_glide_gridfile>
glide-grid_1sj0

> <i_i_glide_lignum>
1340

> <i_i_glide_rotatable_bonds>
4

> <r_i_docking_score>
-7.9831654515491

> <r_i_glide_ligand_efficiency>
-0.399158272577455

> <r_i_glide_ligand_efficiency_sa>
-1.08348224581189

> <r_i_glide_ligand_efficiency_ln>
-1.9979230101041

> <r_i_glide_gscore>
-7.9831654515491

> <r_i_glide_lipo>
-4.1354140539829

> <r_i_glide_hbond>
0

> <r_i_glide_metal>
0

> <r_i_glide_rewards>
-2.80214995514376

> <r_i_glide_evdw>
-30.6455631256104

> <r_i_glide_ecoul>
-0.0177699122577906

> <r_i_glide_erotb>
0.489342200696749

> <r_i_glide_esite>
0

> <r_i_glide_emodel>
-34.4118062740114

> <r_i_glide_energy>
-30.6633330378681

> <r_i_glide_einternal>
5.13694000244141

> <i_i_glide_confnum>
5

> <i_i_glide_posenum>
258

> <r_i_glide_eff_state_penalty>
0

> <s_user_duplicate_titles>
350763

> <s_m_subgroup_title>
dock_pv

> <s_m_subgroupid>
dock_pv1

> <b_m_subgroup_collapsed>
0

$$$$
354086
                    3D
 Schrodinger Suite 2021-1.
 44 47  0  0  1  0            999 V2000
   26.5712   -3.5280   27.9580 C   0  0  0  0  0  0
   26.4325   -2.0471   27.5861 C   0  0  0  0  0  0
   27.4270   -1.5848   26.5060 C   0  0  0  0  0  0
   28.9127   -1.6976   26.9308 C   0  0  0  0  0  0
   29.8918   -0.6400   26.3212 C   0  0  1  0  0  0
   29.4717    0.8160   26.6701 C   0  0  0  0  0  0
   29.4358    1.0472   28.1892 C   0  0  0  0  0  0
   30.7365    0.6031   28.8792 C   0  0  0  0  0  0
   30.8652    0.8581   30.0759 O   0  0  0  0  0  0
   31.6719   -0.2823   28.1152 C   0  0  0  0  0  0
   31.2933   -0.8548   26.9235 C   0  0  0  0  0  0
   31.9979   -1.7618   25.9599 C   0  0  0  0  0  0
   33.1562   -2.5277   26.0951 C   0  0  0  0  0  0
   33.7201   -3.2230   25.0241 C   0  0  0  0  0  0
   33.0763   -3.1729   23.8080 C   0  0  0  0  0  0
   31.8780   -2.4644   23.6288 C   0  0  0  0  0  0
   31.3377   -1.7420   24.7268 C   0  0  0  0  0  0
   30.1161   -0.8745   24.8133 C   0  0  0  0  0  0
   31.5587   -2.7723   22.2640 C   0  0  0  0  0  0
   32.4672   -3.4963   21.6737 N   0  0  0  0  0  0
   33.3991   -3.7420   22.5950 N   0  0  0  0  0  0
   33.0583   -0.5035   28.7650 C   0  0  0  0  0  0
   33.3500    0.3432   29.7564 F   0  0  0  0  0  0
   33.1374   -1.7420   29.2434 F   0  0  0  0  0  0
   34.0147   -0.3214   27.8640 F   0  0  0  0  0  0
   34.1923   -4.3225   22.3651 H   0  0  0  0  0  0
   25.7919   -3.8328   28.6569 H   0  0  0  0  0  0
   27.5366   -3.7463   28.4151 H   0  0  0  0  0  0
   26.4759   -4.1420   27.0640 H   0  0  0  0  0  0
   25.4194   -1.8690   27.2232 H   0  0  0  0  0  0
   26.5389   -1.4271   28.4773 H   0  0  0  0  0  0
   27.2600   -2.1475   25.5860 H   0  0  0  0  0  0
   27.1666   -0.5581   26.2640 H   0  0  0  0  0  0
   28.9686   -1.6460   28.0187 H   0  0  0  0  0  0
   29.2691   -2.7030   26.7048 H   0  0  0  0  0  0
   30.1881    1.5213   26.2640 H   0  0  0  0  0  0
   28.5204    1.0915   26.2171 H   0  0  0  0  0  0
   28.6333    0.4471   28.6161 H   0  0  0  0  0  0
   29.2353    2.0890   28.4399 H   0  0  0  0  0  0
   33.6598   -2.5754   27.0419 H   0  0  0  0  0  0
   34.6496   -3.7479   25.0640 H   0  0  0  0  0  0
   29.2600   -1.3420   24.3512 H   0  0  0  0  0  0
   30.2711    0.0534   24.2774 H   0  0  0  0  0  0
   30.6740   -2.5420   21.7001 H   0  0  0  0  0  0
  1  2  1  0  0  0
  1 27  1  0  0  0
  1 28  1  0  0  0
  1 29  1  0  0  0
  2  3  1  0  0  0
  2 30  1  0  0  0
  2 31  1  0  0  0
  3  4  1  0  0  0
  3 32  1  0  0  0
  3 33  1  0  0  0
  4  5  1  0  0  0
  4 34  1  0  0  0
  4 35  1  0  0  0
  5 11  1  0  0  0
  5 18  1  0  0  0
  5  6  1  0  0  0
  6  7  1  0  0  0
  6 36  1  0  0  0
  6 37  1  0  0  0
  7  8  1  0  0  0
  7 38  1  0  0  0
  7 39  1  0  0  0
  8  9  2  0  0  0
  8 10  1  0  0  0
 10 11  2  0  0  0
 10 22  1  0  0  0
 11 12  1  0  0  0
 12 17  1  0  0  0
 12 13  2  0  0  0
 13 14  1  0  0  0
 13 40  1  0  0  0
 14 15  2  0  0  0
 14 41  1  0  0  0
 15 21  1  0  0  0
 15 16  1  0  0  0
 16 17  2  0  0  0
 16 19  1  0  0  0
 17 18  1  0  0  0
 18 42  1  0  0  0
 18 43  1  0  0  0
 19 20  2  0  0  0
 19 44  1  0  0  0
 20 21  1  0  0  0
 21 26  1  0  0  0
 22 23  1  0  0  0
 22 24  1  0  0  0
 22 25  1  0  0  0
M  END
> <s_m_entry_id>
17544

> <s_m_entry_name>
ligand_docking-pose.471

> <s_m_Source_Path>
/home/csk/Desktop/cluster/DUD-E-result/esr1

> <s_m_Source_File>
ligand_docking-pose.sdf

> <i_m_Source_File_Index>
471

> <i_lp_mmshare_version>
53161

> <i_f3d_flags>
0

> <r_lp_tautomer_probability>
1

> <s_lp_Force_Field>
OPLS_2005

> <r_lp_Energy>
39.407375

> <b_lp_Chiralities_Consistent>
1

> <s_lp_Variant>
354086-1

> <s_i_glide_gridfile>
glide-grid_1sj0

> <i_i_glide_lignum>
1305

> <i_i_glide_rotatable_bonds>
4

> <r_i_docking_score>
-7.98146577238414

> <r_i_glide_ligand_efficiency>
-0.319258630895366

> <r_i_glide_ligand_efficiency_sa>
-0.933517898813977

> <r_i_glide_ligand_efficiency_ln>
-1.89184657328318

> <r_i_glide_gscore>
-7.98146577238414

> <r_i_glide_lipo>
-3.84208474187751

> <r_i_glide_hbond>
0

> <r_i_glide_metal>
0

> <r_i_glide_rewards>
-3.11071504356618

> <r_i_glide_evdw>
-29.0543327331543

> <r_i_glide_ecoul>
0.735566914081573

> <r_i_glide_erotb>
0.313715612605032

> <r_i_glide_esite>
0

> <r_i_glide_emodel>
-41.185036893585

> <r_i_glide_energy>
-28.3187658190727

> <r_i_glide_einternal>
2.12980723381042

> <i_i_glide_confnum>
6

> <i_i_glide_posenum>
318

> <r_i_glide_eff_state_penalty>
0

> <s_user_duplicate_titles>
354086

> <s_m_subgroup_title>
dock_pv

> <s_m_subgroupid>
dock_pv1

> <b_m_subgroup_collapsed>
0

$$$$
322903
                    3D
 Schrodinger Suite 2021-1.
 30 32  0  0  1  0            999 V2000
   33.8674   -3.1307   23.2968 C   0  0  0  0  0  0
   34.1392   -3.7342   22.0684 C   0  0  0  0  0  0
   33.1370   -3.8398   21.1134 C   0  0  0  0  0  0
   31.8975   -3.2647   21.3355 C   0  0  0  0  0  0
   31.6600   -2.6110   22.5356 C   0  0  0  0  0  0
   32.6041   -2.5879   23.5639 C   0  0  0  0  0  0
   32.2475   -2.0188   24.9025 C   0  0  0  0  0  0
   31.2582   -1.0400   25.0298 C   0  0  0  0  0  0
   30.9034   -0.4965   26.2839 C   0  0  0  0  0  0
   29.8557    0.4476   26.3794 C   0  0  0  0  0  0
   29.5817    1.0728   27.5850 C   0  0  0  0  0  0
   30.3245    0.7673   28.7147 C   0  0  0  0  0  0
   31.3202   -0.2161   28.6901 C   0  0  0  0  0  0
   31.6167   -0.8914   27.4590 C   0  0  0  0  0  0
   32.5843   -1.9315   27.3197 C   0  0  0  0  0  0
   32.8603   -2.4786   26.0687 C   0  0  0  0  0  0
   33.2599   -2.4209   28.3834 F   0  0  0  0  0  0
   32.1859   -0.5423   30.1619 Cl  0  0  0  0  0  0
   30.0582    1.4572   29.8643 O   0  0  0  0  0  0
   33.3455   -4.5421   19.9633 O   0  0  0  0  0  0
   34.6446   -3.1000   24.0431 H   0  0  0  0  0  0
   35.1107   -4.1574   21.8642 H   0  0  0  0  0  0
   31.1230   -3.3239   20.5845 H   0  0  0  0  0  0
   30.7016   -2.1426   22.6642 H   0  0  0  0  0  0
   30.7382   -0.6643   24.1616 H   0  0  0  0  0  0
   29.2901    0.7070   25.4954 H   0  0  0  0  0  0
   28.8012    1.8185   27.6370 H   0  0  0  0  0  0
   33.5936   -3.2695   26.0160 H   0  0  0  0  0  0
   30.6619    1.2213   30.5733 H   0  0  0  0  0  0
   32.5772   -5.1084   19.7789 H   0  0  0  0  0  0
  1  6  1  0  0  0
  1  2  2  0  0  0
  1 21  1  0  0  0
  2  3  1  0  0  0
  2 22  1  0  0  0
  3  4  2  0  0  0
  3 20  1  0  0  0
  4  5  1  0  0  0
  4 23  1  0  0  0
  5  6  2  0  0  0
  5 24  1  0  0  0
  6  7  1  0  0  0
  7 16  1  0  0  0
  7  8  2  0  0  0
  8  9  1  0  0  0
  8 25  1  0  0  0
  9 14  2  0  0  0
  9 10  1  0  0  0
 10 11  2  0  0  0
 10 26  1  0  0  0
 11 12  1  0  0  0
 11 27  1  0  0  0
 12 13  2  0  0  0
 12 19  1  0  0  0
 13 14  1  0  0  0
 13 18  1  0  0  0
 14 15  1  0  0  0
 15 16  2  0  0  0
 15 17  1  0  0  0
 16 28  1  0  0  0
 19 29  1  0  0  0
 20 30  1  0  0  0
M  END
> <s_m_entry_id>
17545

> <s_m_entry_name>
ligand_docking-pose.472

> <s_m_Source_Path>
/home/csk/Desktop/cluster/DUD-E-result/esr1

> <s_m_Source_File>
ligand_docking-pose.sdf

> <i_m_Source_File_Index>
472

> <i_lp_mmshare_version>
53161

> <i_f3d_flags>
0

> <r_lp_tautomer_probability>
0.999999999997365

> <s_lp_Force_Field>
OPLS_2005

> <r_lp_Energy>
20.070267

> <b_lp_Chiralities_Consistent>
1

> <s_lp_Variant>
322903-1

> <s_i_glide_gridfile>
glide-grid_1sj0

> <i_i_glide_lignum>
234

> <i_i_glide_rotatable_bonds>
3

> <r_i_docking_score>
-7.98094068578808

> <r_i_glide_ligand_efficiency>
-0.399047034289404

> <r_i_glide_ligand_efficiency_sa>
-1.08318029864347

> <r_i_glide_ligand_efficiency_ln>
-1.99736622461181

> <r_i_glide_gscore>
-7.98094068578808

> <r_i_glide_lipo>
-3.82180650586418

> <r_i_glide_hbond>
-0.16

> <r_i_glide_metal>
0

> <r_i_glide_rewards>
-2.27326486108231

> <r_i_glide_evdw>
-28.9853897094727

> <r_i_glide_ecoul>
-3.29949879646301

> <r_i_glide_erotb>
0.218324986101495

> <r_i_glide_esite>
0

> <r_i_glide_emodel>
-45.8275994746589

> <r_i_glide_energy>
-32.2848885059357

> <r_i_glide_einternal>
1.93661868572235

> <i_i_glide_confnum>
1

> <i_i_glide_posenum>
101

> <r_i_glide_eff_state_penalty>
0

> <s_user_duplicate_titles>
322903

> <s_m_subgroup_title>
dock_pv

> <s_m_subgroupid>
dock_pv1

> <b_m_subgroup_collapsed>
0

$$$$
338956
                    3D
 Schrodinger Suite 2021-1.
 37 38  0  0  1  0            999 V2000
   34.8613    2.2583   27.7013 C   0  0  0  0  0  0
   33.9375    1.0749   28.0121 C   0  0  0  0  0  0
   32.6664    1.0847   27.1476 C   0  0  0  0  0  0
   31.8411   -0.1078   27.3284 N   0  0  0  0  0  0
   31.9449   -1.1176   26.3600 C   0  0  0  0  0  0
   31.4548   -0.8634   25.0758 C   0  0  0  0  0  0
   31.6694   -1.7671   24.0408 C   0  0  0  0  0  0
   32.3768   -2.9420   24.2776 C   0  0  0  0  0  0
   32.8377   -3.2241   25.5623 C   0  0  0  0  0  0
   32.6143   -2.3261   26.6061 C   0  0  0  0  0  0
   33.2600   -2.7849   28.3352 Br  0  0  0  0  0  0
   30.6618   -0.1392   28.6642 S   0  0  0  0  0  0
   30.6766    1.1854   29.2988 O   0  0  0  0  0  0
   30.9100   -1.3417   29.4631 O   0  0  0  0  0  0
   29.0520   -0.3653   27.9283 C   0  0  0  0  0  0
   28.6483   -1.6384   27.5132 C   0  0  0  0  0  0
   27.3430   -1.8335   27.0672 C   0  0  0  0  0  0
   26.4516   -0.7634   27.0639 C   0  0  0  0  0  0
   26.8637    0.5035   27.4639 C   0  0  0  0  0  0
   28.1755    0.7158   27.8632 C   0  0  0  0  0  0
   25.1635   -0.9422   26.6413 O   0  0  0  0  0  0
   35.7436    2.2518   28.3403 H   0  0  0  0  0  0
   35.2036    2.2425   26.6650 H   0  0  0  0  0  0
   34.3421    3.2013   27.8633 H   0  0  0  0  0  0
   33.6630    1.0831   29.0694 H   0  0  0  0  0  0
   34.4843    0.1423   27.8639 H   0  0  0  0  0  0
   32.9798    1.1833   26.1056 H   0  0  0  0  0  0
   32.1051    1.9986   27.3406 H   0  0  0  0  0  0
   30.9211    0.0524   24.8758 H   0  0  0  0  0  0
   31.2889   -1.5544   23.0574 H   0  0  0  0  0  0
   32.5499   -3.6420   23.4726 H   0  0  0  0  0  0
   33.3753   -4.1408   25.7453 H   0  0  0  0  0  0
   29.3299   -2.4762   27.5618 H   0  0  0  0  0  0
   27.0200   -2.8144   26.7478 H   0  0  0  0  0  0
   26.1661    1.3260   27.4636 H   0  0  0  0  0  0
   28.4790    1.7006   28.1879 H   0  0  0  0  0  0
   25.0061   -1.8268   26.2664 H   0  0  0  0  0  0
  1  2  1  0  0  0
  1 22  1  0  0  0
  1 23  1  0  0  0
  1 24  1  0  0  0
  2  3  1  0  0  0
  2 25  1  0  0  0
  2 26  1  0  0  0
  3  4  1  0  0  0
  3 27  1  0  0  0
  3 28  1  0  0  0
  4  5  1  0  0  0
  4 12  1  0  0  0
  5 10  1  0  0  0
  5  6  2  0  0  0
  6  7  1  0  0  0
  6 29  1  0  0  0
  7  8  2  0  0  0
  7 30  1  0  0  0
  8  9  1  0  0  0
  8 31  1  0  0  0
  9 10  2  0  0  0
  9 32  1  0  0  0
 10 11  1  0  0  0
 12 13  2  0  0  0
 12 14  2  0  0  0
 12 15  1  0  0  0
 15 20  1  0  0  0
 15 16  2  0  0  0
 16 17  1  0  0  0
 16 33  1  0  0  0
 17 18  2  0  0  0
 17 34  1  0  0  0
 18 19  1  0  0  0
 18 21  1  0  0  0
 19 20  2  0  0  0
 19 35  1  0  0  0
 20 36  1  0  0  0
 21 37  1  0  0  0
M  END
> <s_m_entry_id>
17546

> <s_m_entry_name>
ligand_docking-pose.473

> <s_m_Source_Path>
/home/csk/Desktop/cluster/DUD-E-result/esr1

> <s_m_Source_File>
ligand_docking-pose.sdf

> <i_m_Source_File_Index>
473

> <i_lp_mmshare_version>
53161

> <i_f3d_flags>
0

> <r_lp_tautomer_probability>
0.999999999997365

> <s_lp_Force_Field>
OPLS_2005

> <r_lp_Energy>
8.920743

> <b_lp_Chiralities_Consistent>
1

> <s_lp_Variant>
338956-1

> <s_i_glide_gridfile>
glide-grid_1sj0

> <i_i_glide_lignum>
1527

> <i_i_glide_rotatable_bonds>
6

> <r_i_docking_score>
-7.98003335892345

> <r_i_glide_ligand_efficiency>
-0.380001588520164

> <r_i_glide_ligand_efficiency_sa>
-1.04839556856756

> <r_i_glide_ligand_efficiency_ln>
-1.9730471228181

> <r_i_glide_gscore>
-7.98003335892345

> <r_i_glide_lipo>
-3.92067036118899

> <r_i_glide_hbond>
-0.191792625387057

> <r_i_glide_metal>
0

> <r_i_glide_rewards>
-1.5971580571948

> <r_i_glide_evdw>
-40.0775146484375

> <r_i_glide_ecoul>
-4.40344381332397

> <r_i_glide_erotb>
0.393979989267873

> <r_i_glide_esite>
0

> <r_i_glide_emodel>
-64.5755846595456

> <r_i_glide_energy>
-44.4809584617615

> <r_i_glide_einternal>
3.92985796928406

> <i_i_glide_confnum>
21

> <i_i_glide_posenum>
229

> <r_i_glide_eff_state_penalty>
0

> <s_user_duplicate_titles>
338956

> <s_m_subgroup_title>
dock_pv

> <s_m_subgroupid>
dock_pv1

> <b_m_subgroup_collapsed>
0

$$$$
50332
                    3D
 Schrodinger Suite 2021-1.
 38 40  0  0  1  0            999 V2000
   33.1260   -2.5623   24.7682 C   0  0  0  0  0  0
   34.0935   -3.0415   23.9050 C   0  0  0  0  0  0
   33.8955   -3.0445   22.5288 C   0  0  0  0  0  0
   32.6467   -2.7566   22.0152 C   0  0  0  0  0  0
   31.6600   -2.3237   22.8841 C   0  0  0  0  0  0
   31.9117   -2.1420   24.2455 C   0  0  0  0  0  0
   30.8404   -1.6242   25.0984 C   0  0  0  0  0  0
   30.8575   -1.0863   26.3387 C   0  0  0  0  0  0
   32.0217   -0.6532   27.1419 C   0  0  0  0  0  0
   32.3190   -1.3095   28.3401 C   0  0  0  0  0  0
   33.3990   -0.8994   29.1141 C   0  0  0  0  0  0
   34.1732    0.1823   28.7068 C   0  0  0  0  0  0
   33.8569    0.8793   27.5416 C   0  0  0  0  0  0
   32.7884    0.4513   26.7525 C   0  0  0  0  0  0
   35.2560    0.5381   29.4640 O   0  0  0  0  0  0
   29.5493   -0.9673   26.9742 C   0  0  0  0  0  0
   28.8662    0.2485   27.0210 C   0  0  0  0  0  0
   27.5488    0.2641   27.4640 C   0  0  0  0  0  0
   26.9529   -0.9307   27.8640 C   0  0  0  0  0  0
   27.6446   -2.1312   27.8640 C   0  0  0  0  0  0
   28.9550   -2.1480   27.4276 C   0  0  0  0  0  0
   25.6600   -0.9420   28.2640 O   0  0  0  0  0  0
   35.4830   -3.3420   21.2091 I   0  0  0  0  0  0
   33.3338   -2.5234   25.8265 H   0  0  0  0  0  0
   35.0387   -3.3420   24.3204 H   0  0  0  0  0  0
   32.4556   -2.8218   20.9536 H   0  0  0  0  0  0
   30.6845   -2.1420   22.4759 H   0  0  0  0  0  0
   29.8589   -1.7420   24.6640 H   0  0  0  0  0  0
   31.7175   -2.1420   28.6713 H   0  0  0  0  0  0
   33.6438   -1.4250   30.0255 H   0  0  0  0  0  0
   34.4529    1.7242   27.2290 H   0  0  0  0  0  0
   32.5580    0.9802   25.8404 H   0  0  0  0  0  0
   35.9265    1.0580   29.0082 H   0  0  0  0  0  0
   29.3306    1.1574   26.6654 H   0  0  0  0  0  0
   26.9935    1.1907   27.4740 H   0  0  0  0  0  0
   27.1593   -3.0459   28.1723 H   0  0  0  0  0  0
   29.4849   -3.0900   27.3825 H   0  0  0  0  0  0
   25.2308   -0.1038   28.0827 H   0  0  0  0  0  0
  1  6  1  0  0  0
  1  2  2  0  0  0
  1 24  1  0  0  0
  2  3  1  0  0  0
  2 25  1  0  0  0
  3  4  2  0  0  0
  3 23  1  0  0  0
  4  5  1  0  0  0
  4 26  1  0  0  0
  5  6  2  0  0  0
  5 27  1  0  0  0
  6  7  1  0  0  0
  7  8  2  3  0  0
  7 28  1  0  0  0
  8  9  1  0  0  0
  8 16  1  0  0  0
  9 14  1  0  0  0
  9 10  2  0  0  0
 10 11  1  0  0  0
 10 29  1  0  0  0
 11 12  2  0  0  0
 11 30  1  0  0  0
 12 13  1  0  0  0
 12 15  1  0  0  0
 13 14  2  0  0  0
 13 31  1  0  0  0
 14 32  1  0  0  0
 15 33  1  0  0  0
 16 21  1  0  0  0
 16 17  2  0  0  0
 17 18  1  0  0  0
 17 34  1  0  0  0
 18 19  2  0  0  0
 18 35  1  0  0  0
 19 20  1  0  0  0
 19 22  1  0  0  0
 20 21  2  0  0  0
 20 36  1  0  0  0
 21 37  1  0  0  0
 22 38  1  0  0  0
M  END
> <s_m_entry_id>
17547

> <s_m_entry_name>
ligand_docking-pose.474

> <s_m_Source_Path>
/home/csk/Desktop/cluster/DUD-E-result/esr1

> <s_m_Source_File>
ligand_docking-pose.sdf

> <i_m_Source_File_Index>
474

> <i_lp_mmshare_version>
53161

> <i_f3d_flags>
0

> <r_lp_tautomer_probability>
1

> <s_lp_Force_Field>
OPLS_2005

> <r_lp_Energy>
24.547306

> <b_lp_Chiralities_Consistent>
1

> <s_lp_Variant>
50332-1

> <s_i_glide_gridfile>
glide-grid_1sj0

> <i_i_glide_lignum>
416

> <i_i_glide_rotatable_bonds>
5

> <r_i_docking_score>
-7.97273596666803

> <r_i_glide_ligand_efficiency>
-0.346640694202958

> <r_i_glide_ligand_efficiency_sa>
-0.985800023086292

> <r_i_glide_ligand_efficiency_ln>
-1.92787984951316

> <r_i_glide_gscore>
-7.97273596666803

> <r_i_glide_lipo>
-4.75506185483624

> <r_i_glide_hbond>
-0.230462749931358

> <r_i_glide_metal>
0

> <r_i_glide_rewards>
-1.26434039673043

> <r_i_glide_evdw>
-32.2566528320312

> <r_i_glide_ecoul>
-3.03389191627502

> <r_i_glide_erotb>
0.345045463872815

> <r_i_glide_esite>
0

> <r_i_glide_emodel>
-46.7496454445817

> <r_i_glide_energy>
-35.2905447483063

> <r_i_glide_einternal>
6.9566388130188

> <i_i_glide_confnum>
46

> <i_i_glide_posenum>
361

> <r_i_glide_eff_state_penalty>
0

> <s_user_duplicate_titles>
50332

> <s_m_subgroup_title>
dock_pv

> <s_m_subgroupid>
dock_pv1

> <b_m_subgroup_collapsed>
0

$$$$
393999
                    3D
 Schrodinger Suite 2021-1.
 28 30  0  0  1  0            999 V2000
   31.5984   -1.7022   23.7701 C   0  0  0  0  0  0
   32.0600   -2.3803   22.6449 C   0  0  0  0  0  0
   32.9988   -3.3842   22.7705 C   0  0  0  0  0  0
   33.4402   -3.7420   24.0300 C   0  0  0  0  0  0
   32.9333   -3.1287   25.1636 C   0  0  0  0  0  0
   32.0132   -2.0715   25.0647 C   0  0  0  0  0  0
   31.5378   -1.3860   26.2366 N   0  0  0  0  0  0
   32.2266   -1.3161   27.4219 C   0  0  0  0  0  0
   33.2600   -1.8921   27.7480 O   0  0  0  0  0  0
   31.4990   -0.3791   28.2890 C   0  0  0  0  0  0
   31.8085    0.0760   29.5666 C   0  0  0  0  0  0
   30.9640    1.0118   30.1553 C   0  0  0  0  0  0
   29.8270    1.4580   29.4640 C   0  0  0  0  0  0
   29.5194    0.9669   28.1938 C   0  0  0  0  0  0
   30.3900    0.0383   27.6207 C   0  0  0  0  0  0
   30.3863   -0.6392   26.3021 C   0  0  0  0  0  0
   29.5001   -0.5420   25.4549 O   0  0  0  0  0  0
   27.9412    1.5746   27.3116 Br  0  0  0  0  0  0
   31.2596    1.4580   31.4137 O   0  0  0  0  0  0
   33.4692   -4.0179   21.6528 O   0  0  0  0  0  0
   30.9084   -0.8922   23.5983 H   0  0  0  0  0  0
   31.6957   -2.1419   21.6583 H   0  0  0  0  0  0
   34.1333   -4.5420   24.1561 H   0  0  0  0  0  0
   33.2705   -3.5215   26.1083 H   0  0  0  0  0  0
   32.6883   -0.2684   30.0921 H   0  0  0  0  0  0
   29.1631    2.1872   29.8946 H   0  0  0  0  0  0
   30.6377    2.1150   31.7342 H   0  0  0  0  0  0
   33.8809   -4.8692   21.8174 H   0  0  0  0  0  0
  1  6  1  0  0  0
  1  2  2  0  0  0
  1 21  1  0  0  0
  2  3  1  0  0  0
  2 22  1  0  0  0
  3  4  2  0  0  0
  3 20  1  0  0  0
  4  5  1  0  0  0
  4 23  1  0  0  0
  5  6  2  0  0  0
  5 24  1  0  0  0
  6  7  1  0  0  0
  7 16  1  0  0  0
  7  8  1  0  0  0
  8  9  2  0  0  0
  8 10  1  0  0  0
 10 15  2  0  0  0
 10 11  1  0  0  0
 11 12  2  0  0  0
 11 25  1  0  0  0
 12 13  1  0  0  0
 12 19  1  0  0  0
 13 14  2  0  0  0
 13 26  1  0  0  0
 14 15  1  0  0  0
 14 18  1  0  0  0
 15 16  1  0  0  0
 16 17  2  0  0  0
 19 27  1  0  0  0
 20 28  1  0  0  0
M  END
> <s_m_entry_id>
17548

> <s_m_entry_name>
ligand_docking-pose.475

> <s_m_Source_Path>
/home/csk/Desktop/cluster/DUD-E-result/esr1

> <s_m_Source_File>
ligand_docking-pose.sdf

> <i_m_Source_File_Index>
475

> <i_lp_mmshare_version>
53161

> <i_f3d_flags>
0

> <r_lp_tautomer_probability>
0.99999999999473

> <s_lp_Force_Field>
OPLS_2005

> <r_lp_Energy>
45.207448

> <b_lp_Chiralities_Consistent>
1

> <s_lp_Variant>
393999-1

> <s_i_glide_gridfile>
glide-grid_1sj0

> <i_i_glide_lignum>
627

> <i_i_glide_rotatable_bonds>
3

> <r_i_docking_score>
-7.96697861597701

> <r_i_glide_ligand_efficiency>
-0.398348930798851

> <r_i_glide_ligand_efficiency_sa>
-1.0812853542324

> <r_i_glide_ligand_efficiency_ln>
-1.99387197903798

> <r_i_glide_gscore>
-7.96697861597701

> <r_i_glide_lipo>
-3.61343927784202

> <r_i_glide_hbond>
0

> <r_i_glide_metal>
0

> <r_i_glide_rewards>
-2.69499180473198

> <r_i_glide_evdw>
-35.168773651123

> <r_i_glide_ecoul>
-0.460112005472183

> <r_i_glide_erotb>
0.168907949973966

> <r_i_glide_esite>
0

> <r_i_glide_emodel>
-51.2693012620921

> <r_i_glide_energy>
-35.6288856565952

> <r_i_glide_einternal>
1.38374221324921

> <i_i_glide_confnum>
3

> <i_i_glide_posenum>
362

> <r_i_glide_eff_state_penalty>
0

> <s_user_duplicate_titles>
393999

> <s_m_subgroup_title>
dock_pv

> <s_m_subgroupid>
dock_pv1

> <b_m_subgroup_collapsed>
0

$$$$
323048
                    3D
 Schrodinger Suite 2021-1.
 32 34  0  0  1  0            999 V2000
   33.2019   -0.6496   29.0593 C   0  0  0  0  0  0
   32.8612    0.0654   30.1990 C   0  0  0  0  0  0
   31.6640    0.7596   30.2576 C   0  0  0  0  0  0
   30.7844    0.7479   29.1772 C   0  0  0  0  0  0
   31.0787    0.0142   27.9847 C   0  0  0  0  0  0
   32.3239   -0.6912   27.9449 C   0  0  0  0  0  0
   32.6742   -1.4269   26.7926 C   0  0  0  0  0  0
   31.8372   -1.5129   25.6751 C   0  0  0  0  0  0
   30.6121   -0.8399   25.7355 C   0  0  0  0  0  0
   30.2109   -0.0717   26.8384 C   0  0  0  0  0  0
   28.8804    0.6009   26.7042 C   0  0  0  0  0  0
   28.4105    1.4559   27.4562 O   0  0  0  0  0  0
   32.2414   -2.3189   24.4674 C   0  0  0  0  0  0
   33.1913   -3.3410   24.5659 C   0  0  0  0  0  0
   33.5232   -4.1205   23.4639 C   0  0  0  0  0  0
   32.9099   -3.9408   22.2348 C   0  0  0  0  0  0
   31.9507   -2.9499   22.1095 C   0  0  0  0  0  0
   31.6597   -2.1252   23.2035 C   0  0  0  0  0  0
   31.2715   -2.8304   20.9474 F   0  0  0  0  0  0
   33.2595   -4.7406   21.1760 O   0  0  0  0  0  0
   31.3570    1.4572   31.3942 O   0  0  0  0  0  0
   34.1407   -1.1845   29.0234 H   0  0  0  0  0  0
   33.5300    0.0846   31.0484 H   0  0  0  0  0  0
   29.8625    1.2955   29.2710 H   0  0  0  0  0  0
   33.6302   -1.9276   26.8003 H   0  0  0  0  0  0
   29.9448   -0.9212   24.8888 H   0  0  0  0  0  0
   28.3013    0.2883   25.8320 H   0  0  0  0  0  0
   33.6596   -3.5878   25.5038 H   0  0  0  0  0  0
   34.1894   -4.9404   23.5933 H   0  0  0  0  0  0
   30.9177   -1.3612   23.0666 H   0  0  0  0  0  0
   32.5027   -5.0630   20.6636 H   0  0  0  0  0  0
   30.5221    1.9256   31.3405 H   0  0  0  0  0  0
  1  6  1  0  0  0
  1  2  2  0  0  0
  1 22  1  0  0  0
  2  3  1  0  0  0
  2 23  1  0  0  0
  3  4  2  0  0  0
  3 21  1  0  0  0
  4  5  1  0  0  0
  4 24  1  0  0  0
  5 10  2  0  0  0
  5  6  1  0  0  0
  6  7  2  0  0  0
  7  8  1  0  0  0
  7 25  1  0  0  0
  8  9  2  0  0  0
  8 13  1  0  0  0
  9 10  1  0  0  0
  9 26  1  0  0  0
 10 11  1  0  0  0
 11 12  2  0  0  0
 11 27  1  0  0  0
 13 18  1  0  0  0
 13 14  2  0  0  0
 14 15  1  0  0  0
 14 28  1  0  0  0
 15 16  2  0  0  0
 15 29  1  0  0  0
 16 17  1  0  0  0
 16 20  1  0  0  0
 17 18  2  0  0  0
 17 19  1  0  0  0
 18 30  1  0  0  0
 20 31  1  0  0  0
 21 32  1  0  0  0
M  END
> <s_m_entry_id>
17549

> <s_m_entry_name>
ligand_docking-pose.476

> <s_m_Source_Path>
/home/csk/Desktop/cluster/DUD-E-result/esr1

> <s_m_Source_File>
ligand_docking-pose.sdf

> <i_m_Source_File_Index>
476

> <i_lp_mmshare_version>
53161

> <i_f3d_flags>
0

> <r_lp_tautomer_probability>
0.999999999997365

> <s_lp_Force_Field>
OPLS_2005

> <r_lp_Energy>
20.587601

> <b_lp_Chiralities_Consistent>
1

> <s_lp_Variant>
323048-1

> <s_i_glide_gridfile>
glide-grid_1sj0

> <i_i_glide_lignum>
130

> <i_i_glide_rotatable_bonds>
4

> <r_i_docking_score>
-7.96612436094344

> <r_i_glide_ligand_efficiency>
-0.379339255283021

> <r_i_glide_ligand_efficiency_sa>
-1.04656824138864

> <r_i_glide_ligand_efficiency_ln>
-1.96960815117332

> <r_i_glide_gscore>
-7.96612436094344

> <r_i_glide_lipo>
-3.68022677229653

> <r_i_glide_hbond>
-0.16

> <r_i_glide_metal>
0

> <r_i_glide_rewards>
-2.4654471078396

> <r_i_glide_evdw>
-29.8172740936279

> <r_i_glide_ecoul>
-2.35213351249695

> <r_i_glide_erotb>
0.227060852064039

> <r_i_glide_esite>
-0.0438276013154138

> <r_i_glide_emodel>
-45.6542411857934

> <r_i_glide_energy>
-32.1694076061249

> <r_i_glide_einternal>
2.97746014595032

> <i_i_glide_confnum>
4

> <i_i_glide_posenum>
54

> <r_i_glide_eff_state_penalty>
0

> <s_user_duplicate_titles>
323048

> <s_m_subgroup_title>
dock_pv

> <s_m_subgroupid>
dock_pv1

> <b_m_subgroup_collapsed>
0

$$$$
630781
                    3D
 Schrodinger Suite 2021-1.
 28 30  0  0  1  0            999 V2000
   31.5058    1.1366   31.1220 C   0  0  0  0  0  0
   31.5680    0.2610   30.0008 O   0  0  0  0  0  0
   30.7259    0.4620   28.9195 C   0  0  0  0  0  0
   29.6592    1.3758   28.9658 C   0  0  0  0  0  0
   28.8322    1.5799   27.8662 C   0  0  0  0  0  0
   29.0942    0.9273   26.6722 C   0  0  0  0  0  0
   30.1467    0.0228   26.6046 C   0  0  0  0  0  0
   30.9372   -0.2736   27.7325 C   0  0  0  0  0  0
   31.9669   -1.3551   27.6044 C   0  0  0  0  0  0
   32.6464   -1.7507   28.5536 O   0  0  0  0  0  0
   32.1613   -1.9149   26.2385 C   0  0  0  0  0  0
   33.1027   -2.9149   25.9684 C   0  0  0  0  0  0
   33.3337   -3.3417   24.6594 C   0  0  0  0  0  0
   32.6221   -2.7717   23.6064 C   0  0  0  0  0  0
   31.6584   -1.8039   23.8678 C   0  0  0  0  0  0
   31.3970   -1.4180   25.1775 C   0  0  0  0  0  0
   30.3520   -0.5433   25.3654 O   0  0  0  0  0  0
   32.8415   -3.1743   22.3184 O   0  0  0  0  0  0
   32.2977    0.8768   31.8239 H   0  0  0  0  0  0
   30.5544    1.0569   31.6484 H   0  0  0  0  0  0
   31.6605    2.1760   30.8252 H   0  0  0  0  0  0
   29.4306    1.9215   29.8648 H   0  0  0  0  0  0
   27.9965    2.2585   27.9341 H   0  0  0  0  0  0
   28.4787    1.1137   25.8043 H   0  0  0  0  0  0
   33.6589   -3.3592   26.7789 H   0  0  0  0  0  0
   34.0634   -4.1149   24.4711 H   0  0  0  0  0  0
   31.0756   -1.3881   23.0677 H   0  0  0  0  0  0
   33.4182   -3.9376   22.2443 H   0  0  0  0  0  0
  1  2  1  0  0  0
  1 19  1  0  0  0
  1 20  1  0  0  0
  1 21  1  0  0  0
  2  3  1  0  0  0
  3  8  1  0  0  0
  3  4  2  0  0  0
  4  5  1  0  0  0
  4 22  1  0  0  0
  5  6  2  0  0  0
  5 23  1  0  0  0
  6  7  1  0  0  0
  6 24  1  0  0  0
  7 17  1  0  0  0
  7  8  2  0  0  0
  8  9  1  0  0  0
  9 10  2  0  0  0
  9 11  1  0  0  0
 11 16  2  0  0  0
 11 12  1  0  0  0
 12 13  2  0  0  0
 12 25  1  0  0  0
 13 14  1  0  0  0
 13 26  1  0  0  0
 14 15  2  0  0  0
 14 18  1  0  0  0
 15 16  1  0  0  0
 15 27  1  0  0  0
 16 17  1  0  0  0
 18 28  1  0  0  0
M  END
> <s_m_entry_id>
17550

> <s_m_entry_name>
ligand_docking-pose.477

> <s_m_Source_Path>
/home/csk/Desktop/cluster/DUD-E-result/esr1

> <s_m_Source_File>
ligand_docking-pose.sdf

> <i_m_Source_File_Index>
477

> <i_lp_mmshare_version>
53161

> <i_f3d_flags>
0

> <r_lp_tautomer_probability>
1

> <s_lp_Force_Field>
OPLS_2005

> <r_lp_Energy>
22.262461

> <b_lp_Chiralities_Consistent>
1

> <s_lp_Variant>
630781-1

> <s_i_glide_gridfile>
glide-grid_1sj0

> <i_i_glide_lignum>
1772

> <i_i_glide_rotatable_bonds>
2

> <r_i_docking_score>
-7.96387496723731

> <r_i_glide_ligand_efficiency>
-0.44243749817985

> <r_i_glide_ligand_efficiency_sa>
-1.15951426471301

> <r_i_glide_ligand_efficiency_ln>
-2.04707299529236

> <r_i_glide_gscore>
-7.96387496723731

> <r_i_glide_lipo>
-4.03364080155096

> <r_i_glide_hbond>
0

> <r_i_glide_metal>
0

> <r_i_glide_rewards>
-2.37846166958211

> <r_i_glide_evdw>
-33.590202331543

> <r_i_glide_ecoul>
0.851584136486053

> <r_i_glide_erotb>
0

> <r_i_glide_esite>
0

> <r_i_glide_emodel>
-46.8628480823287

> <r_i_glide_energy>
-32.7386181950569

> <r_i_glide_einternal>
1.4514719247818

> <i_i_glide_confnum>
1

> <i_i_glide_posenum>
58

> <r_i_glide_eff_state_penalty>
0

> <s_user_duplicate_titles>
630781

> <s_m_subgroup_title>
dock_pv

> <s_m_subgroupid>
dock_pv1

> <b_m_subgroup_collapsed>
0

$$$$
323185
                    3D
 Schrodinger Suite 2021-1.
 36 38  0  0  1  0            999 V2000
   28.4586    1.4582   26.8344 C   0  0  0  0  0  0
   28.6404   -0.0583   27.0059 C   0  0  0  0  0  0
   30.0907   -0.5344   26.8860 C   0  0  0  0  0  0
   30.5014   -1.2042   25.7271 C   0  0  0  0  0  0
   31.7980   -1.7152   25.5646 C   0  0  0  0  0  0
   32.6757   -1.5760   26.6429 C   0  0  0  0  0  0
   32.3330   -0.8764   27.8196 C   0  0  0  0  0  0
   31.0220   -0.3279   27.9520 C   0  0  0  0  0  0
   30.7150    0.3833   29.1481 C   0  0  0  0  0  0
   31.6618    0.5332   30.1585 C   0  0  0  0  0  0
   32.9300   -0.0101   30.0185 C   0  0  0  0  0  0
   33.2727   -0.7111   28.8681 C   0  0  0  0  0  0
   31.3450    1.2098   31.3043 O   0  0  0  0  0  0
   32.2371   -2.4047   24.2957 C   0  0  0  0  0  0
   33.3143   -3.3045   24.2673 C   0  0  0  0  0  0
   33.6597   -3.9697   23.0906 C   0  0  0  0  0  0
   32.9118   -3.8286   21.9368 C   0  0  0  0  0  0
   31.8225   -2.9725   21.9431 C   0  0  0  0  0  0
   31.5527   -2.2089   23.0868 C   0  0  0  0  0  0
   30.9990   -2.9419   20.8694 F   0  0  0  0  0  0
   33.2600   -4.5428   20.8183 O   0  0  0  0  0  0
   27.4057    1.7326   26.9040 H   0  0  0  0  0  0
   28.9946    2.0340   27.5886 H   0  0  0  0  0  0
   28.8233    1.7881   25.8641 H   0  0  0  0  0  0
   28.0287   -0.5751   26.2641 H   0  0  0  0  0  0
   28.2368   -0.3862   27.9648 H   0  0  0  0  0  0
   29.7728   -1.3415   24.9429 H   0  0  0  0  0  0
   33.6601   -1.9953   26.5888 H   0  0  0  0  0  0
   29.7310    0.7994   29.2851 H   0  0  0  0  0  0
   33.6599    0.1104   30.8068 H   0  0  0  0  0  0
   34.2660   -1.1263   28.7703 H   0  0  0  0  0  0
   30.4573    1.5723   31.2979 H   0  0  0  0  0  0
   33.8898   -3.5239   25.1517 H   0  0  0  0  0  0
   34.4582   -4.6785   23.0632 H   0  0  0  0  0  0
   30.7109   -1.5427   23.0641 H   0  0  0  0  0  0
   32.5080   -4.9792   20.3863 H   0  0  0  0  0  0
  1  2  1  0  0  0
  1 22  1  0  0  0
  1 23  1  0  0  0
  1 24  1  0  0  0
  2  3  1  0  0  0
  2 25  1  0  0  0
  2 26  1  0  0  0
  3  8  1  0  0  0
  3  4  2  0  0  0
  4  5  1  0  0  0
  4 27  1  0  0  0
  5  6  2  0  0  0
  5 14  1  0  0  0
  6  7  1  0  0  0
  6 28  1  0  0  0
  7 12  2  0  0  0
  7  8  1  0  0  0
  8  9  2  0  0  0
  9 10  1  0  0  0
  9 29  1  0  0  0
 10 11  2  0  0  0
 10 13  1  0  0  0
 11 12  1  0  0  0
 11 30  1  0  0  0
 12 31  1  0  0  0
 13 32  1  0  0  0
 14 19  1  0  0  0
 14 15  2  0  0  0
 15 16  1  0  0  0
 15 33  1  0  0  0
 16 17  2  0  0  0
 16 34  1  0  0  0
 17 18  1  0  0  0
 17 21  1  0  0  0
 18 19  2  0  0  0
 18 20  1  0  0  0
 19 35  1  0  0  0
 21 36  1  0  0  0
M  END
> <s_m_entry_id>
17551

> <s_m_entry_name>
ligand_docking-pose.478

> <s_m_Source_Path>
/home/csk/Desktop/cluster/DUD-E-result/esr1

> <s_m_Source_File>
ligand_docking-pose.sdf

> <i_m_Source_File_Index>
478

> <i_lp_mmshare_version>
53161

> <i_f3d_flags>
0

> <r_lp_tautomer_probability>
0.999999999997365

> <s_lp_Force_Field>
OPLS_2005

> <r_lp_Energy>
17.794602

> <b_lp_Chiralities_Consistent>
1

> <s_lp_Variant>
323185-1

> <s_i_glide_gridfile>
glide-grid_1sj0

> <i_i_glide_lignum>
1148

> <i_i_glide_rotatable_bonds>
4

> <r_i_docking_score>
-7.95783905245042

> <r_i_glide_ligand_efficiency>
-0.378944716783353

> <r_i_glide_ligand_efficiency_sa>
-1.04547973958449

> <r_i_glide_ligand_efficiency_ln>
-1.96755962539046

> <r_i_glide_gscore>
-7.95783905245042

> <r_i_glide_lipo>
-4.17779982667019

> <r_i_glide_hbond>
-0.16

> <r_i_glide_metal>
0

> <r_i_glide_rewards>
-2.07712816560592

> <r_i_glide_evdw>
-29.1345615386963

> <r_i_glide_ecoul>
-1.73859941959381

> <r_i_glide_erotb>
0.227000648647725

> <r_i_glide_esite>
-0.0523937189481525

> <r_i_glide_emodel>
-43.5576495565139

> <r_i_glide_energy>
-30.8731609582901

> <r_i_glide_einternal>
2.64403939247131

> <i_i_glide_confnum>
1

> <i_i_glide_posenum>
24

> <r_i_glide_eff_state_penalty>
0

> <s_user_duplicate_titles>
323185

> <s_m_subgroup_title>
dock_pv

> <s_m_subgroupid>
dock_pv1

> <b_m_subgroup_collapsed>
0

$$$$
42738
                    3D
 Schrodinger Suite 2021-1.
 26 28  0  0  1  0            999 V2000
   31.4583    1.0633   31.0603 C   0  0  0  0  0  0
   30.5171    1.2334   30.0522 C   0  0  0  0  0  0
   30.6689    0.5730   28.8415 C   0  0  0  0  0  0
   31.7699   -0.2681   28.6234 C   0  0  0  0  0  0
   32.7130   -0.4272   29.6450 C   0  0  0  0  0  0
   32.5541    0.2359   30.8581 C   0  0  0  0  0  0
   31.9663   -0.9899   27.3245 C   0  0  0  0  0  0
   32.8475   -2.0181   27.0164 C   0  0  0  0  0  0
   32.8131   -2.4062   25.6482 C   0  0  0  0  0  0
   33.5544   -3.3720   24.9511 C   0  0  0  0  0  0
   33.3102   -3.6053   23.5957 C   0  0  0  0  0  0
   32.3510   -2.8713   22.9112 C   0  0  0  0  0  0
   31.6374   -1.8746   23.5619 C   0  0  0  0  0  0
   31.8529   -1.6644   24.9217 C   0  0  0  0  0  0
   30.9929   -0.5410   25.9349 S   0  0  0  0  0  0
   32.0636   -3.1435   21.6010 O   0  0  0  0  0  0
   31.3349    1.5717   32.0064 H   0  0  0  0  0  0
   29.6539    1.8577   30.2169 H   0  0  0  0  0  0
   29.9104    0.7256   28.0894 H   0  0  0  0  0  0
   33.5757   -1.0608   29.5078 H   0  0  0  0  0  0
   33.2684    0.1031   31.6525 H   0  0  0  0  0  0
   33.5137   -2.4708   27.7335 H   0  0  0  0  0  0
   34.2758   -3.9835   25.4542 H   0  0  0  0  0  0
   33.8572   -4.3831   23.0830 H   0  0  0  0  0  0
   30.8620   -1.3289   23.0671 H   0  0  0  0  0  0
   32.3190   -4.0235   21.3061 H   0  0  0  0  0  0
  1  6  1  0  0  0
  1  2  2  0  0  0
  1 17  1  0  0  0
  2  3  1  0  0  0
  2 18  1  0  0  0
  3  4  2  0  0  0
  3 19  1  0  0  0
  4  5  1  0  0  0
  4  7  1  0  0  0
  5  6  2  0  0  0
  5 20  1  0  0  0
  6 21  1  0  0  0
  7 15  1  0  0  0
  7  8  2  0  0  0
  8  9  1  0  0  0
  8 22  1  0  0  0
  9 14  2  0  0  0
  9 10  1  0  0  0
 10 11  2  0  0  0
 10 23  1  0  0  0
 11 12  1  0  0  0
 11 24  1  0  0  0
 12 13  2  0  0  0
 12 16  1  0  0  0
 13 14  1  0  0  0
 13 25  1  0  0  0
 14 15  1  0  0  0
 16 26  1  0  0  0
M  END
> <s_m_entry_id>
17552

> <s_m_entry_name>
ligand_docking-pose.479

> <s_m_Source_Path>
/home/csk/Desktop/cluster/DUD-E-result/esr1

> <s_m_Source_File>
ligand_docking-pose.sdf

> <i_m_Source_File_Index>
479

> <i_lp_mmshare_version>
53161

> <i_f3d_flags>
0

> <r_lp_tautomer_probability>
1

> <s_lp_Force_Field>
OPLS_2005

> <r_lp_Energy>
11.99611

> <b_lp_Chiralities_Consistent>
1

> <s_lp_Variant>
42738-1

> <s_i_glide_gridfile>
glide-grid_1sj0

> <i_i_glide_lignum>
257

> <i_i_glide_rotatable_bonds>
2

> <r_i_docking_score>
-7.95477041056774

> <r_i_glide_ligand_efficiency>
-0.497173150660484

> <r_i_glide_ligand_efficiency_sa>
-1.25279783476157

> <r_i_glide_ligand_efficiency_ln>
-2.10857079746689

> <r_i_glide_gscore>
-7.95477041056774

> <r_i_glide_lipo>
-4.21053588050304

> <r_i_glide_hbond>
0

> <r_i_glide_metal>
0

> <r_i_glide_rewards>
-2.6437201316043

> <r_i_glide_evdw>
-26.9474925994873

> <r_i_glide_ecoul>
-0.566293776035309

> <r_i_glide_erotb>
0.331804297919262

> <r_i_glide_esite>
0

> <r_i_glide_emodel>
-39.9628791147508

> <r_i_glide_energy>
-27.5137863755226

> <r_i_glide_einternal>
1.9803569316864

> <i_i_glide_confnum>
2

> <i_i_glide_posenum>
182

> <r_i_glide_eff_state_penalty>
0

> <s_user_duplicate_titles>
42738

> <s_m_subgroup_title>
dock_pv

> <s_m_subgroupid>
dock_pv1

> <b_m_subgroup_collapsed>
0

$$$$
301037
                    3D
 Schrodinger Suite 2021-1.
 42 44  0  0  1  0            999 V2000
   29.8351   -2.6698   27.1301 C   0  0  0  0  0  0
   30.5867   -1.5375   27.7942 C   0  0  0  0  0  0
   30.9989   -1.6230   29.0728 C   0  0  0  0  0  0
   31.6853   -0.5067   29.8513 C   0  0  0  0  0  0
   32.0200    0.7451   28.9697 C   0  0  2  0  0  0
   30.8593    0.9324   27.9529 C   0  0  0  0  0  0
   30.8482   -0.2698   26.9810 C   0  0  1  0  0  0
   32.2174   -0.3383   26.2510 C   0  0  1  0  0  0
   33.2596   -0.4417   27.2340 O   0  0  0  0  0  0
   33.3994    0.6130   28.1890 C   0  0  0  0  0  0
   34.5649    0.1380   29.0889 C   0  0  0  0  0  0
   33.8095    1.9138   27.4425 C   0  0  0  0  0  0
   32.3294   -1.4505   25.2050 C   0  0  0  0  0  0
   31.6199   -1.3451   24.0061 C   0  0  0  0  0  0
   31.7980   -2.2940   23.0034 C   0  0  0  0  0  0
   32.6835   -3.3450   23.1917 C   0  0  0  0  0  0
   33.3820   -3.4630   24.3855 C   0  0  0  0  0  0
   33.1832   -2.5405   25.4037 C   0  0  0  0  0  0
   32.8611   -4.2833   22.2122 O   0  0  0  0  0  0
   32.0313    1.8578   29.8355 O   0  0  0  0  0  0
   30.0442   -0.1264   26.2576 H   0  0  0  0  0  0
   32.3715    0.5769   25.6788 H   0  0  0  0  0  0
   30.4600   -3.1316   26.3674 H   0  0  0  0  0  0
   29.5565   -3.4436   27.8463 H   0  0  0  0  0  0
   28.9190   -2.3018   26.6670 H   0  0  0  0  0  0
   30.8139   -2.5408   29.6012 H   0  0  0  0  0  0
   30.9805   -0.2254   30.6353 H   0  0  0  0  0  0
   32.5474   -0.8960   30.3881 H   0  0  0  0  0  0
   30.9487    1.8594   27.3951 H   0  0  0  0  0  0
   29.9016    1.0070   28.4734 H   0  0  0  0  0  0
   34.6573    0.7519   29.9835 H   0  0  0  0  0  0
   34.4625   -0.9019   29.3964 H   0  0  0  0  0  0
   35.5154    0.1954   28.5573 H   0  0  0  0  0  0
   34.1947    2.6583   28.1365 H   0  0  0  0  0  0
   34.6095    1.7113   26.7288 H   0  0  0  0  0  0
   33.0012    2.3783   26.8829 H   0  0  0  0  0  0
   30.9396   -0.5250   23.8428 H   0  0  0  0  0  0
   31.2598   -2.2129   22.0736 H   0  0  0  0  0  0
   34.0592   -4.2875   24.5264 H   0  0  0  0  0  0
   33.7194   -2.6508   26.3322 H   0  0  0  0  0  0
   32.2016   -4.2829   21.5110 H   0  0  0  0  0  0
   32.7172    1.7234   30.4936 H   0  0  0  0  0  0
  1  2  1  0  0  0
  1 23  1  0  0  0
  1 24  1  0  0  0
  1 25  1  0  0  0
  2  7  1  0  0  0
  2  3  2  0  0  0
  3  4  1  0  0  0
  3 26  1  0  0  0
  4  5  1  0  0  0
  4 27  1  0  0  0
  4 28  1  0  0  0
  5 10  1  0  0  0
  5  6  1  0  0  0
  5 20  1  0  0  0
  6  7  1  0  0  0
  6 29  1  0  0  0
  6 30  1  0  0  0
  7 21  1  0  0  0
  7  8  1  0  0  0
  8 22  1  0  0  0
  8  9  1  0  0  0
  8 13  1  0  0  0
  9 10  1  0  0  0
 10 11  1  0  0  0
 10 12  1  0  0  0
 11 31  1  0  0  0
 11 32  1  0  0  0
 11 33  1  0  0  0
 12 34  1  0  0  0
 12 35  1  0  0  0
 12 36  1  0  0  0
 13 18  1  0  0  0
 13 14  2  0  0  0
 14 15  1  0  0  0
 14 37  1  0  0  0
 15 16  2  0  0  0
 15 38  1  0  0  0
 16 17  1  0  0  0
 16 19  1  0  0  0
 17 18  2  0  0  0
 17 39  1  0  0  0
 18 40  1  0  0  0
 19 41  1  0  0  0
 20 42  1  0  0  0
M  END
> <s_m_entry_id>
17553

> <s_m_entry_name>
ligand_docking-pose.480

> <s_m_Source_Path>
/home/csk/Desktop/cluster/DUD-E-result/esr1

> <s_m_Source_File>
ligand_docking-pose.sdf

> <i_m_Source_File_Index>
480

> <i_lp_mmshare_version>
53161

> <i_f3d_flags>
0

> <r_lp_tautomer_probability>
0.999999999997365

> <s_lp_Force_Field>
OPLS_2005

> <r_lp_Energy>
28.562372

> <b_lp_Chiralities_Consistent>
1

> <s_lp_Variant>
301037-1

> <s_i_glide_gridfile>
glide-grid_1sj0

> <i_i_glide_lignum>
938

> <i_i_glide_rotatable_bonds>
3

> <r_i_docking_score>
-7.95222849003368

> <r_i_glide_ligand_efficiency>
-0.397611424501684

> <r_i_glide_ligand_efficiency_sa>
-1.07928345414902

> <r_i_glide_ligand_efficiency_ln>
-1.99018050900608

> <r_i_glide_gscore>
-7.95222849003368

> <r_i_glide_lipo>
-4.43099880997204

> <r_i_glide_hbond>
0

> <r_i_glide_metal>
0

> <r_i_glide_rewards>
-2.27464724528612

> <r_i_glide_evdw>
-25.6468067169189

> <r_i_glide_ecoul>
-1.35191345214844

> <r_i_glide_erotb>
0.23854491889269

> <r_i_glide_esite>
0

> <r_i_glide_emodel>
-38.5591315791539

> <r_i_glide_energy>
-26.9987201690674

> <r_i_glide_einternal>
0.0894959419965744

> <i_i_glide_confnum>
1

> <i_i_glide_posenum>
9

> <r_i_glide_eff_state_penalty>
0

> <s_user_duplicate_titles>
301037

> <s_m_subgroup_title>
dock_pv

> <s_m_subgroupid>
dock_pv1

> <b_m_subgroup_collapsed>
0

$$$$
568763
                    3D
 Schrodinger Suite 2021-1.
 31 32  0  0  1  0            999 V2000
   31.7250   -2.5411   26.5474 C   0  0  0  0  0  0
   31.3628   -1.2644   27.2960 C   0  0  0  0  0  0
   30.1416   -0.9072   27.7508 C   0  0  0  0  0  0
   28.8718   -1.6488   27.7606 C   0  0  0  0  0  0
   28.8253   -3.0406   27.8640 C   0  0  0  0  0  0
   27.6123   -3.6983   28.0040 C   0  0  0  0  0  0
   26.4417   -2.9543   28.0357 C   0  0  0  0  0  0
   26.4600   -1.5729   27.8640 C   0  0  0  0  0  0
   27.6799   -0.9194   27.7320 C   0  0  0  0  0  0
   25.2600   -3.5886   28.2640 O   0  0  0  0  0  0
   32.4629   -0.3219   27.4956 C   0  0  0  0  0  0
   33.2970   -0.4127   28.6126 C   0  0  0  0  0  0
   34.3562    0.4796   28.7509 C   0  0  0  0  0  0
   34.5744    1.4430   27.7693 C   0  0  0  0  0  0
   33.7353    1.5469   26.6640 C   0  0  0  0  0  0
   32.6901    0.6444   26.5194 C   0  0  0  0  0  0
   35.6600    2.2580   27.8640 O   0  0  0  0  0  0
   32.4013   -2.3178   25.7214 H   0  0  0  0  0  0
   32.2307   -3.2429   27.2093 H   0  0  0  0  0  0
   30.8600   -3.0373   26.1144 H   0  0  0  0  0  0
   30.0734    0.0628   28.2259 H   0  0  0  0  0  0
   29.7206   -3.6343   27.8887 H   0  0  0  0  0  0
   27.5856   -4.7711   28.1221 H   0  0  0  0  0  0
   25.5416   -1.0058   27.8737 H   0  0  0  0  0  0
   27.6940    0.1574   27.6413 H   0  0  0  0  0  0
   24.8600   -3.7420   27.3871 H   0  0  0  0  0  0
   33.1338   -1.1736   29.3625 H   0  0  0  0  0  0
   35.0248    0.4072   29.5964 H   0  0  0  0  0  0
   33.9220    2.2822   25.8955 H   0  0  0  0  0  0
   32.0666    0.6580   25.6382 H   0  0  0  0  0  0
   35.9301    2.6334   27.0201 H   0  0  0  0  0  0
  1  2  1  0  0  0
  1 18  1  0  0  0
  1 19  1  0  0  0
  1 20  1  0  0  0
  2  3  2  0  0  0
  2 11  1  0  0  0
  3  4  1  0  0  0
  3 21  1  0  0  0
  4  9  1  0  0  0
  4  5  2  0  0  0
  5  6  1  0  0  0
  5 22  1  0  0  0
  6  7  2  0  0  0
  6 23  1  0  0  0
  7  8  1  0  0  0
  7 10  1  0  0  0
  8  9  2  0  0  0
  8 24  1  0  0  0
  9 25  1  0  0  0
 10 26  1  0  0  0
 11 16  1  0  0  0
 11 12  2  0  0  0
 12 13  1  0  0  0
 12 27  1  0  0  0
 13 14  2  0  0  0
 13 28  1  0  0  0
 14 15  1  0  0  0
 14 17  1  0  0  0
 15 16  2  0  0  0
 15 29  1  0  0  0
 16 30  1  0  0  0
 17 31  1  0  0  0
M  END
> <s_m_entry_id>
17554

> <s_m_entry_name>
ligand_docking-pose.481

> <s_m_Source_Path>
/home/csk/Desktop/cluster/DUD-E-result/esr1

> <s_m_Source_File>
ligand_docking-pose.sdf

> <i_m_Source_File_Index>
481

> <i_lp_mmshare_version>
53161

> <i_f3d_flags>
0

> <r_lp_tautomer_probability>
1

> <s_lp_Force_Field>
OPLS_2005

> <r_lp_Energy>
17.660193

> <b_lp_Chiralities_Consistent>
1

> <s_lp_Variant>
568763-1

> <s_i_glide_gridfile>
glide-grid_1sj0

> <i_i_glide_lignum>
1274

> <i_i_glide_rotatable_bonds>
4

> <r_i_docking_score>
-7.95179239426075

> <r_i_glide_ligand_efficiency>
-0.467752493780044

> <r_i_glide_ligand_efficiency_sa>
-1.20272337510525

> <r_i_glide_ligand_efficiency_ln>
-2.07444555795226

> <r_i_glide_gscore>
-7.95179239426075

> <r_i_glide_lipo>
-3.40684792889496

> <r_i_glide_hbond>
-0.389808479392218

> <r_i_glide_metal>
0

> <r_i_glide_rewards>
-2.57286168394458

> <r_i_glide_evdw>
-27.8194713592529

> <r_i_glide_ecoul>
-4.37273788452148

> <r_i_glide_erotb>
0.464609948611869

> <r_i_glide_esite>
0

> <r_i_glide_emodel>
-42.6043851996892

> <r_i_glide_energy>
-32.1922092437744

> <r_i_glide_einternal>
8.77997970581055

> <i_i_glide_confnum>
2

> <i_i_glide_posenum>
256

> <r_i_glide_eff_state_penalty>
0

> <s_user_duplicate_titles>
568763

> <s_m_subgroup_title>
dock_pv

> <s_m_subgroupid>
dock_pv1

> <b_m_subgroup_collapsed>
0

$$$$
354000
                    3D
 Schrodinger Suite 2021-1.
 35 38  0  0  1  0            999 V2000
   31.4214   -1.1663   25.2267 C   0  0  0  0  0  0
   32.4040   -1.4925   26.3701 C   0  0  0  0  0  0
   31.8846   -1.3746   27.8420 C   0  0  1  0  0  0
   32.9918   -1.7875   28.8526 C   0  0  0  0  0  0
   34.1804   -0.8001   28.8672 C   0  0  0  0  0  0
   33.7166    0.6281   29.1619 C   0  0  0  0  0  0
   34.4937    1.4569   29.6298 O   0  0  0  0  0  0
   32.3260    0.9433   28.8080 C   0  0  0  0  0  0
   31.4861    0.0620   28.2096 C   0  0  0  0  0  0
   30.0577    0.1977   27.8791 C   0  0  0  0  0  0
   29.2636    1.3317   27.7099 C   0  0  0  0  0  0
   27.8979    1.2454   27.4622 C   0  0  0  0  0  0
   27.3446   -0.0327   27.4638 C   0  0  0  0  0  0
   28.1235   -1.2035   27.6370 C   0  0  0  0  0  0
   29.5077   -1.0778   27.8106 C   0  0  0  0  0  0
   30.5557   -2.1316   28.0477 C   0  0  0  0  0  0
   27.1745   -2.2624   27.5933 C   0  0  0  0  0  0
   25.9603   -1.7970   27.4643 N   0  0  0  0  0  0
   26.0484   -0.4684   27.3366 N   0  0  0  0  0  0
   31.6596    2.4338   29.4634 Cl  0  0  0  0  0  0
   25.2225    0.0917   27.1781 H   0  0  0  0  0  0
   31.9068   -1.2818   24.2572 H   0  0  0  0  0  0
   30.5542   -1.8256   25.2324 H   0  0  0  0  0  0
   31.0635   -0.1394   25.2854 H   0  0  0  0  0  0
   33.2597   -0.8355   26.2407 H   0  0  0  0  0  0
   32.7814   -2.5034   26.2106 H   0  0  0  0  0  0
   33.3320   -2.8099   28.6815 H   0  0  0  0  0  0
   32.5729   -1.7446   29.8593 H   0  0  0  0  0  0
   34.9710   -1.0878   29.5599 H   0  0  0  0  0  0
   34.6227   -0.7435   27.8777 H   0  0  0  0  0  0
   29.7045    2.3104   27.7434 H   0  0  0  0  0  0
   27.2989    2.1269   27.3173 H   0  0  0  0  0  0
   30.4580   -2.9847   27.3751 H   0  0  0  0  0  0
   30.4599   -2.5140   29.0639 H   0  0  0  0  0  0
   27.3550   -3.3245   27.6755 H   0  0  0  0  0  0
  1  2  1  0  0  0
  1 22  1  0  0  0
  1 23  1  0  0  0
  1 24  1  0  0  0
  2  3  1  0  0  0
  2 25  1  0  0  0
  2 26  1  0  0  0
  3  9  1  0  0  0
  3 16  1  0  0  0
  3  4  1  0  0  0
  4  5  1  0  0  0
  4 27  1  0  0  0
  4 28  1  0  0  0
  5  6  1  0  0  0
  5 29  1  0  0  0
  5 30  1  0  0  0
  6  7  2  0  0  0
  6  8  1  0  0  0
  8  9  2  0  0  0
  8 20  1  0  0  0
  9 10  1  0  0  0
 10 15  1  0  0  0
 10 11  2  0  0  0
 11 12  1  0  0  0
 11 31  1  0  0  0
 12 13  2  0  0  0
 12 32  1  0  0  0
 13 19  1  0  0  0
 13 14  1  0  0  0
 14 15  2  0  0  0
 14 17  1  0  0  0
 15 16  1  0  0  0
 16 33  1  0  0  0
 16 34  1  0  0  0
 17 18  2  0  0  0
 17 35  1  0  0  0
 18 19  1  0  0  0
 19 21  1  0  0  0
M  END
> <s_m_entry_id>
17555

> <s_m_entry_name>
ligand_docking-pose.482

> <s_m_Source_Path>
/home/csk/Desktop/cluster/DUD-E-result/esr1

> <s_m_Source_File>
ligand_docking-pose.sdf

> <i_m_Source_File_Index>
482

> <i_lp_mmshare_version>
53161

> <i_f3d_flags>
0

> <r_lp_tautomer_probability>
1

> <s_lp_Force_Field>
OPLS_2005

> <r_lp_Energy>
37.089215

> <b_lp_Chiralities_Consistent>
1

> <s_lp_Variant>
354000-1

> <s_i_glide_gridfile>
glide-grid_1sj0

> <i_i_glide_lignum>
1073

> <i_i_glide_rotatable_bonds>
1

> <r_i_docking_score>
-7.94490786834628

> <r_i_glide_ligand_efficiency>
-0.397245393417314

> <r_i_glide_ligand_efficiency_sa>
-1.07828989292638

> <r_i_glide_ligand_efficiency_ln>
-1.98834839884798

> <r_i_glide_gscore>
-7.94490786834628

> <r_i_glide_lipo>
-3.54273503174253

> <r_i_glide_hbond>
-0.0319229957677374

> <r_i_glide_metal>
0

> <r_i_glide_rewards>
-2.69810644112059

> <r_i_glide_evdw>
-31.2727012634277

> <r_i_glide_ecoul>
-0.723388910293579

> <r_i_glide_erotb>
0

> <r_i_glide_esite>
0

> <r_i_glide_emodel>
-43.0152152210406

> <r_i_glide_energy>
-31.9960901737213

> <r_i_glide_einternal>
1.25443685054779

> <i_i_glide_confnum>
1

> <i_i_glide_posenum>
387

> <r_i_glide_eff_state_penalty>
0

> <s_user_duplicate_titles>
354000

> <s_m_subgroup_title>
dock_pv

> <s_m_subgroupid>
dock_pv1

> <b_m_subgroup_collapsed>
0

$$$$
612026
                    3D
 Schrodinger Suite 2021-1.
 45 48  0  0  1  0            999 V2000
   29.0068   -1.0762   28.2640 C   0  0  0  0  0  0
   30.1171   -0.0384   27.9241 C   0  0  2  0  0  0
   29.8194    0.4878   26.4899 C   0  0  0  0  0  0
   30.0565   -0.5496   25.3700 C   0  0  0  0  0  0
   31.4520   -1.2225   25.4723 C   0  0  2  0  0  0
   31.8313   -2.2072   24.3446 C   0  0  0  0  0  0
   31.2600   -2.1420   23.0853 C   0  0  0  0  0  0
   31.6601   -2.9421   22.0073 C   0  0  0  0  0  0
   32.7530   -3.7822   22.1797 C   0  0  0  0  0  0
   33.3057   -3.9023   23.4448 C   0  0  0  0  0  0
   32.7807   -3.2112   24.5397 C   0  0  0  0  0  0
   33.1148   -3.6450   25.9366 C   0  0  0  0  0  0
   33.0459   -2.5061   26.9420 C   0  0  0  0  0  0
   31.6848   -1.8051   26.8948 C   0  0  1  0  0  0
   31.5580   -0.6516   27.9330 C   0  0  2  0  0  0
   32.0546   -0.9663   29.3635 C   0  0  0  0  0  0
   32.1748    0.3264   30.1650 C   0  0  0  0  0  0
   30.8456    1.0893   30.2336 C   0  0  0  0  0  0
   30.0328    1.1716   28.9178 C   0  0  0  0  0  0
   29.3831    2.1863   28.6640 O   0  0  0  0  0  0
   33.2529   -4.5421   21.1552 O   0  0  0  0  0  0
   30.7870   -2.9420   20.5107 Cl  0  0  0  0  0  0
   32.1748   -0.4161   25.3292 H   0  0  0  0  0  0
   30.9212   -2.5620   27.0829 H   0  0  0  0  0  0
   32.2276    0.1349   27.5724 H   0  0  0  0  0  0
   28.7757   -1.7503   27.4413 H   0  0  0  0  0  0
   29.2983   -1.7299   29.0823 H   0  0  0  0  0  0
   28.0643   -0.6008   28.5427 H   0  0  0  0  0  0
   28.7825    0.8220   26.4046 H   0  0  0  0  0  0
   30.4595    1.3410   26.2751 H   0  0  0  0  0  0
   29.2698   -1.3040   25.3658 H   0  0  0  0  0  0
   29.9684    0.0112   24.4423 H   0  0  0  0  0  0
   30.4169   -1.4846   23.0640 H   0  0  0  0  0  0
   34.0600   -4.6502   23.6035 H   0  0  0  0  0  0
   32.4172   -4.4084   26.2640 H   0  0  0  0  0  0
   34.0600   -4.1420   25.8640 H   0  0  0  0  0  0
   33.2605   -2.9144   27.9278 H   0  0  0  0  0  0
   33.8077   -1.7599   26.7594 H   0  0  0  0  0  0
   31.4369   -1.7250   29.8446 H   0  0  0  0  0  0
   33.0575   -1.3882   29.3492 H   0  0  0  0  0  0
   32.5178    0.0986   31.1752 H   0  0  0  0  0  0
   32.9425    0.9672   29.7264 H   0  0  0  0  0  0
   30.2055    0.6600   30.9985 H   0  0  0  0  0  0
   31.0632    2.1078   30.5495 H   0  0  0  0  0  0
   32.5632   -4.8326   20.5420 H   0  0  0  0  0  0
  1  2  1  0  0  0
  1 26  1  0  0  0
  1 27  1  0  0  0
  1 28  1  0  0  0
  2 15  1  0  0  0
  2 19  1  0  0  0
  2  3  1  0  0  0
  3  4  1  0  0  0
  3 29  1  0  0  0
  3 30  1  0  0  0
  4  5  1  0  0  0
  4 31  1  0  0  0
  4 32  1  0  0  0
  5 23  1  0  0  0
  5 14  1  0  0  0
  5  6  1  0  0  0
  6 11  2  0  0  0
  6  7  1  0  0  0
  7  8  2  0  0  0
  7 33  1  0  0  0
  8  9  1  0  0  0
  8 22  1  0  0  0
  9 10  2  0  0  0
  9 21  1  0  0  0
 10 11  1  0  0  0
 10 34  1  0  0  0
 11 12  1  0  0  0
 12 13  1  0  0  0
 12 35  1  0  0  0
 12 36  1  0  0  0
 13 14  1  0  0  0
 13 37  1  0  0  0
 13 38  1  0  0  0
 14 24  1  0  0  0
 14 15  1  0  0  0
 15 25  1  0  0  0
 15 16  1  0  0  0
 16 17  1  0  0  0
 16 39  1  0  0  0
 16 40  1  0  0  0
 17 18  1  0  0  0
 17 41  1  0  0  0
 17 42  1  0  0  0
 18 19  1  0  0  0
 18 43  1  0  0  0
 18 44  1  0  0  0
 19 20  2  0  0  0
 21 45  1  0  0  0
M  END
> <s_m_entry_id>
17556

> <s_m_entry_name>
ligand_docking-pose.483

> <s_m_Source_Path>
/home/csk/Desktop/cluster/DUD-E-result/esr1

> <s_m_Source_File>
ligand_docking-pose.sdf

> <i_m_Source_File_Index>
483

> <i_lp_mmshare_version>
53161

> <i_f3d_flags>
0

> <r_lp_tautomer_probability>
0.999949999997365

> <s_lp_Force_Field>
OPLS_2005

> <r_lp_Energy>
32.331891

> <b_lp_Chiralities_Consistent>
1

> <s_lp_Variant>
612026-1

> <s_i_glide_gridfile>
glide-grid_1sj0

> <i_i_glide_lignum>
807

> <i_i_glide_rotatable_bonds>
1

> <r_i_docking_score>
-7.92330164620466

> <r_i_glide_ligand_efficiency>
-0.360150074827485

> <r_i_glide_ligand_efficiency_sa>
-1.00915467356531

> <r_i_glide_ligand_efficiency_ln>
-1.9367439317821

> <r_i_glide_gscore>
-7.92330164620466

> <r_i_glide_lipo>
-4.12660906429944

> <r_i_glide_hbond>
-0.1328645041092

> <r_i_glide_metal>
0

> <r_i_glide_rewards>
-2.40435316252999

> <r_i_glide_evdw>
-20.5411109924316

> <r_i_glide_ecoul>
-1.5494624376297

> <r_i_glide_erotb>
0

> <r_i_glide_esite>
0

> <r_i_glide_emodel>
-49.8096324447433

> <r_i_glide_energy>
-22.0905734300613

> <r_i_glide_einternal>
2.47094655036926

> <i_i_glide_confnum>
1

> <i_i_glide_posenum>
359

> <r_i_glide_eff_state_penalty>
0

> <s_user_duplicate_titles>
612026

> <s_m_subgroup_title>
dock_pv

> <s_m_subgroupid>
dock_pv1

> <b_m_subgroup_collapsed>
0

$$$$
330366
                    3D
 Schrodinger Suite 2021-1.
 33 35  0  0  1  0            999 V2000
   27.9453    0.7064   27.4639 C   0  0  0  0  0  0
   29.0073    0.8299   26.6513 C   0  0  0  0  0  0
   30.2483    0.0369   26.7450 C   0  0  0  0  0  0
   30.6232   -0.7134   25.6292 C   0  0  0  0  0  0
   31.7917   -1.4872   25.6379 C   0  0  0  0  0  0
   32.5788   -1.5493   26.7457 N   0  0  0  0  0  0
   32.2614   -0.8131   27.8450 C   0  0  0  0  0  0
   31.0967    0.0157   27.8963 C   0  0  0  0  0  0
   30.8608    0.7826   29.0738 C   0  0  0  0  0  0
   31.7424    0.7139   30.1498 C   0  0  0  0  0  0
   32.8614   -0.1062   30.0950 C   0  0  0  0  0  0
   33.1307   -0.8684   28.9625 C   0  0  0  0  0  0
   31.5136    1.4578   31.2752 O   0  0  0  0  0  0
   32.2305   -2.3110   24.4535 C   0  0  0  0  0  0
   33.1928   -3.3236   24.5623 C   0  0  0  0  0  0
   33.5216   -4.1169   23.4637 C   0  0  0  0  0  0
   32.9168   -3.9413   22.2290 C   0  0  0  0  0  0
   31.9669   -2.9433   22.0929 C   0  0  0  0  0  0
   31.6600   -2.1282   23.1867 C   0  0  0  0  0  0
   31.3074   -2.8147   20.9207 F   0  0  0  0  0  0
   33.2599   -4.7451   21.1708 O   0  0  0  0  0  0
   27.0694    1.3257   27.3354 H   0  0  0  0  0  0
   27.9342   -0.0181   28.2638 H   0  0  0  0  0  0
   28.9692    1.5669   25.8642 H   0  0  0  0  0  0
   29.9730   -0.6970   24.7687 H   0  0  0  0  0  0
   29.9994    1.4301   29.1258 H   0  0  0  0  0  0
   33.5366   -0.1420   30.9372 H   0  0  0  0  0  0
   34.0111   -1.4945   28.9285 H   0  0  0  0  0  0
   30.7286    2.0040   31.2100 H   0  0  0  0  0  0
   33.6592   -3.5386   25.5117 H   0  0  0  0  0  0
   34.1814   -4.9419   23.6059 H   0  0  0  0  0  0
   30.9140   -1.3666   23.0663 H   0  0  0  0  0  0
   32.5030   -5.1129   20.6873 H   0  0  0  0  0  0
  1  2  2  0  0  0
  1 22  1  0  0  0
  1 23  1  0  0  0
  2  3  1  0  0  0
  2 24  1  0  0  0
  3  8  1  0  0  0
  3  4  2  0  0  0
  4  5  1  0  0  0
  4 25  1  0  0  0
  5  6  2  0  0  0
  5 14  1  0  0  0
  6  7  1  0  0  0
  7 12  2  0  0  0
  7  8  1  0  0  0
  8  9  2  0  0  0
  9 10  1  0  0  0
  9 26  1  0  0  0
 10 11  2  0  0  0
 10 13  1  0  0  0
 11 12  1  0  0  0
 11 27  1  0  0  0
 12 28  1  0  0  0
 13 29  1  0  0  0
 14 19  1  0  0  0
 14 15  2  0  0  0
 15 16  1  0  0  0
 15 30  1  0  0  0
 16 17  2  0  0  0
 16 31  1  0  0  0
 17 18  1  0  0  0
 17 21  1  0  0  0
 18 19  2  0  0  0
 18 20  1  0  0  0
 19 32  1  0  0  0
 21 33  1  0  0  0
M  END
> <s_m_entry_id>
17557

> <s_m_entry_name>
ligand_docking-pose.484

> <s_m_Source_Path>
/home/csk/Desktop/cluster/DUD-E-result/esr1

> <s_m_Source_File>
ligand_docking-pose.sdf

> <i_m_Source_File_Index>
484

> <i_lp_mmshare_version>
53161

> <i_f3d_flags>
0

> <r_lp_tautomer_probability>
0.999999999997365

> <s_lp_Force_Field>
OPLS_2005

> <r_lp_Energy>
17.865474

> <b_lp_Chiralities_Consistent>
1

> <s_lp_Variant>
330366-1

> <s_i_glide_gridfile>
glide-grid_1sj0

> <i_i_glide_lignum>
1168

> <i_i_glide_rotatable_bonds>
4

> <r_i_docking_score>
-7.92123954806533

> <r_i_glide_ligand_efficiency>
-0.377201883241206

> <r_i_glide_ligand_efficiency_sa>
-1.04067139399454

> <r_i_glide_ligand_efficiency_ln>
-1.95851047188751

> <r_i_glide_gscore>
-7.92123954806533

> <r_i_glide_lipo>
-4.06989654694264

> <r_i_glide_hbond>
-0.16

> <r_i_glide_metal>
0

> <r_i_glide_rewards>
-2.23639973085695

> <r_i_glide_evdw>
-30.3421611785889

> <r_i_glide_ecoul>
-2.3434464931488

> <r_i_glide_erotb>
0.456888572608634

> <r_i_glide_esite>
-0.0432068099726065

> <r_i_glide_emodel>
-45.6360018798566

> <r_i_glide_energy>
-32.6856076717377

> <r_i_glide_einternal>
3.74399733543396

> <i_i_glide_confnum>
9

> <i_i_glide_posenum>
382

> <r_i_glide_eff_state_penalty>
0

> <s_user_duplicate_titles>
330366

> <s_m_subgroup_title>
dock_pv

> <s_m_subgroupid>
dock_pv1

> <b_m_subgroup_collapsed>
0

$$$$
463674
                    3D
 Schrodinger Suite 2021-1.
 42 45  0  0  1  0            999 V2000
   33.6600   -3.7616   23.3905 C   0  0  0  0  0  0
   33.4638   -3.3420   24.7073 C   0  0  0  0  0  0
   32.3815   -2.5271   25.0627 C   0  0  0  0  0  0
   31.5505   -2.0790   24.0168 C   0  0  0  0  0  0
   31.7234   -2.5675   22.7149 C   0  0  0  0  0  0
   32.7617   -3.4220   22.4010 C   0  0  0  0  0  0
   32.9117   -3.9271   21.1365 O   0  0  0  0  0  0
   30.5067   -1.0101   24.2640 C   0  0  0  0  0  0
   30.0816   -0.8417   25.7240 C   0  0  0  0  0  0
   31.3393   -0.7553   26.5927 C   0  0  2  0  0  0
   32.0544   -2.1382   26.5266 C   0  0  2  0  0  0
   33.2389   -2.2410   27.5131 C   0  0  0  0  0  0
   32.9832   -1.6593   28.9231 C   0  0  0  0  0  0
   32.3592   -0.2530   28.8831 C   0  0  1  0  0  0
   31.0570   -0.3501   28.0614 C   0  0  1  0  0  0
   30.3264    0.9706   28.3471 C   0  0  0  0  0  0
   30.8018    1.3841   29.7555 C   0  0  0  0  0  0
   31.8517    0.3497   30.2037 C   0  0  2  0  0  0
   32.8320    0.8740   31.0817 O   0  0  0  0  0  0
   33.3264    0.5911   28.2623 O   0  0  0  0  0  0
   32.0065   -0.0041   26.1632 H   0  0  0  0  0  0
   31.3416   -2.8970   26.8576 H   0  0  0  0  0  0
   30.4359   -1.1426   28.4883 H   0  0  0  0  0  0
   31.3202   -0.4336   30.7491 H   0  0  0  0  0  0
   34.4600   -4.4177   23.1076 H   0  0  0  0  0  0
   34.1331   -3.7079   25.4640 H   0  0  0  0  0  0
   31.0568   -2.2798   21.9238 H   0  0  0  0  0  0
   32.1210   -4.3460   20.7722 H   0  0  0  0  0  0
   31.0301   -0.1420   23.9243 H   0  0  0  0  0  0
   29.6600   -1.1338   23.6044 H   0  0  0  0  0  0
   29.4113   -1.6303   26.0700 H   0  0  0  0  0  0
   29.4990    0.0757   25.8154 H   0  0  0  0  0  0
   33.5300   -3.2840   27.6440 H   0  0  0  0  0  0
   34.0600   -1.6968   27.0640 H   0  0  0  0  0  0
   33.8784   -1.6755   29.5467 H   0  0  0  0  0  0
   32.2930   -2.3137   29.4488 H   0  0  0  0  0  0
   29.2433    0.8421   28.3173 H   0  0  0  0  0  0
   30.5870    1.7288   27.6065 H   0  0  0  0  0  0
   29.9836    1.4580   30.4728 H   0  0  0  0  0  0
   31.2631    2.3690   29.6913 H   0  0  0  0  0  0
   33.3343    0.1427   31.4516 H   0  0  0  0  0  0
   33.9884    0.8138   28.9219 H   0  0  0  0  0  0
  1  6  1  0  0  0
  1  2  2  0  0  0
  1 25  1  0  0  0
  2  3  1  0  0  0
  2 26  1  0  0  0
  3 11  1  0  0  0
  3  4  2  0  0  0
  4  5  1  0  0  0
  4  8  1  0  0  0
  5  6  2  0  0  0
  5 27  1  0  0  0
  6  7  1  0  0  0
  7 28  1  0  0  0
  8  9  1  0  0  0
  8 29  1  0  0  0
  8 30  1  0  0  0
  9 10  1  0  0  0
  9 31  1  0  0  0
  9 32  1  0  0  0
 10 21  1  0  0  0
 10 15  1  0  0  0
 10 11  1  0  0  0
 11 22  1  0  0  0
 11 12  1  0  0  0
 12 13  1  0  0  0
 12 33  1  0  0  0
 12 34  1  0  0  0
 13 14  1  0  0  0
 13 35  1  0  0  0
 13 36  1  0  0  0
 14 18  1  0  0  0
 14 15  1  0  0  0
 14 20  1  0  0  0
 15 23  1  0  0  0
 15 16  1  0  0  0
 16 17  1  0  0  0
 16 37  1  0  0  0
 16 38  1  0  0  0
 17 18  1  0  0  0
 17 39  1  0  0  0
 17 40  1  0  0  0
 18 24  1  0  0  0
 18 19  1  0  0  0
 19 41  1  0  0  0
 20 42  1  0  0  0
M  END
> <s_m_entry_id>
17558

> <s_m_entry_name>
ligand_docking-pose.485

> <s_m_Source_Path>
/home/csk/Desktop/cluster/DUD-E-result/esr1

> <s_m_Source_File>
ligand_docking-pose.sdf

> <i_m_Source_File_Index>
485

> <i_lp_mmshare_version>
53161

> <i_f3d_flags>
0

> <r_lp_tautomer_probability>
0.999999999997365

> <s_lp_Force_Field>
OPLS_2005

> <r_lp_Energy>
49.290184

> <b_lp_Chiralities_Consistent>
1

> <s_lp_Variant>
463674-1

> <s_i_glide_gridfile>
glide-grid_1sj0

> <i_i_glide_lignum>
23

> <i_i_glide_rotatable_bonds>
3

> <r_i_docking_score>
-7.9195031911448

> <r_i_glide_ligand_efficiency>
-0.39597515955724

> <r_i_glide_ligand_efficiency_sa>
-1.07484194776284

> <r_i_glide_ligand_efficiency_ln>
-1.98199044604678

> <r_i_glide_gscore>
-7.9195031911448

> <r_i_glide_lipo>
-4.33448704532515

> <r_i_glide_hbond>
-0.0665276986772757

> <r_i_glide_metal>
0

> <r_i_glide_rewards>
-2.06032711691929

> <r_i_glide_evdw>
-24.9286594390869

> <r_i_glide_ecoul>
-1.41152238845825

> <r_i_glide_erotb>
0

> <r_i_glide_esite>
0

> <r_i_glide_emodel>
-39.5663521238921

> <r_i_glide_energy>
-26.3401818275452

> <r_i_glide_einternal>
2.88546538352966

> <i_i_glide_confnum>
1

> <i_i_glide_posenum>
34

> <r_i_glide_eff_state_penalty>
0

> <s_user_duplicate_titles>
463674

> <s_m_subgroup_title>
dock_pv

> <s_m_subgroupid>
dock_pv1

> <b_m_subgroup_collapsed>
0

$$$$
339239
                    3D
 Schrodinger Suite 2021-1.
 43 44  0  0  1  0            999 V2000
   33.7194    2.7331   26.8134 C   0  0  0  0  0  0
   32.8426    1.5386   26.5359 C   0  0  0  0  0  0
   33.0257    0.3641   27.4747 C   0  0  0  0  0  0
   31.8767   -0.5138   27.3346 N   0  0  0  0  0  0
   31.9776   -1.5035   26.3393 C   0  0  0  0  0  0
   32.9123   -2.5314   26.4926 C   0  0  0  0  0  0
   33.2559   -3.3420   25.4109 C   0  0  0  0  0  0
   32.6497   -3.1552   24.1745 C   0  0  0  0  0  0
   31.6607   -2.1896   24.0334 C   0  0  0  0  0  0
   31.2853   -1.3907   25.1168 C   0  0  0  0  0  0
   30.1313   -0.4268   24.9108 C   0  0  0  0  0  0
   30.7763   -0.5592   28.7035 S   0  0  0  0  0  0
   31.1523   -1.7423   29.4641 O   0  0  0  0  0  0
   30.7926    0.7672   29.3349 O   0  0  0  0  0  0
   29.1413   -0.8098   28.0667 C   0  0  0  0  0  0
   28.3238    0.2891   27.8062 C   0  0  0  0  0  0
   27.0256    0.0854   27.3536 C   0  0  0  0  0  0
   26.5454   -1.2061   27.1446 C   0  0  0  0  0  0
   27.3649   -2.3144   27.4184 C   0  0  0  0  0  0
   28.6702   -2.1063   27.8642 C   0  0  0  0  0  0
   26.8599   -3.7417   27.3021 C   0  0  0  0  0  0
   25.2714   -1.3420   26.6641 O   0  0  0  0  0  0
   33.2600    3.5460   26.2641 H   0  0  0  0  0  0
   33.7326    3.0101   27.8640 H   0  0  0  0  0  0
   34.7436    2.5784   26.4737 H   0  0  0  0  0  0
   32.9352    1.2197   25.4968 H   0  0  0  0  0  0
   31.8075    1.8581   26.6640 H   0  0  0  0  0  0
   33.0545    0.7723   28.4852 H   0  0  0  0  0  0
   34.0016   -0.1155   27.4177 H   0  0  0  0  0  0
   33.4315   -2.6502   27.4322 H   0  0  0  0  0  0
   34.0061   -4.1112   25.5067 H   0  0  0  0  0  0
   32.9236   -3.7785   23.3352 H   0  0  0  0  0  0
   31.1685   -2.0863   23.0776 H   0  0  0  0  0  0
   29.1942   -0.9072   25.1873 H   0  0  0  0  0  0
   30.2363    0.4834   25.4963 H   0  0  0  0  0  0
   30.0600   -0.1420   23.8627 H   0  0  0  0  0  0
   28.6836    1.2958   27.9633 H   0  0  0  0  0  0
   26.3925    0.9362   27.1493 H   0  0  0  0  0  0
   29.3102   -2.9514   28.0785 H   0  0  0  0  0  0
   25.8440   -3.8081   27.6918 H   0  0  0  0  0  0
   26.8602   -4.0711   26.2648 H   0  0  0  0  0  0
   27.4615   -4.4378   27.8885 H   0  0  0  0  0  0
   25.0802   -2.2281   26.2847 H   0  0  0  0  0  0
  1  2  1  0  0  0
  1 23  1  0  0  0
  1 24  1  0  0  0
  1 25  1  0  0  0
  2  3  1  0  0  0
  2 26  1  0  0  0
  2 27  1  0  0  0
  3  4  1  0  0  0
  3 28  1  0  0  0
  3 29  1  0  0  0
  4  5  1  0  0  0
  4 12  1  0  0  0
  5 10  1  0  0  0
  5  6  2  0  0  0
  6  7  1  0  0  0
  6 30  1  0  0  0
  7  8  2  0  0  0
  7 31  1  0  0  0
  8  9  1  0  0  0
  8 32  1  0  0  0
  9 10  2  0  0  0
  9 33  1  0  0  0
 10 11  1  0  0  0
 11 34  1  0  0  0
 11 35  1  0  0  0
 11 36  1  0  0  0
 12 13  2  0  0  0
 12 14  2  0  0  0
 12 15  1  0  0  0
 15 20  1  0  0  0
 15 16  2  0  0  0
 16 17  1  0  0  0
 16 37  1  0  0  0
 17 18  2  0  0  0
 17 38  1  0  0  0
 18 19  1  0  0  0
 18 22  1  0  0  0
 19 20  2  0  0  0
 19 21  1  0  0  0
 20 39  1  0  0  0
 21 40  1  0  0  0
 21 41  1  0  0  0
 21 42  1  0  0  0
 22 43  1  0  0  0
M  END
> <s_m_entry_id>
17559

> <s_m_entry_name>
ligand_docking-pose.486

> <s_m_Source_Path>
/home/csk/Desktop/cluster/DUD-E-result/esr1

> <s_m_Source_File>
ligand_docking-pose.sdf

> <i_m_Source_File_Index>
486

> <i_lp_mmshare_version>
53161

> <i_f3d_flags>
0

> <r_lp_tautomer_probability>
0.999999999997365

> <s_lp_Force_Field>
OPLS_2005

> <r_lp_Energy>
10.101057

> <b_lp_Chiralities_Consistent>
1

> <s_lp_Variant>
339239-1

> <s_i_glide_gridfile>
glide-grid_1sj0

> <i_i_glide_lignum>
1538

> <i_i_glide_rotatable_bonds>
6

> <r_i_docking_score>
-7.91803737011834

> <r_i_glide_ligand_efficiency>
-0.359910789550834

> <r_i_glide_ligand_efficiency_sa>
-1.00848418680958

> <r_i_glide_ligand_efficiency_ln>
-1.93545715068747

> <r_i_glide_gscore>
-7.91803737011834

> <r_i_glide_lipo>
-4.07619462316172

> <r_i_glide_hbond>
-0.197504467063578

> <r_i_glide_metal>
0

> <r_i_glide_rewards>
-1.41183953967263

> <r_i_glide_evdw>
-34.7921333312988

> <r_i_glide_ecoul>
-6.69962644577026

> <r_i_glide_erotb>
0.512051893210075

> <r_i_glide_esite>
0

> <r_i_glide_emodel>
-54.1560804204728

> <r_i_glide_energy>
-41.4917597770691

> <r_i_glide_einternal>
4.56732559204102

> <i_i_glide_confnum>
24

> <i_i_glide_posenum>
128

> <r_i_glide_eff_state_penalty>
0

> <s_user_duplicate_titles>
339239

> <s_m_subgroup_title>
dock_pv

> <s_m_subgroupid>
dock_pv1

> <b_m_subgroup_collapsed>
0

$$$$
351152
                    3D
 Schrodinger Suite 2021-1.
 42 44  0  0  1  0            999 V2000
   26.4909   -3.3578   28.0494 C   0  0  0  0  0  0
   26.3638   -1.8367   27.8598 C   0  0  0  0  0  0
   27.4874   -1.1982   27.0189 C   0  0  0  0  0  0
   28.9259   -1.4628   27.5347 C   0  0  0  0  0  0
   30.0498   -0.5342   26.9565 C   0  0  1  0  0  0
   29.9101    0.9394   27.4313 C   0  0  0  0  0  0
   30.0838    1.0898   28.9602 C   0  0  0  0  0  0
   31.3197    0.3495   29.5087 C   0  0  0  0  0  0
   31.6489    0.5129   30.6844 O   0  0  0  0  0  0
   31.9698   -0.6539   28.6277 C   0  0  0  0  0  0
   31.4272   -1.0276   27.4351 C   0  0  0  0  0  0
   31.9688   -1.8899   26.3528 C   0  0  0  0  0  0
   33.0591   -2.7614   26.3065 C   0  0  0  0  0  0
   33.4468   -3.3420   25.0970 C   0  0  0  0  0  0
   32.7540   -3.0585   23.9260 C   0  0  0  0  0  0
   31.6617   -2.1959   23.9651 C   0  0  0  0  0  0
   31.2549   -1.6494   25.1819 C   0  0  0  0  0  0
   30.1542   -0.6729   25.4269 C   0  0  0  0  0  0
   33.1460   -3.6433   22.7515 O   0  0  0  0  0  0
   33.3414   -1.1376   29.1076 C   0  0  0  0  0  0
   25.6262   -3.7531   28.5830 H   0  0  0  0  0  0
   27.3806   -3.6247   28.6194 H   0  0  0  0  0  0
   26.5468   -3.8690   27.0876 H   0  0  0  0  0  0
   25.4137   -1.6331   27.3646 H   0  0  0  0  0  0
   26.2972   -1.3403   28.8273 H   0  0  0  0  0  0
   27.3924   -1.5635   25.9959 H   0  0  0  0  0  0
   27.2970   -0.1269   26.9726 H   0  0  0  0  0  0
   28.9286   -1.4069   28.6241 H   0  0  0  0  0  0
   29.1729   -2.5021   27.3111 H   0  0  0  0  0  0
   30.6645    1.5542   26.9389 H   0  0  0  0  0  0
   28.9523    1.3600   27.1251 H   0  0  0  0  0  0
   29.2167    0.6589   29.4562 H   0  0  0  0  0  0
   30.1415    2.1370   29.2545 H   0  0  0  0  0  0
   33.6258   -2.9975   27.1930 H   0  0  0  0  0  0
   34.2905   -4.0164   25.0637 H   0  0  0  0  0  0
   31.1261   -1.9681   23.0578 H   0  0  0  0  0  0
   29.2300   -0.9823   24.9528 H   0  0  0  0  0  0
   30.4403    0.2579   24.9618 H   0  0  0  0  0  0
   32.5232   -3.5318   22.0284 H   0  0  0  0  0  0
   33.7769   -0.5266   29.9002 H   0  0  0  0  0  0
   33.2787   -2.1611   29.4771 H   0  0  0  0  0  0
   34.0597   -1.1043   28.2899 H   0  0  0  0  0  0
  1  2  1  0  0  0
  1 21  1  0  0  0
  1 22  1  0  0  0
  1 23  1  0  0  0
  2  3  1  0  0  0
  2 24  1  0  0  0
  2 25  1  0  0  0
  3  4  1  0  0  0
  3 26  1  0  0  0
  3 27  1  0  0  0
  4  5  1  0  0  0
  4 28  1  0  0  0
  4 29  1  0  0  0
  5 11  1  0  0  0
  5 18  1  0  0  0
  5  6  1  0  0  0
  6  7  1  0  0  0
  6 30  1  0  0  0
  6 31  1  0  0  0
  7  8  1  0  0  0
  7 32  1  0  0  0
  7 33  1  0  0  0
  8  9  2  0  0  0
  8 10  1  0  0  0
 10 11  2  0  0  0
 10 20  1  0  0  0
 11 12  1  0  0  0
 12 17  1  0  0  0
 12 13  2  0  0  0
 13 14  1  0  0  0
 13 34  1  0  0  0
 14 15  2  0  0  0
 14 35  1  0  0  0
 15 16  1  0  0  0
 15 19  1  0  0  0
 16 17  2  0  0  0
 16 36  1  0  0  0
 17 18  1  0  0  0
 18 37  1  0  0  0
 18 38  1  0  0  0
 19 39  1  0  0  0
 20 40  1  0  0  0
 20 41  1  0  0  0
 20 42  1  0  0  0
M  END
> <s_m_entry_id>
17560

> <s_m_entry_name>
ligand_docking-pose.487

> <s_m_Source_Path>
/home/csk/Desktop/cluster/DUD-E-result/esr1

> <s_m_Source_File>
ligand_docking-pose.sdf

> <i_m_Source_File_Index>
487

> <i_lp_mmshare_version>
53161

> <i_f3d_flags>
0

> <r_lp_tautomer_probability>
1

> <s_lp_Force_Field>
OPLS_2005

> <r_lp_Energy>
21.337304

> <b_lp_Chiralities_Consistent>
1

> <s_lp_Variant>
351152-1

> <s_i_glide_gridfile>
glide-grid_1sj0

> <i_i_glide_lignum>
1339

> <i_i_glide_rotatable_bonds>
4

> <r_i_docking_score>
-7.91448546711478

> <r_i_glide_ligand_efficiency>
-0.395724273355739

> <r_i_glide_ligand_efficiency_sa>
-1.0741609378384

> <r_i_glide_ligand_efficiency_ln>
-1.98073467521768

> <r_i_glide_gscore>
-7.91448546711478

> <r_i_glide_lipo>
-4.00628678237479

> <r_i_glide_hbond>
0

> <r_i_glide_metal>
0

> <r_i_glide_rewards>
-2.7017157884719

> <r_i_glide_evdw>
-34.334156036377

> <r_i_glide_ecoul>
0.139218032360077

> <r_i_glide_erotb>
0.489342200696749

> <r_i_glide_esite>
0

> <r_i_glide_emodel>
-48.8012069857322

> <r_i_glide_energy>
-34.1949380040169

> <r_i_glide_einternal>
1.93050706386566

> <i_i_glide_confnum>
2

> <i_i_glide_posenum>
348

> <r_i_glide_eff_state_penalty>
0

> <s_user_duplicate_titles>
351152

> <s_m_subgroup_title>
dock_pv

> <s_m_subgroupid>
dock_pv1

> <b_m_subgroup_collapsed>
0

$$$$
394997
                    3D
 Schrodinger Suite 2021-1.
 34 36  0  0  1  0            999 V2000
   33.5661   -0.0665   27.8640 C   0  0  0  0  0  0
   32.0555   -0.1025   27.6959 C   0  0  0  0  0  0
   31.1321    0.5607   28.4915 C   0  0  0  0  0  0
   29.8656    0.3844   27.8721 C   0  0  0  0  0  0
   28.5903    0.8904   28.1544 C   0  0  0  0  0  0
   27.4920    0.3923   27.4638 C   0  0  0  0  0  0
   27.6591   -0.5762   26.4854 C   0  0  0  0  0  0
   28.9181   -1.0234   26.0999 C   0  0  0  0  0  0
   30.0276   -0.5365   26.8033 C   0  0  0  0  0  0
   31.3885   -0.7985   26.6799 N   0  0  0  0  0  0
   31.9617   -1.6325   25.6767 C   0  0  0  0  0  0
   32.8917   -2.6130   26.0376 C   0  0  0  0  0  0
   33.4934   -3.4046   25.0644 C   0  0  0  0  0  0
   33.0822   -3.3341   23.7422 C   0  0  0  0  0  0
   32.0597   -2.4663   23.3878 C   0  0  0  0  0  0
   31.5311   -1.5797   24.3362 C   0  0  0  0  0  0
   31.5644   -2.5411   22.1321 F   0  0  0  0  0  0
   33.6592   -4.1419   22.8001 O   0  0  0  0  0  0
   31.3576    1.2948   29.7208 C   0  0  0  0  0  0
   32.0426    0.7869   30.6563 N   0  0  0  0  0  0
   32.0683    1.6127   31.7831 O   0  0  0  0  0  0
   33.8733    0.0062   28.9061 H   0  0  0  0  0  0
   34.0760   -0.9339   27.4771 H   0  0  0  0  0  0
   33.9931    0.7974   27.3551 H   0  0  0  0  0  0
   28.4597    1.6242   28.9340 H   0  0  0  0  0  0
   26.4979    0.7464   27.6980 H   0  0  0  0  0  0
   26.7860   -0.9632   25.9773 H   0  0  0  0  0  0
   29.0115   -1.7418   25.3044 H   0  0  0  0  0  0
   33.1696   -2.7694   27.0693 H   0  0  0  0  0  0
   34.2350   -4.1352   25.3367 H   0  0  0  0  0  0
   30.7670   -0.8816   24.0279 H   0  0  0  0  0  0
   33.1745   -4.1541   21.9686 H   0  0  0  0  0  0
   30.8586    2.2576   29.7514 H   0  0  0  0  0  0
   31.5305    2.3629   31.5198 H   0  0  0  0  0  0
  1  2  1  0  0  0
  1 22  1  0  0  0
  1 23  1  0  0  0
  1 24  1  0  0  0
  2 10  1  0  0  0
  2  3  2  0  0  0
  3  4  1  0  0  0
  3 19  1  0  0  0
  4  9  2  0  0  0
  4  5  1  0  0  0
  5  6  2  0  0  0
  5 25  1  0  0  0
  6  7  1  0  0  0
  6 26  1  0  0  0
  7  8  2  0  0  0
  7 27  1  0  0  0
  8  9  1  0  0  0
  8 28  1  0  0  0
  9 10  1  0  0  0
 10 11  1  0  0  0
 11 16  1  0  0  0
 11 12  2  0  0  0
 12 13  1  0  0  0
 12 29  1  0  0  0
 13 14  2  0  0  0
 13 30  1  0  0  0
 14 15  1  0  0  0
 14 18  1  0  0  0
 15 16  2  0  0  0
 15 17  1  0  0  0
 16 31  1  0  0  0
 18 32  1  0  0  0
 19 20  2  0  0  0
 19 33  1  0  0  0
 20 21  1  0  0  0
 21 34  1  0  0  0
M  END
> <s_m_entry_id>
17561

> <s_m_entry_name>
ligand_docking-pose.488

> <s_m_Source_Path>
/home/csk/Desktop/cluster/DUD-E-result/esr1

> <s_m_Source_File>
ligand_docking-pose.sdf

> <i_m_Source_File_Index>
488

> <i_lp_mmshare_version>
53161

> <i_f3d_flags>
0

> <r_lp_tautomer_probability>
1

> <s_lp_Force_Field>
OPLS_2005

> <r_lp_Energy>
17.916274

> <b_lp_Chiralities_Consistent>
1

> <s_lp_Variant>
394997-1

> <s_i_glide_gridfile>
glide-grid_1sj0

> <i_i_glide_lignum>
912

> <i_i_glide_rotatable_bonds>
4

> <r_i_docking_score>
-7.91280561643519

> <r_i_glide_ligand_efficiency>
-0.376800267449295

> <r_i_glide_ligand_efficiency_sa>
-1.03956336647774

> <r_i_glide_ligand_efficiency_ln>
-1.95642519933432

> <r_i_glide_gscore>
-7.91280561643519

> <r_i_glide_lipo>
-3.94345823529811

> <r_i_glide_hbond>
0

> <r_i_glide_metal>
0

> <r_i_glide_rewards>
-2.95495320684378

> <r_i_glide_evdw>
-31.4241714477539

> <r_i_glide_ecoul>
-0.773174524307251

> <r_i_glide_erotb>
0.672790576740486

> <r_i_glide_esite>
0

> <r_i_glide_emodel>
-43.6397263944242

> <r_i_glide_energy>
-32.1973459720612

> <r_i_glide_einternal>
4.79480695724487

> <i_i_glide_confnum>
8

> <i_i_glide_posenum>
316

> <r_i_glide_eff_state_penalty>
0

> <s_user_duplicate_titles>
394997

> <s_m_subgroup_title>
dock_pv

> <s_m_subgroupid>
dock_pv1

> <b_m_subgroup_collapsed>
0

$$$$
354212
                    3D
 Schrodinger Suite 2021-1.
 39 43  0  0  1  0            999 V2000
   29.2158    1.3690   27.6706 C   0  0  0  0  0  0
   27.8429    1.3571   27.4638 C   0  0  0  0  0  0
   27.2476    0.1136   27.3041 C   0  0  0  0  0  0
   27.9866   -1.0910   27.2822 C   0  0  0  0  0  0
   26.9956   -2.0994   27.1314 C   0  0  0  0  0  0
   25.7989   -1.5756   27.0871 N   0  0  0  0  0  0
   25.9356   -0.2482   27.1362 N   0  0  0  0  0  0
   29.3789   -1.0324   27.4206 C   0  0  0  0  0  0
   29.9748    0.1979   27.6689 C   0  0  0  0  0  0
   31.3915   -0.0483   27.9927 C   0  0  0  0  0  0
   32.2769    0.7134   28.6768 C   0  0  0  0  0  0
   33.6325    0.2995   29.0211 C   0  0  0  0  0  0
   34.4338    1.0451   29.5816 O   0  0  0  0  0  0
   34.0279   -1.1049   28.5796 C   0  0  0  0  0  0
   32.8218   -2.0401   28.3615 C   0  0  0  0  0  0
   31.7510   -1.4202   27.4108 C   0  0  1  0  0  0
   30.3859   -2.1423   27.4698 C   0  0  0  0  0  0
   32.2449   -1.1845   25.9370 C   0  0  0  0  0  0
   33.0296   -2.3044   25.2112 C   0  0  0  0  0  0
   32.7797   -3.7420   25.5173 C   0  0  0  0  0  0
   32.3094   -3.1658   24.2053 C   0  0  0  0  0  0
   31.6600    2.3682   29.4640 Br  0  0  0  0  0  0
   25.1317    0.3629   27.0641 H   0  0  0  0  0  0
   29.6745    2.3266   27.8215 H   0  0  0  0  0  0
   27.2623    2.2579   27.4611 H   0  0  0  0  0  0
   27.1305   -3.1694   27.0658 H   0  0  0  0  0  0
   34.4608   -0.9420   27.6012 H   0  0  0  0  0  0
   34.7951   -1.5105   29.2399 H   0  0  0  0  0  0
   32.3722   -2.2307   29.3358 H   0  0  0  0  0  0
   33.1717   -3.0081   28.0092 H   0  0  0  0  0  0
   30.2472   -2.8610   26.6640 H   0  0  0  0  0  0
   30.2409   -2.6749   28.4067 H   0  0  0  0  0  0
   32.8810   -0.3002   25.9226 H   0  0  0  0  0  0
   31.4008   -0.8850   25.3129 H   0  0  0  0  0  0
   34.0600   -2.0732   24.9622 H   0  0  0  0  0  0
   32.0511   -4.0391   26.2640 H   0  0  0  0  0  0
   33.6600   -4.3773   25.5453 H   0  0  0  0  0  0
   32.8273   -3.4461   23.2872 H   0  0  0  0  0  0
   31.2600   -2.9420   24.0347 H   0  0  0  0  0  0
  1  9  1  0  0  0
  1  2  2  0  0  0
  1 24  1  0  0  0
  2  3  1  0  0  0
  2 25  1  0  0  0
  3  7  1  0  0  0
  3  4  2  0  0  0
  4  5  1  0  0  0
  4  8  1  0  0  0
  5  6  2  0  0  0
  5 26  1  0  0  0
  6  7  1  0  0  0
  7 23  1  0  0  0
  8 17  1  0  0  0
  8  9  2  0  0  0
  9 10  1  0  0  0
 10 16  1  0  0  0
 10 11  2  0  0  0
 11 12  1  0  0  0
 11 22  1  0  0  0
 12 13  2  0  0  0
 12 14  1  0  0  0
 14 15  1  0  0  0
 14 27  1  0  0  0
 14 28  1  0  0  0
 15 16  1  0  0  0
 15 29  1  0  0  0
 15 30  1  0  0  0
 16 17  1  0  0  0
 16 18  1  0  0  0
 17 31  1  0  0  0
 17 32  1  0  0  0
 18 19  1  0  0  0
 18 33  1  0  0  0
 18 34  1  0  0  0
 19 21  1  0  0  0
 19 20  1  0  0  0
 19 35  1  0  0  0
 20 21  1  0  0  0
 20 36  1  0  0  0
 20 37  1  0  0  0
 21 38  1  0  0  0
 21 39  1  0  0  0
M  END
> <s_m_entry_id>
17562

> <s_m_entry_name>
ligand_docking-pose.489

> <s_m_Source_Path>
/home/csk/Desktop/cluster/DUD-E-result/esr1

> <s_m_Source_File>
ligand_docking-pose.sdf

> <i_m_Source_File_Index>
489

> <i_lp_mmshare_version>
53161

> <i_f3d_flags>
0

> <r_lp_tautomer_probability>
1

> <s_lp_Force_Field>
OPLS_2005

> <r_lp_Energy>
47.726589

> <b_lp_Chiralities_Consistent>
1

> <s_lp_Variant>
354212-1

> <s_i_glide_gridfile>
glide-grid_1sj0

> <i_i_glide_lignum>
55

> <i_i_glide_rotatable_bonds>
2

> <r_i_docking_score>
-7.90811421526196

> <r_i_glide_ligand_efficiency>
-0.359459737057362

> <r_i_glide_ligand_efficiency_sa>
-1.00722031998398

> <r_i_glide_ligand_efficiency_ln>
-1.9330315696847

> <r_i_glide_gscore>
-7.90811421526196

> <r_i_glide_lipo>
-4.06498086728676

> <r_i_glide_hbond>
-0.253300925376284

> <r_i_glide_metal>
0

> <r_i_glide_rewards>
-2.22274636635395

> <r_i_glide_evdw>
-28.7345561981201

> <r_i_glide_ecoul>
-1.53554224967957

> <r_i_glide_erotb>
0.299973091112974

> <r_i_glide_esite>
0

> <r_i_glide_emodel>
-41.6817310717277

> <r_i_glide_energy>
-30.2700984477997

> <r_i_glide_einternal>
3.04989409446716

> <i_i_glide_confnum>
2

> <i_i_glide_posenum>
366

> <r_i_glide_eff_state_penalty>
0

> <s_user_duplicate_titles>
354212

> <s_m_subgroup_title>
dock_pv

> <s_m_subgroupid>
dock_pv1

> <b_m_subgroup_collapsed>
0

$$$$
224399
                    3D
 Schrodinger Suite 2021-1.
 37 40  0  0  1  0            999 V2000
   30.5994   -1.2864   29.0640 C   0  0  0  0  0  0
   31.3476    0.0169   28.6467 C   0  0  1  0  0  0
   32.8671   -0.1979   28.6385 C   0  0  0  0  0  0
   33.3340   -1.2654   27.6195 C   0  0  0  0  0  0
   32.4600   -1.2978   26.3314 C   0  0  0  0  0  0
   32.6524   -2.0965   25.1436 C   0  0  0  0  0  0
   33.6600   -3.0095   24.8019 C   0  0  0  0  0  0
   33.6600   -3.6491   23.5640 C   0  0  0  0  0  0
   32.6712   -3.4391   22.6336 C   0  0  0  0  0  0
   31.6600   -2.5420   22.9130 C   0  0  0  0  0  0
   31.6423   -1.8873   24.1621 C   0  0  0  0  0  0
   30.4141   -0.7975   24.7531 S   0  0  0  0  0  0
   31.3235   -0.5057   26.2081 C   0  0  0  0  0  0
   30.9730    0.5457   27.2484 C   0  0  1  0  0  0
   29.5807    1.1554   27.3987 C   0  0  0  0  0  0
   29.6345    1.7689   28.8150 C   0  0  0  0  0  0
   30.9061    1.2244   29.4988 C   0  0  1  0  0  0
   30.8600    1.0580   30.9026 O   0  0  0  0  0  0
   32.7152   -4.1420   21.4585 O   0  0  0  0  0  0
   31.6336    1.3757   26.9815 H   0  0  0  0  0  0
   31.6595    2.0036   29.3572 H   0  0  0  0  0  0
   30.8600   -1.5770   30.0821 H   0  0  0  0  0  0
   29.5178   -1.1679   29.0264 H   0  0  0  0  0  0
   30.8391   -2.1343   28.4232 H   0  0  0  0  0  0
   33.3690    0.7467   28.4152 H   0  0  0  0  0  0
   33.2134   -0.4698   29.6373 H   0  0  0  0  0  0
   34.3590   -0.9420   27.4640 H   0  0  0  0  0  0
   33.3651   -2.2510   28.0863 H   0  0  0  0  0  0
   34.4690   -3.2031   25.4640 H   0  0  0  0  0  0
   34.4491   -4.3209   23.2845 H   0  0  0  0  0  0
   30.8646   -2.4085   22.1992 H   0  0  0  0  0  0
   29.3706    1.8940   26.6246 H   0  0  0  0  0  0
   28.8096    0.3869   27.3238 H   0  0  0  0  0  0
   29.6368    2.8568   28.7859 H   0  0  0  0  0  0
   28.7624    1.4580   29.3747 H   0  0  0  0  0  0
   30.6650    1.9078   31.3043 H   0  0  0  0  0  0
   31.8790   -4.3201   21.0116 H   0  0  0  0  0  0
  1  2  1  0  0  0
  1 22  1  0  0  0
  1 23  1  0  0  0
  1 24  1  0  0  0
  2 14  1  0  0  0
  2 17  1  0  0  0
  2  3  1  0  0  0
  3  4  1  0  0  0
  3 25  1  0  0  0
  3 26  1  0  0  0
  4  5  1  0  0  0
  4 27  1  0  0  0
  4 28  1  0  0  0
  5 13  2  0  0  0
  5  6  1  0  0  0
  6 11  2  0  0  0
  6  7  1  0  0  0
  7  8  2  0  0  0
  7 29  1  0  0  0
  8  9  1  0  0  0
  8 30  1  0  0  0
  9 10  2  0  0  0
  9 19  1  0  0  0
 10 11  1  0  0  0
 10 31  1  0  0  0
 11 12  1  0  0  0
 12 13  1  0  0  0
 13 14  1  0  0  0
 14 20  1  0  0  0
 14 15  1  0  0  0
 15 16  1  0  0  0
 15 32  1  0  0  0
 15 33  1  0  0  0
 16 17  1  0  0  0
 16 34  1  0  0  0
 16 35  1  0  0  0
 17 21  1  0  0  0
 17 18  1  0  0  0
 18 36  1  0  0  0
 19 37  1  0  0  0
M  END
> <s_m_entry_id>
17563

> <s_m_entry_name>
ligand_docking-pose.490

> <s_m_Source_Path>
/home/csk/Desktop/cluster/DUD-E-result/esr1

> <s_m_Source_File>
ligand_docking-pose.sdf

> <i_m_Source_File_Index>
490

> <i_lp_mmshare_version>
53161

> <i_f3d_flags>
0

> <r_lp_tautomer_probability>
1

> <s_lp_Force_Field>
OPLS_2005

> <r_lp_Energy>
37.680042

> <b_lp_Chiralities_Consistent>
1

> <s_lp_Variant>
224399-1

> <s_i_glide_gridfile>
glide-grid_1sj0

> <i_i_glide_lignum>
764

> <i_i_glide_rotatable_bonds>
2

> <r_i_docking_score>
-7.90464625425014

> <r_i_glide_ligand_efficiency>
-0.416034013381587

> <r_i_glide_ligand_efficiency_sa>
-1.11014584614225

> <r_i_glide_ligand_efficiency_ln>
-2.00399760168697

> <r_i_glide_gscore>
-7.90464625425014

> <r_i_glide_lipo>
-4.43075422261563

> <r_i_glide_hbond>
-0.0388035009150937

> <r_i_glide_metal>
0

> <r_i_glide_rewards>
-2.27984444552674

> <r_i_glide_evdw>
-21.150354385376

> <r_i_glide_ecoul>
-0.65150910615921

> <r_i_glide_erotb>
0

> <r_i_glide_esite>
0

> <r_i_glide_emodel>
-27.424680115743

> <r_i_glide_energy>
-21.8018634915352

> <r_i_glide_einternal>
0.349602073431015

> <i_i_glide_confnum>
1

> <i_i_glide_posenum>
237

> <r_i_glide_eff_state_penalty>
0

> <s_user_duplicate_titles>
224399

> <s_m_subgroup_title>
dock_pv

> <s_m_subgroupid>
dock_pv1

> <b_m_subgroup_collapsed>
0

$$$$
341679
                    3D
 Schrodinger Suite 2021-1.
 28 30  0  0  1  0            999 V2000
   32.8699    1.6117   29.4143 C   0  0  0  0  0  0
   32.4205    0.3174   28.7711 C   0  0  0  0  0  0
   33.3400   -0.7093   28.5502 C   0  0  0  0  0  0
   32.9222   -1.9001   27.9584 C   0  0  0  0  0  0
   31.5913   -2.0792   27.5898 C   0  0  0  0  0  0
   30.6496   -1.0750   27.8395 C   0  0  0  0  0  0
   31.0860    0.1438   28.3921 C   0  0  0  0  0  0
   30.2506    1.2375   28.5631 O   0  0  0  0  0  0
   28.9619    1.2129   28.1573 C   0  0  0  0  0  0
   28.3306    2.2579   28.2640 O   0  0  0  0  0  0
   28.3859   -0.0664   27.6785 C   0  0  0  0  0  0
   29.1955   -1.2072   27.5401 C   0  0  0  0  0  0
   28.6035   -2.4158   27.1575 C   0  0  0  0  0  0
   27.2451   -2.4748   26.8659 C   0  0  0  0  0  0
   26.4600   -1.3282   26.9741 C   0  0  0  0  0  0
   27.0226   -0.1355   27.3925 C   0  0  0  0  0  0
   25.1339   -1.3420   26.6640 O   0  0  0  0  0  0
   34.6607   -0.5420   28.8803 O   0  0  0  0  0  0
   32.0600    2.1325   29.9270 H   0  0  0  0  0  0
   33.6318    1.4430   30.1761 H   0  0  0  0  0  0
   33.2794    2.2580   28.6379 H   0  0  0  0  0  0
   33.6367   -2.6891   27.7773 H   0  0  0  0  0  0
   31.3079   -3.0082   27.1189 H   0  0  0  0  0  0
   29.1833   -3.3215   27.0643 H   0  0  0  0  0  0
   26.8142   -3.4123   26.5468 H   0  0  0  0  0  0
   26.3890    0.7376   27.4744 H   0  0  0  0  0  0
   24.8696   -2.2039   26.2640 H   0  0  0  0  0  0
   34.8811    0.3462   29.1673 H   0  0  0  0  0  0
  1  2  1  0  0  0
  1 19  1  0  0  0
  1 20  1  0  0  0
  1 21  1  0  0  0
  2  7  1  0  0  0
  2  3  2  0  0  0
  3  4  1  0  0  0
  3 18  1  0  0  0
  4  5  2  0  0  0
  4 22  1  0  0  0
  5  6  1  0  0  0
  5 23  1  0  0  0
  6 12  1  0  0  0
  6  7  2  0  0  0
  7  8  1  0  0  0
  8  9  1  0  0  0
  9 10  2  0  0  0
  9 11  1  0  0  0
 11 16  1  0  0  0
 11 12  2  0  0  0
 12 13  1  0  0  0
 13 14  2  0  0  0
 13 24  1  0  0  0
 14 15  1  0  0  0
 14 25  1  0  0  0
 15 16  2  0  0  0
 15 17  1  0  0  0
 16 26  1  0  0  0
 17 27  1  0  0  0
 18 28  1  0  0  0
M  END
> <s_m_entry_id>
17564

> <s_m_entry_name>
ligand_docking-pose.491

> <s_m_Source_Path>
/home/csk/Desktop/cluster/DUD-E-result/esr1

> <s_m_Source_File>
ligand_docking-pose.sdf

> <i_m_Source_File_Index>
491

> <i_lp_mmshare_version>
53161

> <i_f3d_flags>
0

> <r_lp_tautomer_probability>
1

> <s_lp_Force_Field>
OPLS_2005

> <r_lp_Energy>
16.590794

> <b_lp_Chiralities_Consistent>
1

> <s_lp_Variant>
341679-1

> <s_i_glide_gridfile>
glide-grid_1sj0

> <i_i_glide_lignum>
973

> <i_i_glide_rotatable_bonds>
2

> <r_i_docking_score>
-7.89806153874807

> <r_i_glide_ligand_efficiency>
-0.438781196597115

> <r_i_glide_ligand_efficiency_sa>
-1.14993204381466

> <r_i_glide_ligand_efficiency_ln>
-2.03015599286048

> <r_i_glide_gscore>
-7.89806153874807

> <r_i_glide_lipo>
-2.82116473325233

> <r_i_glide_hbond>
-0.236624270995792

> <r_i_glide_metal>
0

> <r_i_glide_rewards>
-2.54876567185957

> <r_i_glide_evdw>
-21.1493682861328

> <r_i_glide_ecoul>
-8.2269229888916

> <r_i_glide_erotb>
0

> <r_i_glide_esite>
0

> <r_i_glide_emodel>
-43.250394402614

> <r_i_glide_energy>
-29.3762912750244

> <r_i_glide_einternal>
0.0272814147174358

> <i_i_glide_confnum>
1

> <i_i_glide_posenum>
362

> <r_i_glide_eff_state_penalty>
0

> <s_user_duplicate_titles>
341679

> <s_m_subgroup_title>
dock_pv

> <s_m_subgroupid>
dock_pv1

> <b_m_subgroup_collapsed>
0

$$$$
312900
                    3D
 Schrodinger Suite 2021-1.
 29 31  0  0  1  0            999 V2000
   32.0542    1.0222   28.2258 C   0  0  0  0  0  0
   30.6897    0.6052   27.6938 C   0  0  0  0  0  0
   29.5840    1.4095   27.9741 C   0  0  0  0  0  0
   28.3302    1.0741   27.4728 C   0  0  0  0  0  0
   28.1578   -0.0530   26.6802 C   0  0  0  0  0  0
   29.2519   -0.8551   26.3901 C   0  0  0  0  0  0
   30.5153   -0.5443   26.9013 C   0  0  0  0  0  0
   31.6099   -1.4700   26.5331 C   0  0  0  0  0  0
   31.9317   -1.9328   25.2217 C   0  0  0  0  0  0
   31.4810   -1.7398   23.9057 C   0  0  0  0  0  0
   32.0877   -2.4725   22.8800 C   0  0  0  0  0  0
   33.1566   -3.3309   23.1384 C   0  0  0  0  0  0
   33.6472   -3.4891   24.4324 C   0  0  0  0  0  0
   32.9926   -2.8071   25.4516 C   0  0  0  0  0  0
   33.2588   -2.8822   26.7829 O   0  0  0  0  0  0
   32.3889   -2.0137   27.4453 N   0  0  0  0  0  0
   33.7236   -4.0402   22.1164 O   0  0  0  0  0  0
   27.2610    1.8561   27.7696 O   0  0  0  0  0  0
   32.8248    0.8722   27.4685 H   0  0  0  0  0  0
   32.0799    2.0813   28.4899 H   0  0  0  0  0  0
   32.3208    0.4316   29.1034 H   0  0  0  0  0  0
   29.6907    2.2966   28.5805 H   0  0  0  0  0  0
   27.1888   -0.3236   26.2887 H   0  0  0  0  0  0
   29.1046   -1.7326   25.7790 H   0  0  0  0  0  0
   30.6604   -1.0699   23.6932 H   0  0  0  0  0  0
   31.7232   -2.3642   21.8688 H   0  0  0  0  0  0
   34.4605   -4.1448   24.6616 H   0  0  0  0  0  0
   33.1917   -4.0454   21.3158 H   0  0  0  0  0  0
   26.4432    1.5491   27.3658 H   0  0  0  0  0  0
  1  2  1  0  0  0
  1 19  1  0  0  0
  1 20  1  0  0  0
  1 21  1  0  0  0
  2  7  1  0  0  0
  2  3  2  0  0  0
  3  4  1  0  0  0
  3 22  1  0  0  0
  4  5  2  0  0  0
  4 18  1  0  0  0
  5  6  1  0  0  0
  5 23  1  0  0  0
  6  7  2  0  0  0
  6 24  1  0  0  0
  7  8  1  0  0  0
  8 16  2  0  0  0
  8  9  1  0  0  0
  9 14  2  0  0  0
  9 10  1  0  0  0
 10 11  2  0  0  0
 10 25  1  0  0  0
 11 12  1  0  0  0
 11 26  1  0  0  0
 12 13  2  0  0  0
 12 17  1  0  0  0
 13 14  1  0  0  0
 13 27  1  0  0  0
 14 15  1  0  0  0
 15 16  1  0  0  0
 17 28  1  0  0  0
 18 29  1  0  0  0
M  END
> <s_m_entry_id>
17565

> <s_m_entry_name>
ligand_docking-pose.492

> <s_m_Source_Path>
/home/csk/Desktop/cluster/DUD-E-result/esr1

> <s_m_Source_File>
ligand_docking-pose.sdf

> <i_m_Source_File_Index>
492

> <i_lp_mmshare_version>
53161

> <i_f3d_flags>
0

> <r_lp_tautomer_probability>
0.999999999997365

> <s_lp_Force_Field>
OPLS_2005

> <r_lp_Energy>
30.916599

> <b_lp_Chiralities_Consistent>
1

> <s_lp_Variant>
312900-1

> <s_i_glide_gridfile>
glide-grid_1sj0

> <i_i_glide_lignum>
977

> <i_i_glide_rotatable_bonds>
3

> <r_i_docking_score>
-7.88725412721

> <r_i_glide_ligand_efficiency>
-0.438180784845

> <r_i_glide_ligand_efficiency_sa>
-1.14835851988384

> <r_i_glide_ligand_efficiency_ln>
-2.02737800345211

> <r_i_glide_gscore>
-7.88725412721

> <r_i_glide_lipo>
-3.80475459537349

> <r_i_glide_hbond>
-0.10036074737569

> <r_i_glide_metal>
0

> <r_i_glide_rewards>
-2.41397741816401

> <r_i_glide_evdw>
-29.9329204559326

> <r_i_glide_ecoul>
-2.46084952354431

> <r_i_glide_erotb>
0.297612085031456

> <r_i_glide_esite>
0

> <r_i_glide_emodel>
-44.3124525965321

> <r_i_glide_energy>
-32.3937699794769

> <r_i_glide_einternal>
3.00948858261108

> <i_i_glide_confnum>
1

> <i_i_glide_posenum>
189

> <r_i_glide_eff_state_penalty>
0

> <s_user_duplicate_titles>
312900

> <s_m_subgroup_title>
dock_pv

> <s_m_subgroupid>
dock_pv1

> <b_m_subgroup_collapsed>
0

$$$$
313465
                    3D
 Schrodinger Suite 2021-1.
 30 32  0  0  1  0            999 V2000
   28.8826    1.0019   26.4684 C   0  0  0  0  0  0
   29.6582    1.3133   27.5205 C   0  0  0  0  0  0
   30.8177    0.5474   28.0186 C   0  0  0  0  0  0
   31.3172    0.7958   29.3029 C   0  0  0  0  0  0
   32.3902    0.0739   29.8313 C   0  0  0  0  0  0
   33.0033   -0.9602   29.1239 C   0  0  0  0  0  0
   32.5422   -1.2195   27.8298 C   0  0  0  0  0  0
   31.4889   -0.4595   27.2970 C   0  0  0  0  0  0
   31.3264   -0.8632   26.0083 O   0  0  0  0  0  0
   32.2756   -1.8369   25.8292 C   0  0  0  0  0  0
   32.9665   -2.1308   26.9092 N   0  0  0  0  0  0
   32.4598   -2.4223   24.4549 C   0  0  0  0  0  0
   33.5304   -3.2669   24.1401 C   0  0  0  0  0  0
   33.6597   -3.8270   22.8704 C   0  0  0  0  0  0
   32.7215   -3.5734   21.8868 C   0  0  0  0  0  0
   31.6600   -2.7331   22.1764 C   0  0  0  0  0  0
   31.5465   -2.1419   23.4381 C   0  0  0  0  0  0
   30.4879   -1.3419   23.6851 F   0  0  0  0  0  0
   32.8600   -4.1419   20.6495 O   0  0  0  0  0  0
   34.4583   -3.5560   25.0637 F   0  0  0  0  0  0
   32.8599    0.3922   31.0681 O   0  0  0  0  0  0
   28.0594    1.6414   26.1844 H   0  0  0  0  0  0
   29.0467    0.1155   25.8737 H   0  0  0  0  0  0
   29.4233    2.2185   28.0620 H   0  0  0  0  0  0
   30.8696    1.5688   29.9109 H   0  0  0  0  0  0
   33.8269   -1.5232   29.5384 H   0  0  0  0  0  0
   34.4599   -4.5049   22.6415 H   0  0  0  0  0  0
   30.9188   -2.5421   21.4155 H   0  0  0  0  0  0
   32.1404   -4.7471   20.3965 H   0  0  0  0  0  0
   33.5941   -0.1668   31.3339 H   0  0  0  0  0  0
  1  2  2  0  0  0
  1 22  1  0  0  0
  1 23  1  0  0  0
  2  3  1  0  0  0
  2 24  1  0  0  0
  3  8  1  0  0  0
  3  4  2  0  0  0
  4  5  1  0  0  0
  4 25  1  0  0  0
  5  6  2  0  0  0
  5 21  1  0  0  0
  6  7  1  0  0  0
  6 26  1  0  0  0
  7 11  1  0  0  0
  7  8  2  0  0  0
  8  9  1  0  0  0
  9 10  1  0  0  0
 10 11  2  0  0  0
 10 12  1  0  0  0
 12 17  1  0  0  0
 12 13  2  0  0  0
 13 14  1  0  0  0
 13 20  1  0  0  0
 14 15  2  0  0  0
 14 27  1  0  0  0
 15 16  1  0  0  0
 15 19  1  0  0  0
 16 17  2  0  0  0
 16 28  1  0  0  0
 17 18  1  0  0  0
 19 29  1  0  0  0
 21 30  1  0  0  0
M  END
> <s_m_entry_id>
17566

> <s_m_entry_name>
ligand_docking-pose.493

> <s_m_Source_Path>
/home/csk/Desktop/cluster/DUD-E-result/esr1

> <s_m_Source_File>
ligand_docking-pose.sdf

> <i_m_Source_File_Index>
493

> <i_lp_mmshare_version>
53161

> <i_f3d_flags>
0

> <r_lp_tautomer_probability>
0.999999999997365

> <s_lp_Force_Field>
OPLS_2005

> <r_lp_Energy>
16.847458

> <b_lp_Chiralities_Consistent>
1

> <s_lp_Variant>
313465-1

> <s_i_glide_gridfile>
glide-grid_1sj0

> <i_i_glide_lignum>
1154

> <i_i_glide_rotatable_bonds>
4

> <r_i_docking_score>
-7.87575007551352

> <r_i_glide_ligand_efficiency>
-0.375035717881596

> <r_i_glide_ligand_efficiency_sa>
-1.03469510801993

> <r_i_glide_ligand_efficiency_ln>
-1.94726329171921

> <r_i_glide_gscore>
-7.87575007551352

> <r_i_glide_lipo>
-3.61245760653134

> <r_i_glide_hbond>
-0.16

> <r_i_glide_metal>
0

> <r_i_glide_rewards>
-2.40781910003955

> <r_i_glide_evdw>
-24.5700569152832

> <r_i_glide_ecoul>
-6.01479053497314

> <r_i_glide_erotb>
0.435248057067509

> <r_i_glide_esite>
0

> <r_i_glide_emodel>
-41.8685956117739

> <r_i_glide_energy>
-30.5848474502563

> <r_i_glide_einternal>
4.87101078033447

> <i_i_glide_confnum>
2

> <i_i_glide_posenum>
110

> <r_i_glide_eff_state_penalty>
0

> <s_user_duplicate_titles>
313465

> <s_m_subgroup_title>
dock_pv

> <s_m_subgroupid>
dock_pv1

> <b_m_subgroup_collapsed>
0

$$$$
308612
                    3D
 Schrodinger Suite 2021-1.
 27 29  0  0  1  0            999 V2000
   33.5226   -3.1416   24.2646 C   0  0  0  0  0  0
   33.6600   -3.7444   23.0140 C   0  0  0  0  0  0
   32.7244   -3.5265   22.0164 C   0  0  0  0  0  0
   31.6601   -2.6775   22.2489 C   0  0  0  0  0  0
   31.5473   -2.0192   23.4707 C   0  0  0  0  0  0
   32.4513   -2.2750   24.5024 C   0  0  0  0  0  0
   32.2410   -1.6359   25.8361 C   0  0  0  0  0  0
   32.8599   -1.7950   27.0712 C   0  0  0  0  0  0
   32.2572   -0.8569   27.9628 C   0  0  0  0  0  0
   32.4380   -0.4694   29.3000 C   0  0  0  0  0  0
   31.6065    0.5237   29.8247 C   0  0  0  0  0  0
   30.5945    1.1066   29.0601 C   0  0  0  0  0  0
   30.3897    0.7406   27.7290 C   0  0  0  0  0  0
   31.2467   -0.2323   27.2000 C   0  0  0  0  0  0
   31.2446   -0.7024   25.9194 O   0  0  0  0  0  0
   29.1333    1.4583   26.7870 Cl  0  0  0  0  0  0
   31.7888    0.9362   31.1135 O   0  0  0  0  0  0
   32.8601   -4.1420   20.8023 O   0  0  0  0  0  0
   34.2423   -3.3561   25.0404 H   0  0  0  0  0  0
   34.4600   -4.4272   22.7981 H   0  0  0  0  0  0
   30.9220   -2.5421   21.4733 H   0  0  0  0  0  0
   30.7092   -1.3546   23.6251 H   0  0  0  0  0  0
   33.6599   -2.4842   27.2841 H   0  0  0  0  0  0
   33.2111   -0.9262   29.8996 H   0  0  0  0  0  0
   29.9614    1.8585   29.5078 H   0  0  0  0  0  0
   32.5538    0.5269   31.5214 H   0  0  0  0  0  0
   32.1245   -4.7257   20.5516 H   0  0  0  0  0  0
  1  6  1  0  0  0
  1  2  2  0  0  0
  1 19  1  0  0  0
  2  3  1  0  0  0
  2 20  1  0  0  0
  3  4  2  0  0  0
  3 18  1  0  0  0
  4  5  1  0  0  0
  4 21  1  0  0  0
  5  6  2  0  0  0
  5 22  1  0  0  0
  6  7  1  0  0  0
  7 15  1  0  0  0
  7  8  2  0  0  0
  8  9  1  0  0  0
  8 23  1  0  0  0
  9 14  2  0  0  0
  9 10  1  0  0  0
 10 11  2  0  0  0
 10 24  1  0  0  0
 11 12  1  0  0  0
 11 17  1  0  0  0
 12 13  2  0  0  0
 12 25  1  0  0  0
 13 14  1  0  0  0
 13 16  1  0  0  0
 14 15  1  0  0  0
 17 26  1  0  0  0
 18 27  1  0  0  0
M  END
> <s_m_entry_id>
17567

> <s_m_entry_name>
ligand_docking-pose.494

> <s_m_Source_Path>
/home/csk/Desktop/cluster/DUD-E-result/esr1

> <s_m_Source_File>
ligand_docking-pose.sdf

> <i_m_Source_File_Index>
494

> <i_lp_mmshare_version>
53161

> <i_f3d_flags>
0

> <r_lp_tautomer_probability>
0.999999999997365

> <s_lp_Force_Field>
OPLS_2005

> <r_lp_Energy>
8.441354

> <b_lp_Chiralities_Consistent>
1

> <s_lp_Variant>
308612-1

> <s_i_glide_gridfile>
glide-grid_1sj0

> <i_i_glide_lignum>
241

> <i_i_glide_rotatable_bonds>
3

> <r_i_docking_score>
-7.86344533086784

> <r_i_glide_ligand_efficiency>
-0.436858073937102

> <r_i_glide_ligand_efficiency_sa>
-1.14489203665828

> <r_i_glide_ligand_efficiency_ln>
-2.02125807512037

> <r_i_glide_gscore>
-7.86344533086784

> <r_i_glide_lipo>
-3.63983858870539

> <r_i_glide_hbond>
-0.16

> <r_i_glide_metal>
0

> <r_i_glide_rewards>
-2.39933772754144

> <r_i_glide_evdw>
-28.4597053527832

> <r_i_glide_ecoul>
-3.34582924842834

> <r_i_glide_erotb>
0.260590640282408

> <r_i_glide_esite>
0

> <r_i_glide_emodel>
-45.7646680612097

> <r_i_glide_energy>
-31.8055346012115

> <r_i_glide_einternal>
2.64980292320251

> <i_i_glide_confnum>
1

> <i_i_glide_posenum>
170

> <r_i_glide_eff_state_penalty>
0

> <s_user_duplicate_titles>
308612

> <s_m_subgroup_title>
dock_pv

> <s_m_subgroupid>
dock_pv1

> <b_m_subgroup_collapsed>
0

$$$$
42536
                    3D
 Schrodinger Suite 2021-1.
 30 32  0  0  1  0            999 V2000
   29.1523   -0.1444   27.4616 C   0  0  0  0  0  0
   30.4976    0.0392   28.1532 C   0  0  0  0  0  0
   30.5078    0.7351   29.3689 C   0  0  0  0  0  0
   31.6766    0.8504   30.1173 C   0  0  0  0  0  0
   32.8640    0.3228   29.6294 C   0  0  0  0  0  0
   32.8750   -0.3370   28.4040 C   0  0  0  0  0  0
   31.7008   -0.5087   27.6508 C   0  0  0  0  0  0
   31.8706   -1.2970   26.3769 C   0  0  0  0  0  0
   32.7810   -2.3162   26.1517 C   0  0  0  0  0  0
   32.8249   -2.7664   24.8090 C   0  0  0  0  0  0
   33.6818   -3.6921   24.2065 C   0  0  0  0  0  0
   33.5661   -3.9814   22.8446 C   0  0  0  0  0  0
   32.5468   -3.4299   22.0873 C   0  0  0  0  0  0
   31.6668   -2.5325   22.6651 C   0  0  0  0  0  0
   31.8376   -2.1532   24.0054 C   0  0  0  0  0  0
   30.9515   -0.9420   24.9175 S   0  0  0  0  0  0
   32.4053   -3.7421   20.7616 O   0  0  0  0  0  0
   31.6601    1.4584   31.3420 O   0  0  0  0  0  0
   29.0643    0.5052   26.5902 H   0  0  0  0  0  0
   29.0304   -1.1774   27.1346 H   0  0  0  0  0  0
   28.3171    0.0654   28.1313 H   0  0  0  0  0  0
   29.5901    1.1522   29.7562 H   0  0  0  0  0  0
   33.7766    0.4182   30.2011 H   0  0  0  0  0  0
   33.8192   -0.7248   28.0511 H   0  0  0  0  0  0
   33.4453   -2.6984   26.9097 H   0  0  0  0  0  0
   34.4599   -4.1425   24.7949 H   0  0  0  0  0  0
   34.2709   -4.6437   22.3646 H   0  0  0  0  0  0
   30.8641   -2.1430   22.0766 H   0  0  0  0  0  0
   32.1133   -4.6534   20.5903 H   0  0  0  0  0  0
   30.7990    1.8112   31.5739 H   0  0  0  0  0  0
  1  2  1  0  0  0
  1 19  1  0  0  0
  1 20  1  0  0  0
  1 21  1  0  0  0
  2  7  1  0  0  0
  2  3  2  0  0  0
  3  4  1  0  0  0
  3 22  1  0  0  0
  4  5  2  0  0  0
  4 18  1  0  0  0
  5  6  1  0  0  0
  5 23  1  0  0  0
  6  7  2  0  0  0
  6 24  1  0  0  0
  7  8  1  0  0  0
  8 16  1  0  0  0
  8  9  2  0  0  0
  9 10  1  0  0  0
  9 25  1  0  0  0
 10 15  2  0  0  0
 10 11  1  0  0  0
 11 12  2  0  0  0
 11 26  1  0  0  0
 12 13  1  0  0  0
 12 27  1  0  0  0
 13 14  2  0  0  0
 13 17  1  0  0  0
 14 15  1  0  0  0
 14 28  1  0  0  0
 15 16  1  0  0  0
 17 29  1  0  0  0
 18 30  1  0  0  0
M  END
> <s_m_entry_id>
17568

> <s_m_entry_name>
ligand_docking-pose.495

> <s_m_Source_Path>
/home/csk/Desktop/cluster/DUD-E-result/esr1

> <s_m_Source_File>
ligand_docking-pose.sdf

> <i_m_Source_File_Index>
495

> <i_lp_mmshare_version>
53161

> <i_f3d_flags>
0

> <r_lp_tautomer_probability>
0.999999999997365

> <s_lp_Force_Field>
OPLS_2005

> <r_lp_Energy>
19.152365

> <b_lp_Chiralities_Consistent>
1

> <s_lp_Variant>
42536-1

> <s_i_glide_gridfile>
glide-grid_1sj0

> <i_i_glide_lignum>
982

> <i_i_glide_rotatable_bonds>
3

> <r_i_docking_score>
-7.85556262349626

> <r_i_glide_ligand_efficiency>
-0.436420145749792

> <r_i_glide_ligand_efficiency_sa>
-1.14374434013121

> <r_i_glide_ligand_efficiency_ln>
-2.01923186583701

> <r_i_glide_gscore>
-7.85556262349626

> <r_i_glide_lipo>
-3.85211181748166

> <r_i_glide_hbond>
-0.16

> <r_i_glide_metal>
0

> <r_i_glide_rewards>
-2.29675850656428

> <r_i_glide_evdw>
-27.6056385040283

> <r_i_glide_ecoul>
-2.89774394035339

> <r_i_glide_erotb>
0.268251216804111

> <r_i_glide_esite>
0

> <r_i_glide_emodel>
-42.8734505968925

> <r_i_glide_energy>
-30.5033824443817

> <r_i_glide_einternal>
4.75839614868164

> <i_i_glide_confnum>
2

> <i_i_glide_posenum>
64

> <r_i_glide_eff_state_penalty>
0

> <s_user_duplicate_titles>
42536

> <s_m_subgroup_title>
dock_pv

> <s_m_subgroupid>
dock_pv1

> <b_m_subgroup_collapsed>
0

$$$$
51545
                    3D
 Schrodinger Suite 2021-1.
 48 50  0  0  1  0            999 V2000
   34.0086    1.2924   26.9800 C   0  0  0  0  0  0
   34.3990    0.0922   27.8641 C   0  0  0  0  0  0
   33.6600   -1.2466   27.5282 C   0  0  0  0  0  0
   32.1358   -1.2146   27.5410 C   0  0  0  0  0  0
   31.3280   -1.6705   26.5429 C   0  0  0  0  0  0
   31.8546   -2.2338   25.2761 C   0  0  0  0  0  0
   32.7544   -3.3058   25.2913 C   0  0  0  0  0  0
   33.3460   -3.7419   24.1106 C   0  0  0  0  0  0
   32.9871   -3.1747   22.8991 C   0  0  0  0  0  0
   32.0596   -2.1468   22.8698 C   0  0  0  0  0  0
   31.5034   -1.6617   24.0498 C   0  0  0  0  0  0
   33.5348   -3.6271   21.7297 O   0  0  0  0  0  0
   29.8574   -1.6524   26.7145 C   0  0  0  0  0  0
   29.2426   -2.6426   27.4874 C   0  0  0  0  0  0
   27.9000   -2.5354   27.8342 C   0  0  0  0  0  0
   27.1853   -1.4065   27.4492 C   0  0  0  0  0  0
   27.7861   -0.4288   26.6639 C   0  0  0  0  0  0
   29.1010   -0.5794   26.2416 C   0  0  0  0  0  0
   25.8932   -1.2385   27.8608 O   0  0  0  0  0  0
   31.6588   -0.5649   28.7650 C   0  0  0  0  0  0
   30.7528    0.4965   28.7457 C   0  0  0  0  0  0
   30.4610    1.1591   29.9216 C   0  0  0  0  0  0
   31.1693    0.8506   31.0739 C   0  0  0  0  0  0
   32.1273   -0.1430   31.0638 C   0  0  0  0  0  0
   32.2812   -0.9235   29.9542 C   0  0  0  0  0  0
   30.8639    1.4580   32.2489 O   0  0  0  0  0  0
   34.6665    2.1422   27.1649 H   0  0  0  0  0  0
   34.0598    1.0598   25.9177 H   0  0  0  0  0  0
   32.9896    1.6185   27.1869 H   0  0  0  0  0  0
   34.2240    0.3834   28.8984 H   0  0  0  0  0  0
   35.4776   -0.0687   27.8500 H   0  0  0  0  0  0
   33.9690   -1.9732   28.2742 H   0  0  0  0  0  0
   34.0497   -1.7421   26.6639 H   0  0  0  0  0  0
   33.0275   -3.7794   26.2235 H   0  0  0  0  0  0
   34.0601   -4.5420   24.1410 H   0  0  0  0  0  0
   31.7693   -1.7421   21.9182 H   0  0  0  0  0  0
   30.8040   -0.8408   24.0002 H   0  0  0  0  0  0
   34.0176   -4.4522   21.8169 H   0  0  0  0  0  0
   29.8109   -3.4815   27.8553 H   0  0  0  0  0  0
   27.4315   -3.3026   28.4324 H   0  0  0  0  0  0
   27.2600    0.4696   26.3981 H   0  0  0  0  0  0
   29.5626    0.2037   25.6581 H   0  0  0  0  0  0
   25.4880   -0.4731   27.4474 H   0  0  0  0  0  0
   30.2930    0.8447   27.8392 H   0  0  0  0  0  0
   29.6712    1.8849   29.9331 H   0  0  0  0  0  0
   32.7919   -0.3629   31.8639 H   0  0  0  0  0  0
   33.0049   -1.7197   30.0173 H   0  0  0  0  0  0
   31.3431    1.0945   32.9965 H   0  0  0  0  0  0
  1  2  1  0  0  0
  1 27  1  0  0  0
  1 28  1  0  0  0
  1 29  1  0  0  0
  2  3  1  0  0  0
  2 30  1  0  0  0
  2 31  1  0  0  0
  3  4  1  0  0  0
  3 32  1  0  0  0
  3 33  1  0  0  0
  4  5  2  3  0  0
  4 20  1  0  0  0
  5  6  1  0  0  0
  5 13  1  0  0  0
  6 11  1  0  0  0
  6  7  2  0  0  0
  7  8  1  0  0  0
  7 34  1  0  0  0
  8  9  2  0  0  0
  8 35  1  0  0  0
  9 10  1  0  0  0
  9 12  1  0  0  0
 10 11  2  0  0  0
 10 36  1  0  0  0
 11 37  1  0  0  0
 12 38  1  0  0  0
 13 18  1  0  0  0
 13 14  2  0  0  0
 14 15  1  0  0  0
 14 39  1  0  0  0
 15 16  2  0  0  0
 15 40  1  0  0  0
 16 17  1  0  0  0
 16 19  1  0  0  0
 17 18  2  0  0  0
 17 41  1  0  0  0
 18 42  1  0  0  0
 19 43  1  0  0  0
 20 25  1  0  0  0
 20 21  2  0  0  0
 21 22  1  0  0  0
 21 44  1  0  0  0
 22 23  2  0  0  0
 22 45  1  0  0  0
 23 24  1  0  0  0
 23 26  1  0  0  0
 24 25  2  0  0  0
 24 46  1  0  0  0
 25 47  1  0  0  0
 26 48  1  0  0  0
M  END
> <s_m_entry_id>
17569

> <s_m_entry_name>
ligand_docking-pose.496

> <s_m_Source_Path>
/home/csk/Desktop/cluster/DUD-E-result/esr1

> <s_m_Source_File>
ligand_docking-pose.sdf

> <i_m_Source_File_Index>
496

> <i_lp_mmshare_version>
53161

> <i_f3d_flags>
0

> <r_lp_tautomer_probability>
1

> <s_lp_Force_Field>
OPLS_2005

> <r_lp_Energy>
26.827756

> <b_lp_Chiralities_Consistent>
1

> <s_lp_Variant>
51545-1

> <s_i_glide_gridfile>
glide-grid_1sj0

> <i_i_glide_lignum>
1432

> <i_i_glide_rotatable_bonds>
8

> <r_i_docking_score>
-7.85379820856101

> <r_i_glide_ligand_efficiency>
-0.302069161867731

> <r_i_glide_ligand_efficiency_sa>
-0.894878703448396

> <r_i_glide_ligand_efficiency_ln>
-1.8444387388667

> <r_i_glide_gscore>
-7.85379820856101

> <r_i_glide_lipo>
-5.41728358009604

> <r_i_glide_hbond>
0

> <r_i_glide_metal>
0

> <r_i_glide_rewards>
-1.86008509567608

> <r_i_glide_evdw>
-23.9752712249756

> <r_i_glide_ecoul>
-0.0757540687918663

> <r_i_glide_erotb>
0.633697138778677

> <r_i_glide_esite>
0

> <r_i_glide_emodel>
-16.814623582389

> <r_i_glide_energy>
-24.0510252937675

> <r_i_glide_einternal>
16.4597492218018

> <i_i_glide_confnum>
116

> <i_i_glide_posenum>
233

> <r_i_glide_eff_state_penalty>
0

> <s_user_duplicate_titles>
51545

> <s_m_subgroup_title>
dock_pv

> <s_m_subgroupid>
dock_pv1

> <b_m_subgroup_collapsed>
0

$$$$
319102
                    3D
 Schrodinger Suite 2021-1.
 32 34  0  0  1  0            999 V2000
   33.2600   -2.0890   28.1001 C   0  0  0  0  0  0
   32.1296   -1.3546   27.3974 C   0  0  0  0  0  0
   31.5706   -1.3332   26.1491 C   0  0  0  0  0  0
   30.3537   -0.4921   26.2042 C   0  0  0  0  0  0
   29.5213   -0.3140   25.3179 O   0  0  0  0  0  0
   30.3431    0.1027   27.5356 C   0  0  0  0  0  0
   31.4244   -0.3897   28.2306 C   0  0  0  0  0  0
   31.6891    0.0544   29.5286 C   0  0  0  0  0  0
   30.8600    1.0034   30.1120 C   0  0  0  0  0  0
   29.7357    1.4612   29.4214 C   0  0  0  0  0  0
   29.4687    1.0106   28.1306 C   0  0  0  0  0  0
   28.3651    1.4619   27.4582 O   0  0  0  0  0  0
   31.1524    1.4579   31.3670 O   0  0  0  0  0  0
   32.0025   -2.0605   24.8908 C   0  0  0  0  0  0
   31.4523   -1.7744   23.6214 C   0  0  0  0  0  0
   31.7600   -2.5420   22.4927 C   0  0  0  0  0  0
   32.7185   -3.5307   22.5707 C   0  0  0  0  0  0
   33.3590   -3.7434   23.7732 C   0  0  0  0  0  0
   32.9929   -3.0485   24.9131 C   0  0  0  0  0  0
   33.0256   -4.3076   21.4865 O   0  0  0  0  0  0
   32.8999   -2.4466   29.0645 H   0  0  0  0  0  0
   33.6599   -2.9755   27.6423 H   0  0  0  0  0  0
   34.0600   -1.3804   28.3024 H   0  0  0  0  0  0
   32.5418   -0.3050   30.0858 H   0  0  0  0  0  0
   29.0702    2.1840   29.8633 H   0  0  0  0  0  0
   28.2918    1.0599   26.5882 H   0  0  0  0  0  0
   30.5306    2.1280   31.6586 H   0  0  0  0  0  0
   30.7300   -0.9923   23.4665 H   0  0  0  0  0  0
   31.2670   -2.3622   21.5506 H   0  0  0  0  0  0
   34.0600   -4.5491   23.8574 H   0  0  0  0  0  0
   33.4980   -3.3656   25.7917 H   0  0  0  0  0  0
   32.2896   -4.4832   20.8879 H   0  0  0  0  0  0
  1  2  1  0  0  0
  1 21  1  0  0  0
  1 22  1  0  0  0
  1 23  1  0  0  0
  2  7  1  0  0  0
  2  3  2  0  0  0
  3  4  1  0  0  0
  3 14  1  0  0  0
  4  5  2  0  0  0
  4  6  1  0  0  0
  6 11  2  0  0  0
  6  7  1  0  0  0
  7  8  2  0  0  0
  8  9  1  0  0  0
  8 24  1  0  0  0
  9 10  2  0  0  0
  9 13  1  0  0  0
 10 11  1  0  0  0
 10 25  1  0  0  0
 11 12  1  0  0  0
 12 26  1  0  0  0
 13 27  1  0  0  0
 14 19  1  0  0  0
 14 15  2  0  0  0
 15 16  1  0  0  0
 15 28  1  0  0  0
 16 17  2  0  0  0
 16 29  1  0  0  0
 17 18  1  0  0  0
 17 20  1  0  0  0
 18 19  2  0  0  0
 18 30  1  0  0  0
 19 31  1  0  0  0
 20 32  1  0  0  0
M  END
> <s_m_entry_id>
17570

> <s_m_entry_name>
ligand_docking-pose.497

> <s_m_Source_Path>
/home/csk/Desktop/cluster/DUD-E-result/esr1

> <s_m_Source_File>
ligand_docking-pose.sdf

> <i_m_Source_File_Index>
497

> <i_lp_mmshare_version>
53161

> <i_f3d_flags>
0

> <r_lp_tautomer_probability>
1

> <s_lp_Force_Field>
OPLS_2005

> <r_lp_Energy>
26.415101

> <b_lp_Chiralities_Consistent>
1

> <s_lp_Variant>
319102-1

> <s_i_glide_gridfile>
glide-grid_1sj0

> <i_i_glide_lignum>
1049

> <i_i_glide_rotatable_bonds>
4

> <r_i_docking_score>
-7.85272447217532

> <r_i_glide_ligand_efficiency>
-0.392636223608766

> <r_i_glide_ligand_efficiency_sa>
-1.06577868121267

> <r_i_glide_ligand_efficiency_ln>
-1.96527793519828

> <r_i_glide_gscore>
-7.85272447217532

> <r_i_glide_lipo>
-3.80067709131626

> <r_i_glide_hbond>
-0.0486515416012188

> <r_i_glide_metal>
0

> <r_i_glide_rewards>
-2.38928607185421

> <r_i_glide_evdw>
-31.7066459655762

> <r_i_glide_ecoul>
-1.84515464305878

> <r_i_glide_erotb>
0.247995727333995

> <r_i_glide_esite>
0

> <r_i_glide_emodel>
-44.8833043702701

> <r_i_glide_energy>
-33.5518006086349

> <r_i_glide_einternal>
4.72752094268799

> <i_i_glide_confnum>
2

> <i_i_glide_posenum>
270

> <r_i_glide_eff_state_penalty>
0

> <s_user_duplicate_titles>
319102

> <s_m_subgroup_title>
dock_pv

> <s_m_subgroupid>
dock_pv1

> <b_m_subgroup_collapsed>
0

$$$$
351197
                    3D
 Schrodinger Suite 2021-1.
 39 41  0  0  1  0            999 V2000
   26.2420   -3.1919   28.2525 C   0  0  0  0  0  0
   27.2739   -3.2176   27.1136 C   0  0  0  0  0  0
   28.6660   -2.6606   27.4794 C   0  0  0  0  0  0
   28.7171   -1.1245   27.6833 C   0  0  0  0  0  0
   29.9985   -0.3831   27.1641 C   0  0  1  0  0  0
   30.0122    1.0950   27.6466 C   0  0  0  0  0  0
   30.2077    1.2450   29.1759 C   0  0  0  0  0  0
   31.2604    0.2890   29.7723 C   0  0  0  0  0  0
   31.6149    0.4003   30.9462 O   0  0  0  0  0  0
   31.8274   -0.7375   28.8903 C   0  0  0  0  0  0
   31.3088   -1.0194   27.6657 C   0  0  0  0  0  0
   31.8405   -1.8453   26.5540 C   0  0  0  0  0  0
   32.8595   -2.7999   26.5085 C   0  0  0  0  0  0
   33.2603   -3.3422   25.2866 C   0  0  0  0  0  0
   32.6704   -2.9154   24.1012 C   0  0  0  0  0  0
   31.6573   -1.9653   24.1412 C   0  0  0  0  0  0
   31.2104   -1.4700   25.3672 C   0  0  0  0  0  0
   30.0987   -0.4952   25.6289 C   0  0  0  0  0  0
   33.0650   -3.4374   22.9009 O   0  0  0  0  0  0
   33.5622   -1.5129   29.4641 Br  0  0  0  0  0  0
   25.2807   -3.5494   27.8780 H   0  0  0  0  0  0
   26.0852   -2.1934   28.6636 H   0  0  0  0  0  0
   26.5445   -3.8526   29.0638 H   0  0  0  0  0  0
   27.3865   -4.2489   26.7752 H   0  0  0  0  0  0
   26.8755   -2.6770   26.2533 H   0  0  0  0  0  0
   29.0566   -3.1675   28.3622 H   0  0  0  0  0  0
   29.3468   -2.9442   26.6815 H   0  0  0  0  0  0
   27.8491   -0.6691   27.2027 H   0  0  0  0  0  0
   28.5681   -0.9318   28.7425 H   0  0  0  0  0  0
   30.8178    1.6380   27.1497 H   0  0  0  0  0  0
   29.0913    1.5958   27.3442 H   0  0  0  0  0  0
   29.2611    1.0581   29.6795 H   0  0  0  0  0  0
   30.5189    2.2573   29.4185 H   0  0  0  0  0  0
   33.3492   -3.1458   27.4018 H   0  0  0  0  0  0
   34.0399   -4.0882   25.2641 H   0  0  0  0  0  0
   31.1942   -1.6563   23.2170 H   0  0  0  0  0  0
   29.1595   -0.8262   25.1857 H   0  0  0  0  0  0
   30.3313    0.4624   25.1888 H   0  0  0  0  0  0
   33.6679   -4.1768   22.9894 H   0  0  0  0  0  0
  1  2  1  0  0  0
  1 21  1  0  0  0
  1 22  1  0  0  0
  1 23  1  0  0  0
  2  3  1  0  0  0
  2 24  1  0  0  0
  2 25  1  0  0  0
  3  4  1  0  0  0
  3 26  1  0  0  0
  3 27  1  0  0  0
  4  5  1  0  0  0
  4 28  1  0  0  0
  4 29  1  0  0  0
  5 11  1  0  0  0
  5 18  1  0  0  0
  5  6  1  0  0  0
  6  7  1  0  0  0
  6 30  1  0  0  0
  6 31  1  0  0  0
  7  8  1  0  0  0
  7 32  1  0  0  0
  7 33  1  0  0  0
  8  9  2  0  0  0
  8 10  1  0  0  0
 10 11  2  0  0  0
 10 20  1  0  0  0
 11 12  1  0  0  0
 12 17  1  0  0  0
 12 13  2  0  0  0
 13 14  1  0  0  0
 13 34  1  0  0  0
 14 15  2  0  0  0
 14 35  1  0  0  0
 15 16  1  0  0  0
 15 19  1  0  0  0
 16 17  2  0  0  0
 16 36  1  0  0  0
 17 18  1  0  0  0
 18 37  1  0  0  0
 18 38  1  0  0  0
 19 39  1  0  0  0
M  END
> <s_m_entry_id>
17571

> <s_m_entry_name>
ligand_docking-pose.498

> <s_m_Source_Path>
/home/csk/Desktop/cluster/DUD-E-result/esr1

> <s_m_Source_File>
ligand_docking-pose.sdf

> <i_m_Source_File_Index>
498

> <i_lp_mmshare_version>
53161

> <i_f3d_flags>
0

> <r_lp_tautomer_probability>
1

> <s_lp_Force_Field>
OPLS_2005

> <r_lp_Energy>
22.032469

> <b_lp_Chiralities_Consistent>
1

> <s_lp_Variant>
351197-1

> <s_i_glide_gridfile>
glide-grid_1sj0

> <i_i_glide_lignum>
1336

> <i_i_glide_rotatable_bonds>
4

> <r_i_docking_score>
-7.85035173408347

> <r_i_glide_ligand_efficiency>
-0.392517586704174

> <r_i_glide_ligand_efficiency_sa>
-1.06545665110919

> <r_i_glide_ligand_efficiency_ln>
-1.96468411711203

> <r_i_glide_gscore>
-7.85035173408347

> <r_i_glide_lipo>
-4.2269258039892

> <r_i_glide_hbond>
0

> <r_i_glide_metal>
0

> <r_i_glide_rewards>
-2.21792281224233

> <r_i_glide_evdw>
-36.1572341918945

> <r_i_glide_ecoul>
0.443512916564941

> <r_i_glide_erotb>
0.335831654258043

> <r_i_glide_esite>
0

> <r_i_glide_emodel>
-49.9743160111408

> <r_i_glide_energy>
-35.7137212753296

> <r_i_glide_einternal>
2.84057879447937

> <i_i_glide_confnum>
6

> <i_i_glide_posenum>
242

> <r_i_glide_eff_state_penalty>
0

> <s_user_duplicate_titles>
351197

> <s_m_subgroup_title>
dock_pv

> <s_m_subgroupid>
dock_pv1

> <b_m_subgroup_collapsed>
0

$$$$
341364
                    3D
 Schrodinger Suite 2021-1.
 31 33  0  0  1  0            999 V2000
   32.6093    0.8573   30.2929 C   0  0  0  0  0  0
   31.3020    0.0851   30.0692 C   0  0  0  0  0  0
   30.8373    0.0647   28.5973 C   0  0  0  0  0  0
   29.7920    0.9272   28.2139 C   0  0  0  0  0  0
   29.2581    0.8822   26.9366 C   0  0  0  0  0  0
   29.8013    0.0344   25.9889 C   0  0  0  0  0  0
   30.9110   -0.7617   26.2908 C   0  0  0  0  0  0
   31.4154   -0.7907   27.6152 C   0  0  0  0  0  0
   32.5522   -1.7448   27.9151 C   0  0  0  0  0  0
   33.0754   -1.9364   29.0091 O   0  0  0  0  0  0
   33.0778   -2.5014   26.9185 O   0  0  0  0  0  0
   32.6580   -2.3828   25.6118 C   0  0  0  0  0  0
   31.5902   -1.5636   25.2244 C   0  0  0  0  0  0
   31.2600   -1.5122   23.8641 C   0  0  0  0  0  0
   31.9525   -2.2799   22.9298 C   0  0  0  0  0  0
   33.0174   -3.0776   23.3247 C   0  0  0  0  0  0
   33.3854   -3.1130   24.6690 C   0  0  0  0  0  0
   34.4600   -3.8305   25.0594 F   0  0  0  0  0  0
   33.6797   -3.8271   22.3901 O   0  0  0  0  0  0
   29.2612    1.8577   29.0641 O   0  0  0  0  0  0
   32.8524    0.9174   31.3526 H   0  0  0  0  0  0
   32.5123    1.8637   29.9080 H   0  0  0  0  0  0
   33.4642    0.4063   29.7913 H   0  0  0  0  0  0
   31.3776   -0.9323   30.4537 H   0  0  0  0  0  0
   30.5465    0.5381   30.7095 H   0  0  0  0  0  0
   28.4351    1.5280   26.6683 H   0  0  0  0  0  0
   29.3650    0.0535   25.0038 H   0  0  0  0  0  0
   30.4565   -0.8912   23.5043 H   0  0  0  0  0  0
   31.6611   -2.2419   21.8909 H   0  0  0  0  0  0
   33.1583   -4.0137   21.6048 H   0  0  0  0  0  0
   29.7238    1.9064   29.9014 H   0  0  0  0  0  0
  1  2  1  0  0  0
  1 21  1  0  0  0
  1 22  1  0  0  0
  1 23  1  0  0  0
  2  3  1  0  0  0
  2 24  1  0  0  0
  2 25  1  0  0  0
  3  8  1  0  0  0
  3  4  2  0  0  0
  4  5  1  0  0  0
  4 20  1  0  0  0
  5  6  2  0  0  0
  5 26  1  0  0  0
  6  7  1  0  0  0
  6 27  1  0  0  0
  7 13  1  0  0  0
  7  8  2  0  0  0
  8  9  1  0  0  0
  9 10  2  0  0  0
  9 11  1  0  0  0
 11 12  1  0  0  0
 12 17  1  0  0  0
 12 13  2  0  0  0
 13 14  1  0  0  0
 14 15  2  0  0  0
 14 28  1  0  0  0
 15 16  1  0  0  0
 15 29  1  0  0  0
 16 17  2  0  0  0
 16 19  1  0  0  0
 17 18  1  0  0  0
 19 30  1  0  0  0
 20 31  1  0  0  0
M  END
> <s_m_entry_id>
17572

> <s_m_entry_name>
ligand_docking-pose.499

> <s_m_Source_Path>
/home/csk/Desktop/cluster/DUD-E-result/esr1

> <s_m_Source_File>
ligand_docking-pose.sdf

> <i_m_Source_File_Index>
499

> <i_lp_mmshare_version>
53161

> <i_f3d_flags>
0

> <r_lp_tautomer_probability>
1

> <s_lp_Force_Field>
OPLS_2005

> <r_lp_Energy>
23.472828

> <b_lp_Chiralities_Consistent>
1

> <s_lp_Variant>
341364-1

> <s_i_glide_gridfile>
glide-grid_1sj0

> <i_i_glide_lignum>
1151

> <i_i_glide_rotatable_bonds>
3

> <r_i_docking_score>
-7.84593886338458

> <r_i_glide_ligand_efficiency>
-0.392296943169229

> <r_i_glide_ligand_efficiency_sa>
-1.06485773241154

> <r_i_glide_ligand_efficiency_ln>
-1.96357972112231

> <r_i_glide_gscore>
-7.84593886338458

> <r_i_glide_lipo>
-4.02004836621182

> <r_i_glide_hbond>
0

> <r_i_glide_metal>
0

> <r_i_glide_rewards>
-2.17603366976468

> <r_i_glide_evdw>
-32.3637390136719

> <r_i_glide_ecoul>
-0.211132511496544

> <r_i_glide_erotb>
0

> <r_i_glide_esite>
0

> <r_i_glide_emodel>
-46.8286656965517

> <r_i_glide_energy>
-32.5748715251684

> <r_i_glide_einternal>
0.846264481544495

> <i_i_glide_confnum>
1

> <i_i_glide_posenum>
1

> <r_i_glide_eff_state_penalty>
0

> <s_user_duplicate_titles>
341364

> <s_m_subgroup_title>
dock_pv

> <s_m_subgroupid>
dock_pv1

> <b_m_subgroup_collapsed>
0

$$$$
343239
                    3D
 Schrodinger Suite 2021-1.
 33 35  0  0  1  0            999 V2000
   33.8762   -3.1734   23.3544 C   0  0  0  0  0  0
   34.1144   -3.7420   22.1032 C   0  0  0  0  0  0
   33.0877   -3.8278   21.1761 C   0  0  0  0  0  0
   31.8692   -3.2250   21.4369 C   0  0  0  0  0  0
   31.6600   -2.6066   22.6640 C   0  0  0  0  0  0
   32.6095   -2.6558   23.6960 C   0  0  0  0  0  0
   32.2908   -2.2826   25.0622 N   0  0  0  0  0  0
   32.8600   -3.0318   26.0751 C   0  0  0  0  0  0
   32.8600   -2.6992   27.3061 N   0  0  0  0  0  0
   32.1546   -1.5696   27.7080 C   0  0  0  0  0  0
   32.2764   -1.2062   29.0416 C   0  0  0  0  0  0
   31.5197   -0.1546   29.5314 C   0  0  0  0  0  0
   30.6015    0.4848   28.7067 C   0  0  0  0  0  0
   30.4429    0.1213   27.3611 C   0  0  0  0  0  0
   31.2973   -0.8857   26.8394 C   0  0  0  0  0  0
   31.4360   -1.2190   25.3490 C   0  0  0  0  0  0
   30.9018   -0.5420   24.4774 O   0  0  0  0  0  0
   29.3303    0.8320   26.5723 C   0  0  0  0  0  0
   28.1343    1.0391   27.3052 O   0  0  0  0  0  0
   31.6600    0.2338   30.8327 O   0  0  0  0  0  0
   33.2600   -4.5420   20.0235 O   0  0  0  0  0  0
   34.6793   -3.1891   24.0741 H   0  0  0  0  0  0
   35.0745   -4.1739   21.8640 H   0  0  0  0  0  0
   31.0798   -3.2511   20.6995 H   0  0  0  0  0  0
   30.7032   -2.1420   22.8038 H   0  0  0  0  0  0
   33.3656   -3.9537   25.7977 H   0  0  0  0  0  0
   32.9640   -1.7420   29.6774 H   0  0  0  0  0  0
   29.9948    1.2742   29.1272 H   0  0  0  0  0  0
   29.0327    0.2954   25.6746 H   0  0  0  0  0  0
   29.6953    1.8102   26.2640 H   0  0  0  0  0  0
   27.7972    0.1829   27.5809 H   0  0  0  0  0  0
   32.3588   -0.2521   31.2735 H   0  0  0  0  0  0
   32.5015   -5.1310   19.8640 H   0  0  0  0  0  0
  1  6  1  0  0  0
  1  2  2  0  0  0
  1 22  1  0  0  0
  2  3  1  0  0  0
  2 23  1  0  0  0
  3  4  2  0  0  0
  3 21  1  0  0  0
  4  5  1  0  0  0
  4 24  1  0  0  0
  5  6  2  0  0  0
  5 25  1  0  0  0
  6  7  1  0  0  0
  7 16  1  0  0  0
  7  8  1  0  0  0
  8  9  2  0  0  0
  8 26  1  0  0  0
  9 10  1  0  0  0
 10 15  2  0  0  0
 10 11  1  0  0  0
 11 12  2  0  0  0
 11 27  1  0  0  0
 12 13  1  0  0  0
 12 20  1  0  0  0
 13 14  2  0  0  0
 13 28  1  0  0  0
 14 15  1  0  0  0
 14 18  1  0  0  0
 15 16  1  0  0  0
 16 17  2  0  0  0
 18 19  1  0  0  0
 18 29  1  0  0  0
 18 30  1  0  0  0
 19 31  1  0  0  0
 20 32  1  0  0  0
 21 33  1  0  0  0
M  END
> <s_m_entry_id>
17573

> <s_m_entry_name>
ligand_docking-pose.500

> <s_m_Source_Path>
/home/csk/Desktop/cluster/DUD-E-result/esr1

> <s_m_Source_File>
ligand_docking-pose.sdf

> <i_m_Source_File_Index>
500

> <i_lp_mmshare_version>
53161

> <i_f3d_flags>
0

> <r_lp_tautomer_probability>
1

> <s_lp_Force_Field>
OPLS_2005

> <r_lp_Energy>
37.642615

> <b_lp_Chiralities_Consistent>
1

> <s_lp_Variant>
343239-1

> <s_i_glide_gridfile>
glide-grid_1sj0

> <i_i_glide_lignum>
626

> <i_i_glide_rotatable_bonds>
5

> <r_i_docking_score>
-7.83240818548278

> <r_i_glide_ligand_efficiency>
-0.372971818356323

> <r_i_glide_ligand_efficiency_sa>
-1.02900096572782

> <r_i_glide_ligand_efficiency_ln>
-1.93654709698965

> <r_i_glide_gscore>
-7.83240818548278

> <r_i_glide_lipo>
-2.81989462392494

> <r_i_glide_hbond>
-0.16

> <r_i_glide_metal>
0

> <r_i_glide_rewards>
-2.71105179672971

> <r_i_glide_evdw>
-35.3138542175293

> <r_i_glide_ecoul>
-5.49564123153687

> <r_i_glide_erotb>
0.448577130778866

> <r_i_glide_esite>
0

> <r_i_glide_emodel>
-51.2585238577299

> <r_i_glide_energy>
-40.8094954490662

> <r_i_glide_einternal>
8.05738735198975

> <i_i_glide_confnum>
5

> <i_i_glide_posenum>
66

> <r_i_glide_eff_state_penalty>
0

> <s_user_duplicate_titles>
343239

> <s_m_subgroup_title>
dock_pv

> <s_m_subgroupid>
dock_pv1

> <b_m_subgroup_collapsed>
0

$$$$
338955
                    3D
 Schrodinger Suite 2021-1.
 40 41  0  0  1  0            999 V2000
   34.2694    0.6170   29.7530 C   0  0  0  0  0  0
   34.4488    0.7967   28.2416 C   0  0  0  0  0  0
   33.1558    1.0747   27.4456 C   0  0  0  0  0  0
   32.1408    0.0240   27.5680 N   0  0  0  0  0  0
   32.1732   -1.0109   26.6161 C   0  0  0  0  0  0
   31.7466   -0.7228   25.3146 C   0  0  0  0  0  0
   31.8377   -1.6797   24.3042 C   0  0  0  0  0  0
   32.3611   -2.9394   24.5863 C   0  0  0  0  0  0
   32.7731   -3.2435   25.8822 C   0  0  0  0  0  0
   32.6755   -2.2920   26.8988 C   0  0  0  0  0  0
   33.2606   -2.7881   28.6389 Br  0  0  0  0  0  0
   30.9346    0.0985   28.8852 S   0  0  0  0  0  0
   31.2600   -0.9415   29.8648 O   0  0  0  0  0  0
   30.8364    1.4997   29.3115 O   0  0  0  0  0  0
   29.3662   -0.3445   28.1507 C   0  0  0  0  0  0
   28.4501    0.6482   27.8038 C   0  0  0  0  0  0
   27.1975    0.2890   27.3155 C   0  0  0  0  0  0
   26.8604   -1.0531   27.1411 C   0  0  0  0  0  0
   27.7841   -2.0580   27.4635 C   0  0  0  0  0  0
   29.0401   -1.6930   27.9640 C   0  0  0  0  0  0
   27.4311   -3.5313   27.3127 C   0  0  0  0  0  0
   25.6077   -1.3419   26.6640 O   0  0  0  0  0  0
   35.2447    0.5105   30.2223 H   0  0  0  0  0  0
   33.7581    1.4628   30.2113 H   0  0  0  0  0  0
   33.7085   -0.2834   29.9927 H   0  0  0  0  0  0
   34.9257   -0.1074   27.8641 H   0  0  0  0  0  0
   35.1610    1.6032   28.0577 H   0  0  0  0  0  0
   33.4041    1.2798   26.4025 H   0  0  0  0  0  0
   32.7172    1.9802   27.8647 H   0  0  0  0  0  0
   31.3609    0.2579   25.0828 H   0  0  0  0  0  0
   31.5141   -1.4399   23.3022 H   0  0  0  0  0  0
   32.4381   -3.6816   23.8034 H   0  0  0  0  0  0
   33.1759   -4.2201   26.0999 H   0  0  0  0  0  0
   28.6906    1.6931   27.9415 H   0  0  0  0  0  0
   26.4745    1.0537   27.0699 H   0  0  0  0  0  0
   29.7567   -2.4564   28.2350 H   0  0  0  0  0  0
   26.5078   -3.7535   27.8492 H   0  0  0  0  0  0
   27.2600   -3.7720   26.2645 H   0  0  0  0  0  0
   28.2133   -4.1858   27.7007 H   0  0  0  0  0  0
   25.4495   -2.2495   26.3461 H   0  0  0  0  0  0
  1  2  1  0  0  0
  1 23  1  0  0  0
  1 24  1  0  0  0
  1 25  1  0  0  0
  2  3  1  0  0  0
  2 26  1  0  0  0
  2 27  1  0  0  0
  3  4  1  0  0  0
  3 28  1  0  0  0
  3 29  1  0  0  0
  4  5  1  0  0  0
  4 12  1  0  0  0
  5 10  1  0  0  0
  5  6  2  0  0  0
  6  7  1  0  0  0
  6 30  1  0  0  0
  7  8  2  0  0  0
  7 31  1  0  0  0
  8  9  1  0  0  0
  8 32  1  0  0  0
  9 10  2  0  0  0
  9 33  1  0  0  0
 10 11  1  0  0  0
 12 13  2  0  0  0
 12 14  2  0  0  0
 12 15  1  0  0  0
 15 20  1  0  0  0
 15 16  2  0  0  0
 16 17  1  0  0  0
 16 34  1  0  0  0
 17 18  2  0  0  0
 17 35  1  0  0  0
 18 19  1  0  0  0
 18 22  1  0  0  0
 19 20  2  0  0  0
 19 21  1  0  0  0
 20 36  1  0  0  0
 21 37  1  0  0  0
 21 38  1  0  0  0
 21 39  1  0  0  0
 22 40  1  0  0  0
M  END
> <s_m_entry_id>
17574

> <s_m_entry_name>
ligand_docking-pose.501

> <s_m_Source_Path>
/home/csk/Desktop/cluster/DUD-E-result/esr1

> <s_m_Source_File>
ligand_docking-pose.sdf

> <i_m_Source_File_Index>
501

> <i_lp_mmshare_version>
53161

> <i_f3d_flags>
0

> <r_lp_tautomer_probability>
0.999999999997365

> <s_lp_Force_Field>
OPLS_2005

> <r_lp_Energy>
9.624591

> <b_lp_Chiralities_Consistent>
1

> <s_lp_Variant>
338955-1

> <s_i_glide_gridfile>
glide-grid_1sj0

> <i_i_glide_lignum>
1526

> <i_i_glide_rotatable_bonds>
6

> <r_i_docking_score>
-7.83165814578353

> <r_i_glide_ligand_efficiency>
-0.355984461171979

> <r_i_glide_ligand_efficiency_sa>
-0.997482460278297

> <r_i_glide_ligand_efficiency_ln>
-1.91434291750128

> <r_i_glide_gscore>
-7.83165814578353

> <r_i_glide_lipo>
-4.25635447977184

> <r_i_glide_hbond>
-0.16

> <r_i_glide_metal>
0

> <r_i_glide_rewards>
-1.06427944595432

> <r_i_glide_evdw>
-41.441276550293

> <r_i_glide_ecoul>
-5.37026214599609

> <r_i_glide_erotb>
0.526578929356688

> <r_i_glide_esite>
0

> <r_i_glide_emodel>
-65.6529001558675

> <r_i_glide_energy>
-46.8115386962891

> <r_i_glide_einternal>
4.29637813568115

> <i_i_glide_confnum>
29

> <i_i_glide_posenum>
133

> <r_i_glide_eff_state_penalty>
0

> <s_user_duplicate_titles>
338955

> <s_m_subgroup_title>
dock_pv

> <s_m_subgroupid>
dock_pv1

> <b_m_subgroup_collapsed>
0

$$$$
339399
                    3D
 Schrodinger Suite 2021-1.
 37 38  0  0  1  0            999 V2000
   34.6861    1.1162   28.0159 C   0  0  0  0  0  0
   33.3567    1.8779   27.8883 C   0  0  0  0  0  0
   32.3173    1.2337   26.9506 C   0  0  0  0  0  0
   32.0102   -0.1603   27.2977 N   0  0  0  0  0  0
   32.1274   -1.1277   26.2850 C   0  0  0  0  0  0
   32.8595   -2.2911   26.5390 C   0  0  0  0  0  0
   33.0294   -3.2412   25.5354 C   0  0  0  0  0  0
   32.4623   -3.0294   24.2808 C   0  0  0  0  0  0
   31.7112   -1.8870   24.0268 C   0  0  0  0  0  0
   31.5344   -0.9413   25.0314 C   0  0  0  0  0  0
   30.8690   -0.4325   28.6424 S   0  0  0  0  0  0
   30.8619    0.7654   29.4909 O   0  0  0  0  0  0
   31.1950   -1.7420   29.2099 O   0  0  0  0  0  0
   29.2345   -0.5763   27.9221 C   0  0  0  0  0  0
   28.4141    0.5503   27.8641 C   0  0  0  0  0  0
   27.0904    0.4164   27.4634 C   0  0  0  0  0  0
   26.6075   -0.8284   27.0640 C   0  0  0  0  0  0
   27.4441   -1.9429   27.0562 C   0  0  0  0  0  0
   28.7621   -1.8199   27.4947 C   0  0  0  0  0  0
   25.3028   -0.9452   26.6624 O   0  0  0  0  0  0
   35.3490    1.6121   28.7251 H   0  0  0  0  0  0
   34.5349    0.0964   28.3684 H   0  0  0  0  0  0
   35.2109    1.0670   27.0640 H   0  0  0  0  0  0
   33.5487    2.9013   27.5645 H   0  0  0  0  0  0
   32.9202    1.9577   28.8823 H   0  0  0  0  0  0
   32.7782    1.2243   25.9610 H   0  0  0  0  0  0
   31.4131    1.8456   26.8959 H   0  0  0  0  0  0
   33.3002   -2.4532   27.5132 H   0  0  0  0  0  0
   33.5978   -4.1393   25.7250 H   0  0  0  0  0  0
   32.5940   -3.7668   23.5025 H   0  0  0  0  0  0
   31.2601   -1.7414   23.0585 H   0  0  0  0  0  0
   30.9433   -0.0625   24.8302 H   0  0  0  0  0  0
   28.7767    1.5150   28.1898 H   0  0  0  0  0  0
   26.4421    1.2793   27.4630 H   0  0  0  0  0  0
   27.0694   -2.9052   26.7342 H   0  0  0  0  0  0
   29.4001   -2.6929   27.5255 H   0  0  0  0  0  0
   25.1116   -1.8125   26.2684 H   0  0  0  0  0  0
  1  2  1  0  0  0
  1 21  1  0  0  0
  1 22  1  0  0  0
  1 23  1  0  0  0
  2  3  1  0  0  0
  2 24  1  0  0  0
  2 25  1  0  0  0
  3  4  1  0  0  0
  3 26  1  0  0  0
  3 27  1  0  0  0
  4  5  1  0  0  0
  4 11  1  0  0  0
  5 10  1  0  0  0
  5  6  2  0  0  0
  6  7  1  0  0  0
  6 28  1  0  0  0
  7  8  2  0  0  0
  7 29  1  0  0  0
  8  9  1  0  0  0
  8 30  1  0  0  0
  9 10  2  0  0  0
  9 31  1  0  0  0
 10 32  1  0  0  0
 11 12  2  0  0  0
 11 13  2  0  0  0
 11 14  1  0  0  0
 14 19  1  0  0  0
 14 15  2  0  0  0
 15 16  1  0  0  0
 15 33  1  0  0  0
 16 17  2  0  0  0
 16 34  1  0  0  0
 17 18  1  0  0  0
 17 20  1  0  0  0
 18 19  2  0  0  0
 18 35  1  0  0  0
 19 36  1  0  0  0
 20 37  1  0  0  0
M  END
> <s_m_entry_id>
17575

> <s_m_entry_name>
ligand_docking-pose.502

> <s_m_Source_Path>
/home/csk/Desktop/cluster/DUD-E-result/esr1

> <s_m_Source_File>
ligand_docking-pose.sdf

> <i_m_Source_File_Index>
502

> <i_lp_mmshare_version>
53161

> <i_f3d_flags>
0

> <r_lp_tautomer_probability>
0.999999999997365

> <s_lp_Force_Field>
OPLS_2005

> <r_lp_Energy>
11.167825

> <b_lp_Chiralities_Consistent>
1

> <s_lp_Variant>
339399-1

> <s_i_glide_gridfile>
glide-grid_1sj0

> <i_i_glide_lignum>
1542

> <i_i_glide_rotatable_bonds>
6

> <r_i_docking_score>
-7.82756078566992

> <r_i_glide_ligand_efficiency>
-0.391378039283496

> <r_i_glide_ligand_efficiency_sa>
-1.06236344351864

> <r_i_glide_ligand_efficiency_ln>
-1.95898029441991

> <r_i_glide_gscore>
-7.82756078566992

> <r_i_glide_lipo>
-3.8146890618962

> <r_i_glide_hbond>
-0.16

> <r_i_glide_metal>
0

> <r_i_glide_rewards>
-1.98386983704916

> <r_i_glide_evdw>
-38.232349395752

> <r_i_glide_ecoul>
-3.72650122642517

> <r_i_glide_erotb>
0.601590767026828

> <r_i_glide_esite>
0

> <r_i_glide_emodel>
-59.1037067702181

> <r_i_glide_energy>
-41.9588506221771

> <r_i_glide_einternal>
5.13244819641113

> <i_i_glide_confnum>
19

> <i_i_glide_posenum>
325

> <r_i_glide_eff_state_penalty>
0

> <s_user_duplicate_titles>
339399

> <s_m_subgroup_title>
dock_pv

> <s_m_subgroupid>
dock_pv1

> <b_m_subgroup_collapsed>
0

$$$$
341373
                    3D
 Schrodinger Suite 2021-1.
 31 33  0  0  1  0            999 V2000
   29.4224    1.6976   27.3624 C   0  0  0  0  0  0
   30.3393    0.9471   28.3147 C   0  0  0  0  0  0
   30.3665    1.4541   29.6133 C   0  0  0  0  0  0
   31.2342    0.9490   30.5700 C   0  0  0  0  0  0
   32.0773   -0.0906   30.2378 C   0  0  0  0  0  0
   32.0553   -0.6381   28.9512 C   0  0  0  0  0  0
   31.1724   -0.1486   27.9604 C   0  0  0  0  0  0
   31.2498   -0.8231   26.6058 C   0  0  0  0  0  0
   30.4169   -0.5417   25.5180 C   0  0  0  0  0  0
   30.6545   -1.0894   24.2707 C   0  0  0  0  0  0
   31.6667   -2.0129   24.0698 C   0  0  0  0  0  0
   32.4504   -2.4168   25.1524 C   0  0  0  0  0  0
   32.2381   -1.8178   26.4091 C   0  0  0  0  0  0
   33.0389   -2.2833   27.4323 O   0  0  0  0  0  0
   33.0170   -1.7289   28.6583 C   0  0  0  0  0  0
   33.8271   -2.1700   29.4632 O   0  0  0  0  0  0
   33.5133   -3.4935   24.9651 C   0  0  0  0  0  0
   31.8420   -2.5244   22.8091 O   0  0  0  0  0  0
   31.2617    1.4572   31.8377 O   0  0  0  0  0  0
   29.9427    1.9530   26.4436 H   0  0  0  0  0  0
   29.1217    2.6563   27.7762 H   0  0  0  0  0  0
   28.5211    1.1264   27.1428 H   0  0  0  0  0  0
   29.6938    2.2561   29.8642 H   0  0  0  0  0  0
   32.7544   -0.4652   30.9944 H   0  0  0  0  0  0
   29.5691    0.1097   25.5635 H   0  0  0  0  0  0
   30.0092   -0.8106   23.4638 H   0  0  0  0  0  0
   33.3095   -4.1450   24.1172 H   0  0  0  0  0  0
   34.4775   -3.0223   24.8174 H   0  0  0  0  0  0
   33.5760   -4.1442   25.8357 H   0  0  0  0  0  0
   32.5268   -3.1938   22.7546 H   0  0  0  0  0  0
   30.6481    2.1851   31.9555 H   0  0  0  0  0  0
  1  2  1  0  0  0
  1 20  1  0  0  0
  1 21  1  0  0  0
  1 22  1  0  0  0
  2  7  1  0  0  0
  2  3  2  0  0  0
  3  4  1  0  0  0
  3 23  1  0  0  0
  4  5  2  0  0  0
  4 19  1  0  0  0
  5  6  1  0  0  0
  5 24  1  0  0  0
  6 15  1  0  0  0
  6  7  2  0  0  0
  7  8  1  0  0  0
  8 13  2  0  0  0
  8  9  1  0  0  0
  9 10  2  0  0  0
  9 25  1  0  0  0
 10 11  1  0  0  0
 10 26  1  0  0  0
 11 12  2  0  0  0
 11 18  1  0  0  0
 12 13  1  0  0  0
 12 17  1  0  0  0
 13 14  1  0  0  0
 14 15  1  0  0  0
 15 16  2  0  0  0
 17 27  1  0  0  0
 17 28  1  0  0  0
 17 29  1  0  0  0
 18 30  1  0  0  0
 19 31  1  0  0  0
M  END
> <s_m_entry_id>
17576

> <s_m_entry_name>
ligand_docking-pose.503

> <s_m_Source_Path>
/home/csk/Desktop/cluster/DUD-E-result/esr1

> <s_m_Source_File>
ligand_docking-pose.sdf

> <i_m_Source_File_Index>
503

> <i_lp_mmshare_version>
53161

> <i_f3d_flags>
0

> <r_lp_tautomer_probability>
1

> <s_lp_Force_Field>
OPLS_2005

> <r_lp_Energy>
24.450025

> <b_lp_Chiralities_Consistent>
1

> <s_lp_Variant>
341373-1

> <s_i_glide_gridfile>
glide-grid_1sj0

> <i_i_glide_lignum>
956

> <i_i_glide_rotatable_bonds>
2

> <r_i_docking_score>
-7.82408166551642

> <r_i_glide_ligand_efficiency>
-0.411793771869285

> <r_i_glide_ligand_efficiency_sa>
-1.09883117871095

> <r_i_glide_ligand_efficiency_ln>
-1.98357274807426

> <r_i_glide_gscore>
-7.82408166551642

> <r_i_glide_lipo>
-4.19711390055004

> <r_i_glide_hbond>
0

> <r_i_glide_metal>
0

> <r_i_glide_rewards>
-2.28319265949

> <r_i_glide_evdw>
-28.3010711669922

> <r_i_glide_ecoul>
0.475189685821533

> <r_i_glide_erotb>
0

> <r_i_glide_esite>
0

> <r_i_glide_emodel>
-40.9322165836162

> <r_i_glide_energy>
-27.8258814811707

> <r_i_glide_einternal>
0.0227497071027756

> <i_i_glide_confnum>
1

> <i_i_glide_posenum>
107

> <r_i_glide_eff_state_penalty>
0

> <s_user_duplicate_titles>
341373

> <s_m_subgroup_title>
dock_pv

> <s_m_subgroupid>
dock_pv1

> <b_m_subgroup_collapsed>
0

$$$$
318912
                    3D
 Schrodinger Suite 2021-1.
 32 34  0  0  1  0            999 V2000
   34.2922   -0.7656   28.8434 C   0  0  0  0  0  0
   33.2598   -2.1284   28.1822 S   0  0  0  0  0  0
   31.9812   -1.2444   27.3335 C   0  0  0  0  0  0
   31.5464   -1.2453   26.0423 C   0  0  0  0  0  0
   30.3839   -0.3369   25.9718 C   0  0  0  0  0  0
   29.6622   -0.1411   25.0060 O   0  0  0  0  0  0
   30.2815    0.2989   27.2789 C   0  0  0  0  0  0
   31.2027   -0.2989   28.1038 C   0  0  0  0  0  0
   31.2879    0.0614   29.4424 C   0  0  0  0  0  0
   30.5068    1.0967   29.9166 C   0  0  0  0  0  0
   29.5857    1.7301   29.0736 C   0  0  0  0  0  0
   29.4453    1.3127   27.7485 C   0  0  0  0  0  0
   30.6664    1.4544   31.2240 O   0  0  0  0  0  0
   32.0579   -2.0251   24.8461 C   0  0  0  0  0  0
   31.6255   -1.7426   23.5340 C   0  0  0  0  0  0
   31.9832   -2.5308   22.4371 C   0  0  0  0  0  0
   32.8875   -3.5534   22.6024 C   0  0  0  0  0  0
   33.4117   -3.7808   23.8568 C   0  0  0  0  0  0
   32.9884   -3.0639   24.9724 C   0  0  0  0  0  0
   33.2525   -4.3505   21.5505 O   0  0  0  0  0  0
   35.3581   -0.9412   28.7137 H   0  0  0  0  0  0
   34.0675    0.1770   28.3398 H   0  0  0  0  0  0
   34.1241   -0.6381   29.9117 H   0  0  0  0  0  0
   31.9676   -0.4341   30.1155 H   0  0  0  0  0  0
   28.9645    2.5271   29.4534 H   0  0  0  0  0  0
   28.7167    1.7883   27.1068 H   0  0  0  0  0  0
   31.3606    0.9637   31.6677 H   0  0  0  0  0  0
   30.9653   -0.9226   23.3299 H   0  0  0  0  0  0
   31.5854   -2.3221   21.4564 H   0  0  0  0  0  0
   34.0590   -4.6235   23.9471 H   0  0  0  0  0  0
   33.3775   -3.3739   25.9235 H   0  0  0  0  0  0
   32.5980   -4.4165   20.8507 H   0  0  0  0  0  0
  1  2  1  0  0  0
  1 21  1  0  0  0
  1 22  1  0  0  0
  1 23  1  0  0  0
  2  3  1  0  0  0
  3  8  1  0  0  0
  3  4  2  0  0  0
  4  5  1  0  0  0
  4 14  1  0  0  0
  5  6  2  0  0  0
  5  7  1  0  0  0
  7 12  2  0  0  0
  7  8  1  0  0  0
  8  9  2  0  0  0
  9 10  1  0  0  0
  9 24  1  0  0  0
 10 11  2  0  0  0
 10 13  1  0  0  0
 11 12  1  0  0  0
 11 25  1  0  0  0
 12 26  1  0  0  0
 13 27  1  0  0  0
 14 19  1  0  0  0
 14 15  2  0  0  0
 15 16  1  0  0  0
 15 28  1  0  0  0
 16 17  2  0  0  0
 16 29  1  0  0  0
 17 18  1  0  0  0
 17 20  1  0  0  0
 18 19  2  0  0  0
 18 30  1  0  0  0
 19 31  1  0  0  0
 20 32  1  0  0  0
M  END
> <s_m_entry_id>
17577

> <s_m_entry_name>
ligand_docking-pose.504

> <s_m_Source_Path>
/home/csk/Desktop/cluster/DUD-E-result/esr1

> <s_m_Source_File>
ligand_docking-pose.sdf

> <i_m_Source_File_Index>
504

> <i_lp_mmshare_version>
53161

> <i_f3d_flags>
0

> <r_lp_tautomer_probability>
1

> <s_lp_Force_Field>
OPLS_2005

> <r_lp_Energy>
27.607284

> <b_lp_Chiralities_Consistent>
1

> <s_lp_Variant>
318912-1

> <s_i_glide_gridfile>
glide-grid_1sj0

> <i_i_glide_lignum>
1806

> <i_i_glide_rotatable_bonds>
4

> <r_i_docking_score>
-7.82252543376809

> <r_i_glide_ligand_efficiency>
-0.391126271688404

> <r_i_glide_ligand_efficiency_sa>
-1.06168004112392

> <r_i_glide_ligand_efficiency_ln>
-1.9577201119159

> <r_i_glide_gscore>
-7.82252543376809

> <r_i_glide_lipo>
-3.99841377763964

> <r_i_glide_hbond>
0

> <r_i_glide_metal>
0

> <r_i_glide_rewards>
-2.55870185479898

> <r_i_glide_evdw>
-25.2069568634033

> <r_i_glide_ecoul>
-1.52841889858246

> <r_i_glide_erotb>
0.224200876628057

> <r_i_glide_esite>
0

> <r_i_glide_emodel>
-37.2289934290543

> <r_i_glide_energy>
-26.7353757619858

> <r_i_glide_einternal>
4.89510107040405

> <i_i_glide_confnum>
3

> <i_i_glide_posenum>
36

> <r_i_glide_eff_state_penalty>
0

> <s_user_duplicate_titles>
318912

> <s_m_subgroup_title>
dock_pv

> <s_m_subgroupid>
dock_pv1

> <b_m_subgroup_collapsed>
0

$$$$
162455
                    3D
 Schrodinger Suite 2021-1.
 44 47  0  0  1  0            999 V2000
   32.3792    1.3876   28.1902 C   0  0  0  0  0  0
   31.6718    0.2429   28.9840 C   0  0  2  0  0  0
   32.6246   -0.9449   29.2125 C   0  0  0  0  0  0
   32.9962   -1.6018   27.8713 C   0  0  0  0  0  0
   31.7740   -1.9998   26.9791 C   0  0  2  0  0  0
   32.2068   -2.4032   25.5611 C   0  0  0  0  0  0
   33.2216   -3.3425   25.4107 C   0  0  0  0  0  0
   33.6599   -3.7412   24.1608 C   0  0  0  0  0  0
   33.1013   -3.2041   23.0143 C   0  0  0  0  0  0
   32.1016   -2.2476   23.1361 C   0  0  0  0  0  0
   31.6418   -1.8368   24.3930 C   0  0  0  0  0  0
   30.5135   -0.8239   24.4927 C   0  0  0  0  0  0
   30.6245   -0.0430   25.7961 C   0  0  0  0  0  0
   30.5511   -1.0187   26.9829 C   0  0  2  0  0  0
   30.3795   -0.3643   28.3714 C   0  0  2  0  0  0
   29.2868    0.6897   28.5574 C   0  0  0  0  0  0
   29.7308    1.4573   29.8070 C   0  0  0  0  0  0
   31.0718    0.8372   30.2706 C   0  0  2  0  0  0
   31.8868    1.6398   31.0926 O   0  0  0  0  0  0
   33.5231   -3.6361   21.7870 O   0  0  0  0  0  0
   31.3888   -2.9231   27.4154 H   0  0  0  0  0  0
   29.6585   -1.6297   26.8254 H   0  0  0  0  0  0
   30.0726   -1.1981   29.0117 H   0  0  0  0  0  0
   30.8597   -0.0037   30.9319 H   0  0  0  0  0  0
   32.9051    1.0568   27.3004 H   0  0  0  0  0  0
   31.6874    2.1737   27.8871 H   0  0  0  0  0  0
   33.1472    1.8576   28.8028 H   0  0  0  0  0  0
   33.5247   -0.6178   29.7358 H   0  0  0  0  0  0
   32.1634   -1.6874   29.8618 H   0  0  0  0  0  0
   33.5728   -2.4924   28.1252 H   0  0  0  0  0  0
   33.6601   -0.9506   27.3131 H   0  0  0  0  0  0
   33.6565   -3.8113   26.2784 H   0  0  0  0  0  0
   34.4083   -4.5013   24.1102 H   0  0  0  0  0  0
   31.6608   -1.8324   22.2466 H   0  0  0  0  0  0
   30.5070   -0.1459   23.6431 H   0  0  0  0  0  0
   29.5591   -1.3420   24.4681 H   0  0  0  0  0  0
   29.7910    0.6561   25.8176 H   0  0  0  0  0  0
   31.5150    0.5741   25.8315 H   0  0  0  0  0  0
   28.3085    0.2219   28.6642 H   0  0  0  0  0  0
   29.2083    1.3750   27.7152 H   0  0  0  0  0  0
   28.9914    1.4580   30.6030 H   0  0  0  0  0  0
   29.8678    2.4790   29.4638 H   0  0  0  0  0  0
   32.6048    1.0981   31.4282 H   0  0  0  0  0  0
   32.8904   -3.4780   21.0822 H   0  0  0  0  0  0
  1  2  1  0  0  0
  1 25  1  0  0  0
  1 26  1  0  0  0
  1 27  1  0  0  0
  2 15  1  0  0  0
  2 18  1  0  0  0
  2  3  1  0  0  0
  3  4  1  0  0  0
  3 28  1  0  0  0
  3 29  1  0  0  0
  4  5  1  0  0  0
  4 30  1  0  0  0
  4 31  1  0  0  0
  5 21  1  0  0  0
  5 14  1  0  0  0
  5  6  1  0  0  0
  6 11  2  0  0  0
  6  7  1  0  0  0
  7  8  2  0  0  0
  7 32  1  0  0  0
  8  9  1  0  0  0
  8 33  1  0  0  0
  9 10  2  0  0  0
  9 20  1  0  0  0
 10 11  1  0  0  0
 10 34  1  0  0  0
 11 12  1  0  0  0
 12 13  1  0  0  0
 12 35  1  0  0  0
 12 36  1  0  0  0
 13 14  1  0  0  0
 13 37  1  0  0  0
 13 38  1  0  0  0
 14 22  1  0  0  0
 14 15  1  0  0  0
 15 23  1  0  0  0
 15 16  1  0  0  0
 16 17  1  0  0  0
 16 39  1  0  0  0
 16 40  1  0  0  0
 17 18  1  0  0  0
 17 41  1  0  0  0
 17 42  1  0  0  0
 18 24  1  0  0  0
 18 19  1  0  0  0
 19 43  1  0  0  0
 20 44  1  0  0  0
M  END
> <s_m_entry_id>
17578

> <s_m_entry_name>
ligand_docking-pose.505

> <s_m_Source_Path>
/home/csk/Desktop/cluster/DUD-E-result/esr1

> <s_m_Source_File>
ligand_docking-pose.sdf

> <i_m_Source_File_Index>
505

> <i_lp_mmshare_version>
53161

> <i_f3d_flags>
0

> <r_lp_tautomer_probability>
0.999999999997365

> <s_lp_Force_Field>
OPLS_2005

> <r_lp_Energy>
52.411079

> <b_lp_Chiralities_Consistent>
1

> <s_lp_Variant>
162455-1

> <s_i_glide_gridfile>
glide-grid_1sj0

> <i_i_glide_lignum>
808

> <i_i_glide_rotatable_bonds>
2

> <r_i_docking_score>
-7.81425447765704

> <r_i_glide_ligand_efficiency>
-0.390712723882852

> <r_i_glide_ligand_efficiency_sa>
-1.06055749967635

> <r_i_glide_ligand_efficiency_ln>
-1.95565016439569

> <r_i_glide_gscore>
-7.81425447765704

> <r_i_glide_lipo>
-4.64600968586833

> <r_i_glide_hbond>
0

> <r_i_glide_metal>
0

> <r_i_glide_rewards>
-2.17526575551714

> <r_i_glide_evdw>
-21.1125545501709

> <r_i_glide_ecoul>
0.417657941579819

> <r_i_glide_erotb>
0

> <r_i_glide_esite>
0

> <r_i_glide_emodel>
-25.7794212099676

> <r_i_glide_energy>
-20.6948966085911

> <r_i_glide_einternal>
1.35139977931976

> <i_i_glide_confnum>
1

> <i_i_glide_posenum>
109

> <r_i_glide_eff_state_penalty>
0

> <s_user_duplicate_titles>
162455

> <s_m_subgroup_title>
dock_pv

> <s_m_subgroupid>
dock_pv1

> <b_m_subgroup_collapsed>
0

$$$$
83098
                    3D
 Schrodinger Suite 2021-1.
 26 28  0  0  1  0            999 V2000
   33.6237    1.4270   28.6097 C   0  0  0  0  0  0
   32.2746    1.7249   28.4701 C   0  0  0  0  0  0
   31.3455    0.7411   28.1027 C   0  0  0  0  0  0
   31.8098   -0.5743   27.8698 C   0  0  0  0  0  0
   33.1666   -0.8719   28.0799 C   0  0  0  0  0  0
   34.0599    0.1261   28.4526 C   0  0  0  0  0  0
   35.3760   -0.1434   28.6716 O   0  0  0  0  0  0
   30.8887   -1.6532   27.3954 C   0  0  0  0  0  0
   31.3174   -2.7602   27.0639 O   0  0  0  0  0  0
   29.4240   -1.3304   27.3970 C   0  0  0  0  0  0
   28.5017   -2.3619   27.1758 C   0  0  0  0  0  0
   27.1431   -2.0948   27.0761 C   0  0  0  0  0  0
   26.6760   -0.7926   27.1997 C   0  0  0  0  0  0
   27.5738    0.2409   27.4646 C   0  0  0  0  0  0
   28.9508   -0.0116   27.6000 C   0  0  0  0  0  0
   29.8922    1.1040   27.9711 C   0  0  0  0  0  0
   29.4934    2.2524   28.1862 O   0  0  0  0  0  0
   25.3364   -0.5420   27.0639 O   0  0  0  0  0  0
   34.3502    2.1874   28.8513 H   0  0  0  0  0  0
   31.9629    2.7350   28.6600 H   0  0  0  0  0  0
   33.5358   -1.8784   27.9381 H   0  0  0  0  0  0
   35.6071   -1.0748   28.6321 H   0  0  0  0  0  0
   28.8302   -3.3857   27.0641 H   0  0  0  0  0  0
   26.4598   -2.9064   26.8791 H   0  0  0  0  0  0
   27.1892    1.2435   27.5874 H   0  0  0  0  0  0
   25.1156    0.3942   27.0334 H   0  0  0  0  0  0
  1  6  1  0  0  0
  1  2  2  0  0  0
  1 19  1  0  0  0
  2  3  1  0  0  0
  2 20  1  0  0  0
  3 16  1  0  0  0
  3  4  2  0  0  0
  4  5  1  0  0  0
  4  8  1  0  0  0
  5  6  2  0  0  0
  5 21  1  0  0  0
  6  7  1  0  0  0
  7 22  1  0  0  0
  8  9  2  0  0  0
  8 10  1  0  0  0
 10 15  2  0  0  0
 10 11  1  0  0  0
 11 12  2  0  0  0
 11 23  1  0  0  0
 12 13  1  0  0  0
 12 24  1  0  0  0
 13 14  2  0  0  0
 13 18  1  0  0  0
 14 15  1  0  0  0
 14 25  1  0  0  0
 15 16  1  0  0  0
 16 17  2  0  0  0
 18 26  1  0  0  0
M  END
> <s_m_entry_id>
17579

> <s_m_entry_name>
ligand_docking-pose.506

> <s_m_Source_Path>
/home/csk/Desktop/cluster/DUD-E-result/esr1

> <s_m_Source_File>
ligand_docking-pose.sdf

> <i_m_Source_File_Index>
506

> <i_lp_mmshare_version>
53161

> <i_f3d_flags>
0

> <r_lp_tautomer_probability>
1

> <s_lp_Force_Field>
OPLS_2005

> <r_lp_Energy>
16.959732

> <b_lp_Chiralities_Consistent>
1

> <s_lp_Variant>
83098-1

> <s_i_glide_gridfile>
glide-grid_1sj0

> <i_i_glide_lignum>
26

> <i_i_glide_rotatable_bonds>
2

> <r_i_docking_score>
-7.81063991656662

> <r_i_glide_ligand_efficiency>
-0.433924439809257

> <r_i_glide_ligand_efficiency_sa>
-1.13720374027138

> <r_i_glide_ligand_efficiency_ln>
-2.00768471566081

> <r_i_glide_gscore>
-7.81063991656662

> <r_i_glide_lipo>
-2.48637426976928

> <r_i_glide_hbond>
-0.316742129369325

> <r_i_glide_metal>
0

> <r_i_glide_rewards>
-3.22411435705242

> <r_i_glide_evdw>
-30.0564880371094

> <r_i_glide_ecoul>
-1.87056505680084

> <r_i_glide_erotb>
0

> <r_i_glide_esite>
0

> <r_i_glide_emodel>
-45.9899372674593

> <r_i_glide_energy>
-31.9270530939102

> <r_i_glide_einternal>
0.402250707149506

> <i_i_glide_confnum>
1

> <i_i_glide_posenum>
260

> <r_i_glide_eff_state_penalty>
0

> <s_user_duplicate_titles>
83098

> <s_m_subgroup_title>
dock_pv

> <s_m_subgroupid>
dock_pv1

> <b_m_subgroup_collapsed>
0

$$$$
301019
                    3D
 Schrodinger Suite 2021-1.
 44 46  0  0  1  0            999 V2000
   30.9889   -2.9420   21.4641 C   0  0  0  0  0  0
   31.7812   -2.7311   22.7597 C   0  0  0  0  0  0
   31.4367   -1.7414   23.7023 C   0  0  0  0  0  0
   32.1336   -1.6195   24.9185 C   0  0  0  0  0  0
   33.1501   -2.5403   25.1933 C   0  0  0  0  0  0
   33.5316   -3.4809   24.2458 C   0  0  0  0  0  0
   32.8586   -3.5770   23.0314 C   0  0  0  0  0  0
   33.2600   -4.5103   22.1115 O   0  0  0  0  0  0
   31.8995   -0.4273   25.8705 C   0  0  1  0  0  0
   30.5199   -0.3457   26.5837 C   0  0  2  0  0  0
   30.4455    1.0078   27.3440 C   0  0  0  0  0  0
   31.5773    1.0425   28.4108 C   0  0  1  0  0  0
   31.2258   -0.0171   29.5022 C   0  0  0  0  0  0
   30.6730   -1.3101   28.9078 C   0  0  0  0  0  0
   30.3397   -1.4792   27.6093 C   0  0  0  0  0  0
   29.7762   -2.7914   27.1153 C   0  0  0  0  0  0
   32.9803    0.7984   27.7340 C   0  0  0  0  0  0
   32.8915   -0.3678   26.9014 O   0  0  0  0  0  0
   34.0912    0.4443   28.7487 C   0  0  0  0  0  0
   33.4087    2.0274   26.9005 C   0  0  0  0  0  0
   32.0507    0.4300   25.2177 H   0  0  0  0  0  0
   29.7146   -0.3804   25.8487 H   0  0  0  0  0  0
   31.6038    2.0212   28.8929 H   0  0  0  0  0  0
   29.9777   -2.5420   21.4641 H   0  0  0  0  0  0
   30.8465   -4.0088   21.2859 H   0  0  0  0  0  0
   31.5346   -2.5421   20.6091 H   0  0  0  0  0  0
   30.6338   -1.0535   23.4817 H   0  0  0  0  0  0
   33.6963   -2.4911   26.1228 H   0  0  0  0  0  0
   34.3504   -4.1420   24.4709 H   0  0  0  0  0  0
   32.6150   -4.6781   21.4156 H   0  0  0  0  0  0
   29.4704    1.1124   27.8243 H   0  0  0  0  0  0
   30.5066    1.8564   26.6641 H   0  0  0  0  0  0
   32.0535   -0.2281   30.1757 H   0  0  0  0  0  0
   30.4601    0.4052   30.1509 H   0  0  0  0  0  0
   30.5221   -2.1404   29.5804 H   0  0  0  0  0  0
   30.4598   -3.2359   26.3912 H   0  0  0  0  0  0
   29.6444   -3.5088   27.9248 H   0  0  0  0  0  0
   28.7981   -2.6271   26.6643 H   0  0  0  0  0  0
   34.1244    1.1560   29.5737 H   0  0  0  0  0  0
   33.9669   -0.5551   29.1668 H   0  0  0  0  0  0
   35.0725    0.4476   28.2721 H   0  0  0  0  0  0
   33.6948    2.8598   27.5440 H   0  0  0  0  0  0
   34.2683    1.7941   26.2708 H   0  0  0  0  0  0
   32.6219    2.3877   26.2515 H   0  0  0  0  0  0
  1  2  1  0  0  0
  1 24  1  0  0  0
  1 25  1  0  0  0
  1 26  1  0  0  0
  2  7  1  0  0  0
  2  3  2  0  0  0
  3  4  1  0  0  0
  3 27  1  0  0  0
  4  5  2  0  0  0
  4  9  1  0  0  0
  5  6  1  0  0  0
  5 28  1  0  0  0
  6  7  2  0  0  0
  6 29  1  0  0  0
  7  8  1  0  0  0
  8 30  1  0  0  0
  9 21  1  0  0  0
  9 18  1  0  0  0
  9 10  1  0  0  0
 10 22  1  0  0  0
 10 15  1  0  0  0
 10 11  1  0  0  0
 11 12  1  0  0  0
 11 31  1  0  0  0
 11 32  1  0  0  0
 12 23  1  0  0  0
 12 13  1  0  0  0
 12 17  1  0  0  0
 13 14  1  0  0  0
 13 33  1  0  0  0
 13 34  1  0  0  0
 14 15  2  0  0  0
 14 35  1  0  0  0
 15 16  1  0  0  0
 16 36  1  0  0  0
 16 37  1  0  0  0
 16 38  1  0  0  0
 17 18  1  0  0  0
 17 19  1  0  0  0
 17 20  1  0  0  0
 19 39  1  0  0  0
 19 40  1  0  0  0
 19 41  1  0  0  0
 20 42  1  0  0  0
 20 43  1  0  0  0
 20 44  1  0  0  0
M  END
> <s_m_entry_id>
17580

> <s_m_entry_name>
ligand_docking-pose.507

> <s_m_Source_Path>
/home/csk/Desktop/cluster/DUD-E-result/esr1

> <s_m_Source_File>
ligand_docking-pose.sdf

> <i_m_Source_File_Index>
507

> <i_lp_mmshare_version>
53161

> <i_f3d_flags>
0

> <r_lp_tautomer_probability>
0.999999999997365

> <s_lp_Force_Field>
OPLS_2005

> <r_lp_Energy>
27.462171

> <b_lp_Chiralities_Consistent>
1

> <s_lp_Variant>
301019-1

> <s_i_glide_gridfile>
glide-grid_1sj0

> <i_i_glide_lignum>
1022

> <i_i_glide_rotatable_bonds>
2

> <r_i_docking_score>
-7.81010855992096

> <r_i_glide_ligand_efficiency>
-0.390505427996048

> <r_i_glide_ligand_efficiency_sa>
-1.05999481206992

> <r_i_glide_ligand_efficiency_ln>
-1.95461257792787

> <r_i_glide_gscore>
-7.81010855992096

> <r_i_glide_lipo>
-4.19417222619541

> <r_i_glide_hbond>
0

> <r_i_glide_metal>
0

> <r_i_glide_rewards>
-2.45194118181818

> <r_i_glide_evdw>
-24.8197193145752

> <r_i_glide_ecoul>
-1.09703183174133

> <r_i_glide_erotb>
0.241545588582593

> <r_i_glide_esite>
0

> <r_i_glide_emodel>
-28.4915072222143

> <r_i_glide_energy>
-25.9167511463165

> <r_i_glide_einternal>
0.265811413526535

> <i_i_glide_confnum>
2

> <i_i_glide_posenum>
89

> <r_i_glide_eff_state_penalty>
0

> <s_user_duplicate_titles>
301019

> <s_m_subgroup_title>
dock_pv

> <s_m_subgroupid>
dock_pv1

> <b_m_subgroup_collapsed>
0

$$$$
338944
                    3D
 Schrodinger Suite 2021-1.
 34 35  0  0  1  0            999 V2000
   33.6547    1.6939   26.6579 C   0  0  0  0  0  0
   32.2931    1.4746   27.3335 C   0  0  0  0  0  0
   32.0364    0.0930   27.7611 N   0  0  0  0  0  0
   32.1278   -0.9260   26.7893 C   0  0  0  0  0  0
   31.5614   -0.7507   25.5167 C   0  0  0  0  0  0
   31.6593   -1.7443   24.5464 C   0  0  0  0  0  0
   32.3078   -2.9412   24.8422 C   0  0  0  0  0  0
   32.8597   -3.1383   26.1075 C   0  0  0  0  0  0
   32.7886   -2.1342   27.0753 C   0  0  0  0  0  0
   33.6156   -2.4468   28.7667 Br  0  0  0  0  0  0
   30.7769   -0.0847   29.0099 S   0  0  0  0  0  0
   30.6825    1.1792   29.7512 O   0  0  0  0  0  0
   31.0226   -1.3420   29.7212 O   0  0  0  0  0  0
   29.2268   -0.3177   28.1390 C   0  0  0  0  0  0
   28.8167   -1.6153   27.8097 C   0  0  0  0  0  0
   27.5501   -1.8274   27.2702 C   0  0  0  0  0  0
   26.6980   -0.7427   27.0730 C   0  0  0  0  0  0
   27.1278    0.5536   27.3591 C   0  0  0  0  0  0
   28.4046    0.7732   27.8640 C   0  0  0  0  0  0
   25.4236   -0.9421   26.6093 O   0  0  0  0  0  0
   33.8184    2.7499   26.4461 H   0  0  0  0  0  0
   34.4765    1.3490   27.2858 H   0  0  0  0  0  0
   33.7061    1.1675   25.7097 H   0  0  0  0  0  0
   31.4958    1.7960   26.6660 H   0  0  0  0  0  0
   32.2358    2.1420   28.1936 H   0  0  0  0  0  0
   31.0338    0.1581   25.2736 H   0  0  0  0  0  0
   31.2247   -1.5951   23.5690 H   0  0  0  0  0  0
   32.3757   -3.7196   24.0944 H   0  0  0  0  0  0
   33.3485   -4.0728   26.3312 H   0  0  0  0  0  0
   29.4631   -2.4607   28.0027 H   0  0  0  0  0  0
   27.2221   -2.8310   27.0386 H   0  0  0  0  0  0
   26.4613    1.3865   27.1964 H   0  0  0  0  0  0
   28.7184    1.7769   28.1099 H   0  0  0  0  0  0
   25.2602   -1.8388   26.2743 H   0  0  0  0  0  0
  1  2  1  0  0  0
  1 21  1  0  0  0
  1 22  1  0  0  0
  1 23  1  0  0  0
  2  3  1  0  0  0
  2 24  1  0  0  0
  2 25  1  0  0  0
  3  4  1  0  0  0
  3 11  1  0  0  0
  4  9  1  0  0  0
  4  5  2  0  0  0
  5  6  1  0  0  0
  5 26  1  0  0  0
  6  7  2  0  0  0
  6 27  1  0  0  0
  7  8  1  0  0  0
  7 28  1  0  0  0
  8  9  2  0  0  0
  8 29  1  0  0  0
  9 10  1  0  0  0
 11 12  2  0  0  0
 11 13  2  0  0  0
 11 14  1  0  0  0
 14 19  1  0  0  0
 14 15  2  0  0  0
 15 16  1  0  0  0
 15 30  1  0  0  0
 16 17  2  0  0  0
 16 31  1  0  0  0
 17 18  1  0  0  0
 17 20  1  0  0  0
 18 19  2  0  0  0
 18 32  1  0  0  0
 19 33  1  0  0  0
 20 34  1  0  0  0
M  END
> <s_m_entry_id>
17582

> <s_m_entry_name>
ligand_docking-pose.509

> <s_m_Source_Path>
/home/csk/Desktop/cluster/DUD-E-result/esr1

> <s_m_Source_File>
ligand_docking-pose.sdf

> <i_m_Source_File_Index>
509

> <i_lp_mmshare_version>
53161

> <i_f3d_flags>
0

> <r_lp_tautomer_probability>
0.999999999997365

> <s_lp_Force_Field>
OPLS_2005

> <r_lp_Energy>
8.850386

> <b_lp_Chiralities_Consistent>
1

> <s_lp_Variant>
338944-1

> <s_i_glide_gridfile>
glide-grid_1sj0

> <i_i_glide_lignum>
1620

> <i_i_glide_rotatable_bonds>
5

> <r_i_docking_score>
-7.80163974486801

> <r_i_glide_ligand_efficiency>
-0.390081987243401

> <r_i_glide_ligand_efficiency_sa>
-1.0588454170325

> <r_i_glide_ligand_efficiency_ln>
-1.95249311284033

> <r_i_glide_gscore>
-7.80163974486801

> <r_i_glide_lipo>
-3.88420855420114

> <r_i_glide_hbond>
-0.16

> <r_i_glide_metal>
0

> <r_i_glide_rewards>
-1.76989717376575

> <r_i_glide_evdw>
-36.1403160095215

> <r_i_glide_ecoul>
-3.31386590003967

> <r_i_glide_erotb>
0.316561668580909

> <r_i_glide_esite>
0

> <r_i_glide_emodel>
-58.7560656052271

> <r_i_glide_energy>
-39.4541819095612

> <r_i_glide_einternal>
5.11489343643188

> <i_i_glide_confnum>
2

> <i_i_glide_posenum>
178

> <r_i_glide_eff_state_penalty>
0

> <s_user_duplicate_titles>
338944

> <s_m_subgroup_title>
dock_pv

> <s_m_subgroupid>
dock_pv1

> <b_m_subgroup_collapsed>
0

$$$$
313247
                    3D
 Schrodinger Suite 2021-1.
 26 28  0  0  1  0            999 V2000
   29.1655   -0.9224   26.3936 C   0  0  0  0  0  0
   28.1030   -0.0819   26.7089 C   0  0  0  0  0  0
   28.2982    0.9823   27.5861 C   0  0  0  0  0  0
   29.5446    1.1800   28.1852 C   0  0  0  0  0  0
   30.6048    0.3301   27.8793 C   0  0  0  0  0  0
   30.4206   -0.7185   26.9733 C   0  0  0  0  0  0
   31.5478   -1.5895   26.5747 C   0  0  0  0  0  0
   31.8951   -1.9834   25.2476 C   0  0  0  0  0  0
   31.4492   -1.7419   23.9379 C   0  0  0  0  0  0
   32.0749   -2.4225   22.8877 C   0  0  0  0  0  0
   33.1533   -3.2777   23.1175 C   0  0  0  0  0  0
   33.6427   -3.4798   24.4054 C   0  0  0  0  0  0
   32.9791   -2.8398   25.4470 C   0  0  0  0  0  0
   33.2599   -2.9392   26.7739 O   0  0  0  0  0  0
   32.3619   -2.1196   27.4641 N   0  0  0  0  0  0
   33.7337   -3.9395   22.0715 O   0  0  0  0  0  0
   29.7334    2.1895   29.0630 F   0  0  0  0  0  0
   27.2600    1.8245   27.8627 O   0  0  0  0  0  0
   29.0063   -1.7408   25.7064 H   0  0  0  0  0  0
   27.1374   -0.2664   26.2643 H   0  0  0  0  0  0
   31.5705    0.4993   28.3342 H   0  0  0  0  0  0
   30.6177   -1.0793   23.7469 H   0  0  0  0  0  0
   31.7145   -2.2784   21.8800 H   0  0  0  0  0  0
   34.4599   -4.1420   24.6095 H   0  0  0  0  0  0
   33.2015   -3.9296   21.2714 H   0  0  0  0  0  0
   26.4347    1.5715   27.4385 H   0  0  0  0  0  0
  1  6  1  0  0  0
  1  2  2  0  0  0
  1 19  1  0  0  0
  2  3  1  0  0  0
  2 20  1  0  0  0
  3  4  2  0  0  0
  3 18  1  0  0  0
  4  5  1  0  0  0
  4 17  1  0  0  0
  5  6  2  0  0  0
  5 21  1  0  0  0
  6  7  1  0  0  0
  7 15  2  0  0  0
  7  8  1  0  0  0
  8 13  2  0  0  0
  8  9  1  0  0  0
  9 10  2  0  0  0
  9 22  1  0  0  0
 10 11  1  0  0  0
 10 23  1  0  0  0
 11 12  2  0  0  0
 11 16  1  0  0  0
 12 13  1  0  0  0
 12 24  1  0  0  0
 13 14  1  0  0  0
 14 15  1  0  0  0
 16 25  1  0  0  0
 18 26  1  0  0  0
M  END
> <s_m_entry_id>
17583

> <s_m_entry_name>
ligand_docking-pose.510

> <s_m_Source_Path>
/home/csk/Desktop/cluster/DUD-E-result/esr1

> <s_m_Source_File>
ligand_docking-pose.sdf

> <i_m_Source_File_Index>
510

> <i_lp_mmshare_version>
53161

> <i_f3d_flags>
0

> <r_lp_tautomer_probability>
0.999999999997365

> <s_lp_Force_Field>
OPLS_2005

> <r_lp_Energy>
21.296191

> <b_lp_Chiralities_Consistent>
1

> <s_lp_Variant>
313247-1

> <s_i_glide_gridfile>
glide-grid_1sj0

> <i_i_glide_lignum>
193

> <i_i_glide_rotatable_bonds>
3

> <r_i_docking_score>
-7.80151345541409

> <r_i_glide_ligand_efficiency>
-0.433417414189672

> <r_i_glide_ligand_efficiency_sa>
-1.13587495724349

> <r_i_glide_ligand_efficiency_ln>
-2.00533880588137

> <r_i_glide_gscore>
-7.80151345541409

> <r_i_glide_lipo>
-3.55172849471913

> <r_i_glide_hbond>
-0.0962093762563216

> <r_i_glide_metal>
0

> <r_i_glide_rewards>
-2.63482998534536

> <r_i_glide_evdw>
-28.0327491760254

> <r_i_glide_ecoul>
-2.71031355857849

> <r_i_glide_erotb>
0.289438893494767

> <r_i_glide_esite>
0

> <r_i_glide_emodel>
-43.9077027609589

> <r_i_glide_energy>
-30.7430627346039

> <r_i_glide_einternal>
1.55386960506439

> <i_i_glide_confnum>
3

> <i_i_glide_posenum>
346

> <r_i_glide_eff_state_penalty>
0

> <s_user_duplicate_titles>
313247

> <s_m_subgroup_title>
dock_pv

> <s_m_subgroupid>
dock_pv1

> <b_m_subgroup_collapsed>
0

$$$$
364553
                    3D
 Schrodinger Suite 2021-1.
 47 49  0  0  1  0            999 V2000
   27.7772   -3.2738   27.2937 C   0  0  0  0  0  0
   27.0538   -1.9945   27.7526 C   0  0  0  0  0  0
   25.6602   -2.3206   28.3009 C   0  0  0  0  0  0
   26.9236   -0.9260   26.6419 C   0  0  0  0  0  0
   28.2476   -0.3748   26.0701 C   0  0  0  0  0  0
   29.2442    0.1242   27.1151 C   0  0  0  0  0  0
   28.9110    1.1552   27.9961 C   0  0  0  0  0  0
   29.7792    1.4972   29.0239 C   0  0  0  0  0  0
   31.0198    0.8790   29.1522 C   0  0  0  0  0  0
   31.4195   -0.1004   28.2264 C   0  0  0  0  0  0
   30.5175   -0.4484   27.2053 C   0  0  0  0  0  0
   30.8456   -1.3725   26.2360 O   0  0  0  0  0  0
   32.2184   -1.3677   25.8572 C   0  0  1  0  0  0
   32.9996   -1.7805   27.1282 C   0  0  0  0  0  0
   32.7837   -0.7209   28.2157 C   0  0  0  0  0  0
   33.6688   -0.3761   28.9980 O   0  0  0  0  0  0
   32.3998   -2.2469   24.6201 C   0  0  0  0  0  0
   31.6604   -1.9479   23.4673 C   0  0  0  0  0  0
   31.7874   -2.7328   22.3198 C   0  0  0  0  0  0
   32.6832   -3.7888   22.3108 C   0  0  0  0  0  0
   33.4156   -4.0867   23.4491 C   0  0  0  0  0  0
   33.2733   -3.3362   24.6060 C   0  0  0  0  0  0
   32.8611   -4.5411   21.1848 O   0  0  0  0  0  0
   31.8271    1.2769   30.1854 O   0  0  0  0  0  0
   27.7410    1.8544   27.8635 O   0  0  0  0  0  0
   32.5192   -0.3673   25.5304 H   0  0  0  0  0  0
   27.3036   -3.7062   26.4110 H   0  0  0  0  0  0
   27.7732   -4.0353   28.0743 H   0  0  0  0  0  0
   28.8237   -3.0770   27.0638 H   0  0  0  0  0  0
   27.6353   -1.5670   28.5706 H   0  0  0  0  0  0
   24.9802   -2.5417   27.4765 H   0  0  0  0  0  0
   25.6628   -3.1746   28.9790 H   0  0  0  0  0  0
   25.2610   -1.4662   28.8482 H   0  0  0  0  0  0
   26.3418   -1.3413   25.8165 H   0  0  0  0  0  0
   26.3160   -0.1020   27.0158 H   0  0  0  0  0  0
   28.6829   -1.1638   25.4626 H   0  0  0  0  0  0
   28.0604    0.4470   25.3863 H   0  0  0  0  0  0
   29.4816    2.2578   29.7252 H   0  0  0  0  0  0
   32.6159   -2.7378   27.4801 H   0  0  0  0  0  0
   34.0589   -1.8243   26.8946 H   0  0  0  0  0  0
   30.9693   -1.1175   23.4684 H   0  0  0  0  0  0
   31.2017   -2.5380   21.4344 H   0  0  0  0  0  0
   34.0599   -4.9417   23.4629 H   0  0  0  0  0  0
   33.8501   -3.6149   25.4721 H   0  0  0  0  0  0
   32.0591   -4.8814   20.7540 H   0  0  0  0  0  0
   32.6740    0.8187   30.1478 H   0  0  0  0  0  0
   27.1981    1.5158   27.1492 H   0  0  0  0  0  0
  1  2  1  0  0  0
  1 27  1  0  0  0
  1 28  1  0  0  0
  1 29  1  0  0  0
  2  3  1  0  0  0
  2  4  1  0  0  0
  2 30  1  0  0  0
  3 31  1  0  0  0
  3 32  1  0  0  0
  3 33  1  0  0  0
  4  5  1  0  0  0
  4 34  1  0  0  0
  4 35  1  0  0  0
  5  6  1  0  0  0
  5 36  1  0  0  0
  5 37  1  0  0  0
  6 11  1  0  0  0
  6  7  2  0  0  0
  7  8  1  0  0  0
  7 25  1  0  0  0
  8  9  2  0  0  0
  8 38  1  0  0  0
  9 10  1  0  0  0
  9 24  1  0  0  0
 10 15  1  0  0  0
 10 11  2  0  0  0
 11 12  1  0  0  0
 12 13  1  0  0  0
 13 26  1  0  0  0
 13 14  1  0  0  0
 13 17  1  0  0  0
 14 15  1  0  0  0
 14 39  1  0  0  0
 14 40  1  0  0  0
 15 16  2  0  0  0
 17 22  1  0  0  0
 17 18  2  0  0  0
 18 19  1  0  0  0
 18 41  1  0  0  0
 19 20  2  0  0  0
 19 42  1  0  0  0
 20 21  1  0  0  0
 20 23  1  0  0  0
 21 22  2  0  0  0
 21 43  1  0  0  0
 22 44  1  0  0  0
 23 45  1  0  0  0
 24 46  1  0  0  0
 25 47  1  0  0  0
M  END
> <s_m_entry_id>
17584

> <s_m_entry_name>
ligand_docking-pose.511

> <s_m_Source_Path>
/home/csk/Desktop/cluster/DUD-E-result/esr1

> <s_m_Source_File>
ligand_docking-pose.sdf

> <i_m_Source_File_Index>
511

> <i_lp_mmshare_version>
53161

> <i_f3d_flags>
0

> <r_lp_tautomer_probability>
0.999949999997365

> <s_lp_Force_Field>
OPLS_2005

> <r_lp_Energy>
26.336289

> <b_lp_Chiralities_Consistent>
1

> <s_lp_Variant>
364553-1

> <s_i_glide_gridfile>
glide-grid_1sj0

> <i_i_glide_lignum>
1422

> <i_i_glide_rotatable_bonds>
7

> <r_i_docking_score>
-7.79999012919065

> <r_i_glide_ligand_efficiency>
-0.311999605167626

> <r_i_glide_ligand_efficiency_sa>
-0.912292378846697

> <r_i_glide_ligand_efficiency_ln>
-1.84883140746014

> <r_i_glide_gscore>
-7.79999012919065

> <r_i_glide_lipo>
-3.83507224279997

> <r_i_glide_hbond>
-0.16

> <r_i_glide_metal>
0

> <r_i_glide_rewards>
-1.97133310443633

> <r_i_glide_evdw>
-35.5723304748535

> <r_i_glide_ecoul>
-3.60149335861206

> <r_i_glide_erotb>
0.485255745580123

> <r_i_glide_esite>
0

> <r_i_glide_emodel>
-48.270879018727

> <r_i_glide_energy>
-39.1738238334656

> <r_i_glide_einternal>
5.63785219192505

> <i_i_glide_confnum>
18

> <i_i_glide_posenum>
20

> <r_i_glide_eff_state_penalty>
0

> <s_user_duplicate_titles>
364553

> <s_m_subgroup_title>
dock_pv

> <s_m_subgroupid>
dock_pv1

> <b_m_subgroup_collapsed>
0

$$$$
357441
                    3D
 Schrodinger Suite 2021-1.
 46 49  0  0  1  0            999 V2000
   27.2800   -3.2865   27.0627 C   0  0  0  0  0  0
   28.3452   -2.2701   27.4797 C   0  0  0  0  0  0
   29.6086   -2.9243   28.0723 C   0  0  0  0  0  0
   30.4600   -1.9892   28.9745 C   0  0  0  0  0  0
   31.5651   -1.0847   28.3273 C   0  0  2  0  0  0
   32.1311   -0.0615   29.3491 C   0  0  0  0  0  0
   31.0685    0.9232   29.8755 C   0  0  0  0  0  0
   30.1031    1.4188   28.7862 C   0  0  0  0  0  0
   29.2600    2.2580   29.0642 O   0  0  0  0  0  0
   30.1321    0.7852   27.4528 C   0  0  0  0  0  0
   30.9097   -0.3001   27.1910 C   0  0  0  0  0  0
   31.2419   -1.0338   25.9417 C   0  0  0  0  0  0
   30.7080   -0.9813   24.6518 C   0  0  0  0  0  0
   31.2600   -1.7140   23.6153 C   0  0  0  0  0  0
   32.3691   -2.4889   23.8400 C   0  0  0  0  0  0
   32.9133   -2.5749   25.1303 C   0  0  0  0  0  0
   32.3226   -1.8819   26.2004 C   0  0  0  0  0  0
   32.7020   -1.8681   27.6479 C   0  0  0  0  0  0
   33.9948   -3.3800   25.0640 N   0  0  0  0  0  0
   33.9819   -3.7419   23.7681 N   0  0  3  0  0  0
   33.0442   -3.2567   22.9578 N   0  0  0  0  0  0
   29.2632    1.5031   26.4253 C   0  0  0  0  0  0
   27.7403    1.4901   26.6643 C   0  0  0  0  0  0
   34.6604   -4.3966   23.4114 H   0  0  0  0  0  0
   26.4600   -2.7618   26.5819 H   0  0  0  0  0  0
   26.8772   -3.8261   27.9205 H   0  0  0  0  0  0
   27.6600   -4.0211   26.3540 H   0  0  0  0  0  0
   28.6058   -1.6650   26.6131 H   0  0  0  0  0  0
   27.8943   -1.5870   28.2007 H   0  0  0  0  0  0
   29.2717   -3.7755   28.6639 H   0  0  0  0  0  0
   30.2166   -3.3420   27.2724 H   0  0  0  0  0  0
   29.7438   -1.3478   29.4640 H   0  0  0  0  0  0
   30.8731   -2.5420   29.8058 H   0  0  0  0  0  0
   32.5862   -0.5895   30.1888 H   0  0  0  0  0  0
   32.9371    0.5180   28.8934 H   0  0  0  0  0  0
   31.5338    1.7864   30.3519 H   0  0  0  0  0  0
   30.4601    0.4205   30.6235 H   0  0  0  0  0  0
   29.8152   -0.4552   24.3793 H   0  0  0  0  0  0
   30.7979   -1.7422   22.6640 H   0  0  0  0  0  0
   33.6614   -1.3659   27.7604 H   0  0  0  0  0  0
   32.8255   -2.8686   28.0635 H   0  0  0  0  0  0
   29.6600    2.5130   26.3251 H   0  0  0  0  0  0
   29.3963    1.0584   25.4640 H   0  0  0  0  0  0
   27.2600    2.0622   25.8774 H   0  0  0  0  0  0
   27.3395    0.4766   26.6640 H   0  0  0  0  0  0
   27.4229    1.9542   27.5944 H   0  0  0  0  0  0
  1  2  1  0  0  0
  1 25  1  0  0  0
  1 26  1  0  0  0
  1 27  1  0  0  0
  2  3  1  0  0  0
  2 28  1  0  0  0
  2 29  1  0  0  0
  3  4  1  0  0  0
  3 30  1  0  0  0
  3 31  1  0  0  0
  4  5  1  0  0  0
  4 32  1  0  0  0
  4 33  1  0  0  0
  5 11  1  0  0  0
  5 18  1  0  0  0
  5  6  1  0  0  0
  6  7  1  0  0  0
  6 34  1  0  0  0
  6 35  1  0  0  0
  7  8  1  0  0  0
  7 36  1  0  0  0
  7 37  1  0  0  0
  8  9  2  0  0  0
  8 10  1  0  0  0
 10 11  2  0  0  0
 10 22  1  0  0  0
 11 12  1  0  0  0
 12 17  2  0  0  0
 12 13  1  0  0  0
 13 14  2  0  0  0
 13 38  1  0  0  0
 14 15  1  0  0  0
 14 39  1  0  0  0
 15 16  1  0  0  0
 15 21  2  0  0  0
 16 17  1  0  0  0
 16 19  2  0  0  0
 17 18  1  0  0  0
 18 40  1  0  0  0
 18 41  1  0  0  0
 19 20  1  0  0  0
 20 24  1  0  0  0
 20 21  1  0  0  0
 22 23  1  0  0  0
 22 42  1  0  0  0
 22 43  1  0  0  0
 23 44  1  0  0  0
 23 45  1  0  0  0
 23 46  1  0  0  0
M  END
> <s_m_entry_id>
17585

> <s_m_entry_name>
ligand_docking-pose.512

> <s_m_Source_Path>
/home/csk/Desktop/cluster/DUD-E-result/esr1

> <s_m_Source_File>
ligand_docking-pose.sdf

> <i_m_Source_File_Index>
512

> <i_lp_mmshare_version>
53161

> <i_f3d_flags>
0

> <r_lp_tautomer_probability>
0.5

> <s_lp_Force_Field>
OPLS_2005

> <r_lp_Energy>
29.639168

> <b_lp_Chiralities_Consistent>
1

> <s_lp_Variant>
357441-1

> <s_i_glide_gridfile>
glide-grid_1sj0

> <i_i_glide_lignum>
1326

> <i_i_glide_rotatable_bonds>
4

> <r_i_docking_score>
-7.7999356149985

> <r_i_glide_ligand_efficiency>
-0.339127635434717

> <r_i_glide_ligand_efficiency_sa>
-0.96443388335994

> <r_i_glide_ligand_efficiency_ln>
-1.88609515761251

> <r_i_glide_gscore>
-7.7999356149985

> <r_i_glide_lipo>
-4.45850612457146

> <r_i_glide_hbond>
0

> <r_i_glide_metal>
0

> <r_i_glide_rewards>
-2.6495085

> <r_i_glide_evdw>
-25.3846740722656

> <r_i_glide_ecoul>
1.26991784572601

> <r_i_glide_erotb>
0.386825036327341

> <r_i_glide_esite>
0

> <r_i_glide_emodel>
-21.2213197751366

> <r_i_glide_energy>
-24.1147562265396

> <r_i_glide_einternal>
6.92694568634033

> <i_i_glide_confnum>
2

> <i_i_glide_posenum>
375

> <r_i_glide_eff_state_penalty>
0

> <s_user_duplicate_titles>
357441

> <s_m_subgroup_title>
dock_pv

> <s_m_subgroupid>
dock_pv1

> <b_m_subgroup_collapsed>
0

$$$$
89517
                    3D
 Schrodinger Suite 2021-1.
 46 49  0  0  1  0            999 V2000
   34.5476    0.8007   29.2573 C   0  0  0  0  0  0
   33.1634    0.2381   29.6797 C   0  0  2  0  0  0
   33.1736   -1.3024   29.5154 C   0  0  0  0  0  0
   33.1943   -1.7511   28.0865 C   0  0  0  0  0  0
   31.9120   -1.2750   27.4090 C   0  0  2  0  0  0
   31.8420   -1.6734   25.9546 C   0  0  0  0  0  0
   32.7588   -2.5355   25.3353 C   0  0  0  0  0  0
   32.6738   -2.8154   23.9763 C   0  0  0  0  0  0
   31.6651   -2.2175   23.2275 C   0  0  0  0  0  0
   30.7804   -1.3420   23.8554 C   0  0  0  0  0  0
   30.8187   -1.0949   25.2041 C   0  0  0  0  0  0
   29.7511   -0.2496   25.8790 C   0  0  0  0  0  0
   30.3812    0.7551   26.8596 C   0  0  0  0  0  0
   31.7157    0.2720   27.5113 C   0  0  1  0  0  0
   31.9838    0.8961   28.8990 C   0  0  1  0  0  0
   30.7649    0.8152   29.8233 C   0  0  0  0  0  0
   31.2681    0.4417   31.2044 C   0  0  0  0  0  0
   32.7860    0.5389   31.1469 C   0  0  2  0  0  0
   33.0604    1.8565   31.5036 O   0  0  0  0  0  0
   31.4982   -2.5420   21.9073 O   0  0  0  0  0  0
   33.6600   -3.7420   23.3921 C   0  0  0  0  0  0
   33.7253   -4.0534   22.2034 O   0  0  0  0  0  0
   33.2600   -0.1385   31.8576 H   0  0  0  0  0  0
   35.3601    0.2898   29.7754 H   0  0  0  0  0  0
   34.7264    0.6941   28.1876 H   0  0  0  0  0  0
   34.6515    1.8580   29.4757 H   0  0  0  0  0  0
   33.9923   -1.7612   30.0676 H   0  0  0  0  0  0
   32.2593   -1.7402   29.9022 H   0  0  0  0  0  0
   34.0600   -1.3420   27.5764 H   0  0  0  0  0  0
   33.2590   -2.8408   28.0892 H   0  0  0  0  0  0
   31.0772   -1.7751   27.9056 H   0  0  0  0  0  0
   33.5513   -2.9905   25.9107 H   0  0  0  0  0  0
   29.9413   -0.9421   23.3246 H   0  0  0  0  0  0
   29.1161    0.2652   25.1567 H   0  0  0  0  0  0
   29.0938   -0.9348   26.4183 H   0  0  0  0  0  0
   30.4512    1.7785   26.5085 H   0  0  0  0  0  0
   29.5839    0.8226   27.5941 H   0  0  0  0  0  0
   32.5095    0.6666   26.8714 H   0  0  0  0  0  0
   32.2113    1.9548   28.7529 H   0  0  0  0  0  0
   30.2371    1.7697   29.8516 H   0  0  0  0  0  0
   30.0606    0.0631   29.4640 H   0  0  0  0  0  0
   30.8290    1.0580   31.9919 H   0  0  0  0  0  0
   30.9900   -0.5883   31.4280 H   0  0  0  0  0  0
   34.0131    1.9634   31.5426 H   0  0  0  0  0  0
   32.1540   -3.1942   21.6281 H   0  0  0  0  0  0
   34.3606   -4.1421   24.1226 H   0  0  0  0  0  0
  1  2  1  0  0  0
  1 24  1  0  0  0
  1 25  1  0  0  0
  1 26  1  0  0  0
  2 15  1  0  0  0
  2 18  1  0  0  0
  2  3  1  0  0  0
  3  4  1  0  0  0
  3 27  1  0  0  0
  3 28  1  0  0  0
  4  5  1  0  0  0
  4 29  1  0  0  0
  4 30  1  0  0  0
  5 14  1  0  0  0
  5  6  1  0  0  0
  5 31  1  0  0  0
  6 11  2  0  0  0
  6  7  1  0  0  0
  7  8  2  0  0  0
  7 32  1  0  0  0
  8  9  1  0  0  0
  8 21  1  0  0  0
  9 10  2  0  0  0
  9 20  1  0  0  0
 10 11  1  0  0  0
 10 33  1  0  0  0
 11 12  1  0  0  0
 12 13  1  0  0  0
 12 34  1  0  0  0
 12 35  1  0  0  0
 13 14  1  0  0  0
 13 36  1  0  0  0
 13 37  1  0  0  0
 14 15  1  0  0  0
 14 38  1  0  0  0
 15 16  1  0  0  0
 15 39  1  0  0  0
 16 17  1  0  0  0
 16 40  1  0  0  0
 16 41  1  0  0  0
 17 18  1  0  0  0
 17 42  1  0  0  0
 17 43  1  0  0  0
 18 23  1  0  0  0
 18 19  1  0  0  0
 19 44  1  0  0  0
 20 45  1  0  0  0
 21 22  2  0  0  0
 21 46  1  0  0  0
M  END
> <s_m_entry_id>
17586

> <s_m_entry_name>
ligand_docking-pose.513

> <s_m_Source_Path>
/home/csk/Desktop/cluster/DUD-E-result/esr1

> <s_m_Source_File>
ligand_docking-pose.sdf

> <i_m_Source_File_Index>
513

> <i_lp_mmshare_version>
53161

> <i_f3d_flags>
0

> <r_lp_tautomer_probability>
1

> <s_lp_Force_Field>
OPLS_2005

> <r_lp_Energy>
51.808967

> <b_lp_Chiralities_Consistent>
1

> <s_lp_Variant>
89517-2

> <s_i_glide_gridfile>
glide-grid_1sj0

> <i_i_glide_lignum>
736

> <i_i_glide_rotatable_bonds>
3

> <r_i_docking_score>
-7.79951309576085

> <r_i_glide_ligand_efficiency>
-0.354523322534584

> <r_i_glide_ligand_efficiency_sa>
-0.993388292352995

> <r_i_glide_ligand_efficiency_ln>
-1.90648549475654

> <r_i_glide_gscore>
-7.79951309576085

> <r_i_glide_lipo>
-4.53670670112018

> <r_i_glide_hbond>
0

> <r_i_glide_metal>
0

> <r_i_glide_rewards>
-2.50996733600306

> <r_i_glide_evdw>
-17.7542476654053

> <r_i_glide_ecoul>
0.899155497550964

> <r_i_glide_erotb>
0

> <r_i_glide_esite>
0

> <r_i_glide_emodel>
-25.666751347135

> <r_i_glide_energy>
-16.8550921678543

> <r_i_glide_einternal>
1.40685153007507

> <i_i_glide_confnum>
1

> <i_i_glide_posenum>
97

> <r_i_glide_eff_state_penalty>
0

> <s_user_duplicate_titles>
89517

> <s_m_subgroup_title>
dock_pv

> <s_m_subgroupid>
dock_pv1

> <b_m_subgroup_collapsed>
0

$$$$
322697
                    3D
 Schrodinger Suite 2021-1.
 30 32  0  0  1  0            999 V2000
   30.1851    0.6564   26.6916 C   0  0  0  0  0  0
   29.9672    1.2478   27.9277 C   0  0  0  0  0  0
   30.6731    0.8234   29.0427 C   0  0  0  0  0  0
   31.5848   -0.2315   28.9627 C   0  0  0  0  0  0
   31.8014   -0.8912   27.7067 C   0  0  0  0  0  0
   31.1244   -0.3938   26.5484 C   0  0  0  0  0  0
   31.4044   -0.9526   25.2753 C   0  0  0  0  0  0
   32.2887   -2.0270   25.1205 C   0  0  0  0  0  0
   32.8598   -2.5677   26.2732 C   0  0  0  0  0  0
   32.6505   -2.0217   27.5353 C   0  0  0  0  0  0
   33.2607   -2.6072   28.5878 F   0  0  0  0  0  0
   32.5916   -2.6094   23.7723 C   0  0  0  0  0  0
   33.8009   -3.2646   23.4984 C   0  0  0  0  0  0
   34.0356   -3.8583   22.2564 C   0  0  0  0  0  0
   33.0504   -3.8599   21.2762 C   0  0  0  0  0  0
   31.8584   -3.1816   21.5098 C   0  0  0  0  0  0
   31.6601   -2.5420   22.7325 C   0  0  0  0  0  0
   30.8877   -3.1407   20.5678 F   0  0  0  0  0  0
   33.2611   -4.5411   20.1056 O   0  0  0  0  0  0
   32.4476   -0.6658   30.4073 Cl  0  0  0  0  0  0
   30.4569    1.4577   30.2343 O   0  0  0  0  0  0
   29.6434    1.0160   25.8305 H   0  0  0  0  0  0
   29.2574    2.0567   28.0199 H   0  0  0  0  0  0
   30.9160   -0.5192   24.4149 H   0  0  0  0  0  0
   33.5002   -3.4328   26.2005 H   0  0  0  0  0  0
   34.5688   -3.3377   24.2530 H   0  0  0  0  0  0
   34.9573   -4.3757   22.0513 H   0  0  0  0  0  0
   30.7287   -2.0358   22.8868 H   0  0  0  0  0  0
   32.4860   -5.0765   19.8631 H   0  0  0  0  0  0
   31.0374    1.1298   30.9257 H   0  0  0  0  0  0
  1  6  1  0  0  0
  1  2  2  0  0  0
  1 22  1  0  0  0
  2  3  1  0  0  0
  2 23  1  0  0  0
  3  4  2  0  0  0
  3 21  1  0  0  0
  4  5  1  0  0  0
  4 20  1  0  0  0
  5 10  2  0  0  0
  5  6  1  0  0  0
  6  7  2  0  0  0
  7  8  1  0  0  0
  7 24  1  0  0  0
  8  9  2  0  0  0
  8 12  1  0  0  0
  9 10  1  0  0  0
  9 25  1  0  0  0
 10 11  1  0  0  0
 12 17  1  0  0  0
 12 13  2  0  0  0
 13 14  1  0  0  0
 13 26  1  0  0  0
 14 15  2  0  0  0
 14 27  1  0  0  0
 15 16  1  0  0  0
 15 19  1  0  0  0
 16 17  2  0  0  0
 16 18  1  0  0  0
 17 28  1  0  0  0
 19 29  1  0  0  0
 21 30  1  0  0  0
M  END
> <s_m_entry_id>
17587

> <s_m_entry_name>
ligand_docking-pose.514

> <s_m_Source_Path>
/home/csk/Desktop/cluster/DUD-E-result/esr1

> <s_m_Source_File>
ligand_docking-pose.sdf

> <i_m_Source_File_Index>
514

> <i_lp_mmshare_version>
53161

> <i_f3d_flags>
0

> <r_lp_tautomer_probability>
0.999999999997365

> <s_lp_Force_Field>
OPLS_2005

> <r_lp_Energy>
20.576087

> <b_lp_Chiralities_Consistent>
1

> <s_lp_Variant>
322697-1

> <s_i_glide_gridfile>
glide-grid_1sj0

> <i_i_glide_lignum>
132

> <i_i_glide_rotatable_bonds>
3

> <r_i_docking_score>
-7.79453661996195

> <r_i_glide_ligand_efficiency>
-0.371168410474379

> <r_i_glide_ligand_efficiency_sa>
-1.02402550012749

> <r_i_glide_ligand_efficiency_ln>
-1.92718342894133

> <r_i_glide_gscore>
-7.79453661996195

> <r_i_glide_lipo>
-3.90552519626701

> <r_i_glide_hbond>
-0.16

> <r_i_glide_metal>
0

> <r_i_glide_rewards>
-2.0096376345733

> <r_i_glide_evdw>
-28.3745346069336

> <r_i_glide_ecoul>
-2.78284740447998

> <r_i_glide_erotb>
0.196426724919123

> <r_i_glide_esite>
-0.0796466730220864

> <r_i_glide_emodel>
-43.7420897794768

> <r_i_glide_energy>
-31.1573820114136

> <r_i_glide_einternal>
2.72588658332825

> <i_i_glide_confnum>
1

> <i_i_glide_posenum>
111

> <r_i_glide_eff_state_penalty>
0

> <s_user_duplicate_titles>
322697

> <s_m_subgroup_title>
dock_pv

> <s_m_subgroupid>
dock_pv1

> <b_m_subgroup_collapsed>
0

$$$$
350916
                    3D
 Schrodinger Suite 2021-1.
 39 41  0  0  1  0            999 V2000
   32.3562    0.9061   31.4446 C   0  0  0  0  0  0
   31.7665   -0.3447   30.7771 C   0  0  0  0  0  0
   32.7594   -1.0484   29.8257 C   0  0  0  0  0  0
   32.1170   -2.0333   28.8105 C   0  0  0  0  0  0
   31.5060   -1.5430   27.4423 C   0  0  2  0  0  0
   32.5636   -1.0722   26.4124 C   0  0  0  0  0  0
   33.2593    0.2580   26.7878 C   0  0  0  0  0  0
   32.3578    1.2644   27.5099 C   0  0  0  0  0  0
   32.8311    2.3374   27.8639 O   0  0  0  0  0  0
   30.9619    0.8662   27.7644 C   0  0  0  0  0  0
   30.5110   -0.4016   27.6277 C   0  0  0  0  0  0
   29.1461   -0.9983   27.6911 C   0  0  0  0  0  0
   27.8731   -0.4349   27.8640 C   0  0  0  0  0  0
   26.7383   -1.2368   27.9032 C   0  0  0  0  0  0
   26.8601   -2.6110   27.7518 C   0  0  0  0  0  0
   28.1017   -3.1736   27.4640 C   0  0  0  0  0  0
   29.2429   -2.3641   27.4288 C   0  0  0  0  0  0
   30.6185   -2.6557   26.8874 C   0  0  0  0  0  0
   25.7454   -3.3889   27.8640 O   0  0  0  0  0  0
   29.6596    2.2580   28.6631 I   0  0  0  0  0  0
   31.6396    1.3593   32.1303 H   0  0  0  0  0  0
   32.6168    1.6610   30.7024 H   0  0  0  0  0  0
   33.2600    0.6685   32.0039 H   0  0  0  0  0  0
   31.4316   -1.0481   31.5383 H   0  0  0  0  0  0
   30.8600   -0.0563   30.2545 H   0  0  0  0  0  0
   33.4142   -0.3293   29.3519 H   0  0  0  0  0  0
   33.4495   -1.6213   30.4400 H   0  0  0  0  0  0
   32.8597   -2.8007   28.5829 H   0  0  0  0  0  0
   31.3338   -2.5419   29.3753 H   0  0  0  0  0  0
   33.3007   -1.8615   26.2704 H   0  0  0  0  0  0
   32.0972   -0.9340   25.4343 H   0  0  0  0  0  0
   33.6533    0.7463   25.8968 H   0  0  0  0  0  0
   34.0884    0.0553   27.4640 H   0  0  0  0  0  0
   27.7048    0.6203   27.9699 H   0  0  0  0  0  0
   25.7691   -0.7915   28.0717 H   0  0  0  0  0  0
   28.1613   -4.2287   27.2460 H   0  0  0  0  0  0
   30.5661   -2.5871   25.8034 H   0  0  0  0  0  0
   31.0132   -3.6509   27.0640 H   0  0  0  0  0  0
   25.3129   -3.5044   26.9866 H   0  0  0  0  0  0
  1  2  1  0  0  0
  1 21  1  0  0  0
  1 22  1  0  0  0
  1 23  1  0  0  0
  2  3  1  0  0  0
  2 24  1  0  0  0
  2 25  1  0  0  0
  3  4  1  0  0  0
  3 26  1  0  0  0
  3 27  1  0  0  0
  4  5  1  0  0  0
  4 28  1  0  0  0
  4 29  1  0  0  0
  5 11  1  0  0  0
  5 18  1  0  0  0
  5  6  1  0  0  0
  6  7  1  0  0  0
  6 30  1  0  0  0
  6 31  1  0  0  0
  7  8  1  0  0  0
  7 32  1  0  0  0
  7 33  1  0  0  0
  8  9  2  0  0  0
  8 10  1  0  0  0
 10 11  2  0  0  0
 10 20  1  0  0  0
 11 12  1  0  0  0
 12 17  1  0  0  0
 12 13  2  0  0  0
 13 14  1  0  0  0
 13 34  1  0  0  0
 14 15  2  0  0  0
 14 35  1  0  0  0
 15 16  1  0  0  0
 15 19  1  0  0  0
 16 17  2  0  0  0
 16 36  1  0  0  0
 17 18  1  0  0  0
 18 37  1  0  0  0
 18 38  1  0  0  0
 19 39  1  0  0  0
M  END
> <s_m_entry_id>
17588

> <s_m_entry_name>
ligand_docking-pose.515

> <s_m_Source_Path>
/home/csk/Desktop/cluster/DUD-E-result/esr1

> <s_m_Source_File>
ligand_docking-pose.sdf

> <i_m_Source_File_Index>
515

> <i_lp_mmshare_version>
53161

> <i_f3d_flags>
0

> <r_lp_tautomer_probability>
1

> <s_lp_Force_Field>
OPLS_2005

> <r_lp_Energy>
21.739427

> <b_lp_Chiralities_Consistent>
1

> <s_lp_Variant>
350916-1

> <s_i_glide_gridfile>
glide-grid_1sj0

> <i_i_glide_lignum>
1356

> <i_i_glide_rotatable_bonds>
4

> <r_i_docking_score>
-7.79278991308519

> <r_i_glide_ligand_efficiency>
-0.38963949565426

> <r_i_glide_ligand_efficiency_sa>
-1.05764431006894

> <r_i_glide_ligand_efficiency_ln>
-1.95027829183208

> <r_i_glide_gscore>
-7.79278991308519

> <r_i_glide_lipo>
-3.50998920626728

> <r_i_glide_hbond>
-0.16

> <r_i_glide_metal>
0

> <r_i_glide_rewards>
-1.97317204761296

> <r_i_glide_evdw>
-25.2100563049316

> <r_i_glide_ecoul>
-7.69970893859863

> <r_i_glide_erotb>
0.265830496831417

> <r_i_glide_esite>
0

> <r_i_glide_emodel>
-34.4744226534082

> <r_i_glide_energy>
-32.9097652435303

> <r_i_glide_einternal>
10.1225681304932

> <i_i_glide_confnum>
7

> <i_i_glide_posenum>
179

> <r_i_glide_eff_state_penalty>
0

> <s_user_duplicate_titles>
350916

> <s_m_subgroup_title>
dock_pv

> <s_m_subgroupid>
dock_pv1

> <b_m_subgroup_collapsed>
0

$$$$
353968
                    3D
 Schrodinger Suite 2021-1.
 47 50  0  0  1  0            999 V2000
   26.8936   -3.7640   28.2633 C   0  0  0  0  0  0
   26.5624   -2.3324   27.8153 C   0  0  0  0  0  0
   27.5108   -1.7810   26.7375 C   0  0  0  0  0  0
   29.0019   -1.7395   27.1671 C   0  0  0  0  0  0
   29.9030   -0.6709   26.4549 C   0  0  1  0  0  0
   29.4630    0.7798   26.8125 C   0  0  0  0  0  0
   29.6281    1.0883   28.3164 C   0  0  0  0  0  0
   31.0276    0.7242   28.8447 C   0  0  0  0  0  0
   31.3718    1.1116   29.9618 O   0  0  0  0  0  0
   31.8441   -0.2214   28.0372 C   0  0  0  0  0  0
   31.3499   -0.8429   26.9271 C   0  0  0  0  0  0
   31.9874   -1.7711   25.9559 C   0  0  0  0  0  0
   33.1395   -2.5397   26.0681 C   0  0  0  0  0  0
   33.6632   -3.2525   24.9967 C   0  0  0  0  0  0
   33.0008   -3.1823   23.7870 C   0  0  0  0  0  0
   31.7952   -2.4676   23.6329 C   0  0  0  0  0  0
   31.2735   -1.7614   24.7581 C   0  0  0  0  0  0
   30.0220   -0.9424   24.9410 C   0  0  0  0  0  0
   31.4553   -2.7679   22.2641 C   0  0  0  0  0  0
   32.3589   -3.4843   21.6568 N   0  0  0  0  0  0
   33.3016   -3.7419   22.5644 N   0  0  0  0  0  0
   33.3039   -0.3451   28.4897 C   0  0  0  0  0  0
   33.5490   -1.4572   29.5164 C   0  0  0  0  0  0
   34.0900   -4.3226   22.3183 H   0  0  0  0  0  0
   26.1465   -4.1322   28.9667 H   0  0  0  0  0  0
   27.8665   -3.8214   28.7519 H   0  0  0  0  0  0
   26.9110   -4.4457   27.4120 H   0  0  0  0  0  0
   25.5403   -2.3133   27.4394 H   0  0  0  0  0  0
   26.5591   -1.6515   28.6638 H   0  0  0  0  0  0
   27.3983   -2.3800   25.8333 H   0  0  0  0  0  0
   27.1569   -0.7876   26.4685 H   0  0  0  0  0  0
   29.0539   -1.5897   28.2458 H   0  0  0  0  0  0
   29.4245   -2.7360   27.0231 H   0  0  0  0  0  0
   30.0599    1.5030   26.2642 H   0  0  0  0  0  0
   28.4372    0.9734   26.5026 H   0  0  0  0  0  0
   28.9173    0.4824   28.8758 H   0  0  0  0  0  0
   29.4175    2.1321   28.5499 H   0  0  0  0  0  0
   33.6600   -2.5875   27.0040 H   0  0  0  0  0  0
   34.5810   -3.7979   25.0639 H   0  0  0  0  0  0
   29.1543   -1.5116   24.6640 H   0  0  0  0  0  0
   30.0417   -0.0365   24.3410 H   0  0  0  0  0  0
   30.5607   -2.5421   21.7128 H   0  0  0  0  0  0
   33.9405   -0.4957   27.6204 H   0  0  0  0  0  0
   33.6641    0.6027   28.8958 H   0  0  0  0  0  0
   34.6158   -1.5823   29.7007 H   0  0  0  0  0  0
   33.0731   -1.2203   30.4680 H   0  0  0  0  0  0
   33.1581   -2.4172   29.1804 H   0  0  0  0  0  0
  1  2  1  0  0  0
  1 25  1  0  0  0
  1 26  1  0  0  0
  1 27  1  0  0  0
  2  3  1  0  0  0
  2 28  1  0  0  0
  2 29  1  0  0  0
  3  4  1  0  0  0
  3 30  1  0  0  0
  3 31  1  0  0  0
  4  5  1  0  0  0
  4 32  1  0  0  0
  4 33  1  0  0  0
  5 11  1  0  0  0
  5 18  1  0  0  0
  5  6  1  0  0  0
  6  7  1  0  0  0
  6 34  1  0  0  0
  6 35  1  0  0  0
  7  8  1  0  0  0
  7 36  1  0  0  0
  7 37  1  0  0  0
  8  9  2  0  0  0
  8 10  1  0  0  0
 10 11  2  0  0  0
 10 22  1  0  0  0
 11 12  1  0  0  0
 12 17  1  0  0  0
 12 13  2  0  0  0
 13 14  1  0  0  0
 13 38  1  0  0  0
 14 15  2  0  0  0
 14 39  1  0  0  0
 15 21  1  0  0  0
 15 16  1  0  0  0
 16 17  2  0  0  0
 16 19  1  0  0  0
 17 18  1  0  0  0
 18 40  1  0  0  0
 18 41  1  0  0  0
 19 20  2  0  0  0
 19 42  1  0  0  0
 20 21  1  0  0  0
 21 24  1  0  0  0
 22 23  1  0  0  0
 22 43  1  0  0  0
 22 44  1  0  0  0
 23 45  1  0  0  0
 23 46  1  0  0  0
 23 47  1  0  0  0
M  END
> <s_m_entry_id>
17589

> <s_m_entry_name>
ligand_docking-pose.516

> <s_m_Source_Path>
/home/csk/Desktop/cluster/DUD-E-result/esr1

> <s_m_Source_File>
ligand_docking-pose.sdf

> <i_m_Source_File_Index>
516

> <i_lp_mmshare_version>
53161

> <i_f3d_flags>
0

> <r_lp_tautomer_probability>
1

> <s_lp_Force_Field>
OPLS_2005

> <r_lp_Energy>
37.337977

> <b_lp_Chiralities_Consistent>
1

> <s_lp_Variant>
353968-1

> <s_i_glide_gridfile>
glide-grid_1sj0

> <i_i_glide_lignum>
1304

> <i_i_glide_rotatable_bonds>
4

> <r_i_docking_score>
-7.79137692825965

> <r_i_glide_ligand_efficiency>
-0.338755518619985

> <r_i_glide_ligand_efficiency_sa>
-0.96337563263898

> <r_i_glide_ligand_efficiency_ln>
-1.88402558955317

> <r_i_glide_gscore>
-7.79137692825965

> <r_i_glide_lipo>
-4.29000239837983

> <r_i_glide_hbond>
0

> <r_i_glide_metal>
0

> <r_i_glide_rewards>
-2.52396962036932

> <r_i_glide_evdw>
-29.3531074523926

> <r_i_glide_ecoul>
0.674982368946075

> <r_i_glide_erotb>
0.389003107767224

> <r_i_glide_esite>
0

> <r_i_glide_emodel>
-40.2267237005338

> <r_i_glide_energy>
-28.6781250834465

> <r_i_glide_einternal>
1.56445097923279

> <i_i_glide_confnum>
2

> <i_i_glide_posenum>
68

> <r_i_glide_eff_state_penalty>
0

> <s_user_duplicate_titles>
353968

> <s_m_subgroup_title>
dock_pv

> <s_m_subgroupid>
dock_pv1

> <b_m_subgroup_collapsed>
0

$$$$
338789
                    3D
 Schrodinger Suite 2021-1.
 46 47  0  0  1  0            999 V2000
   31.4599    0.7626   31.3334 C   0  0  0  0  0  0
   31.7954   -0.6996   30.9916 C   0  0  0  0  0  0
   31.0442   -1.3424   29.7995 C   0  0  0  0  0  0
   30.7992   -0.4600   28.6637 N   0  0  0  0  0  0
   29.4856   -0.4198   28.1228 C   0  0  0  0  0  0
   28.8141    0.8150   28.0110 C   0  0  0  0  0  0
   27.5297    0.8837   27.4642 C   0  0  0  0  0  0
   26.8702   -0.2702   27.0658 C   0  0  0  0  0  0
   27.5101   -1.4957   27.1620 C   0  0  0  0  0  0
   28.8092   -1.5827   27.6724 C   0  0  0  0  0  0
   29.4458   -2.9601   27.6614 C   0  0  0  0  0  0
   29.4138    2.1153   28.4973 C   0  0  0  0  0  0
   32.2228   -0.0107   27.6749 S   0  0  0  0  0  0
   32.0883    1.4060   27.3182 O   0  0  0  0  0  0
   33.4323   -0.5011   28.3463 O   0  0  0  0  0  0
   32.0332   -0.9334   26.1681 C   0  0  0  0  0  0
   31.0271   -0.5447   25.2950 C   0  0  0  0  0  0
   30.8811   -1.1927   24.0827 C   0  0  0  0  0  0
   31.7748   -2.1900   23.6950 C   0  0  0  0  0  0
   32.7664   -2.6174   24.5865 C   0  0  0  0  0  0
   32.8599   -2.0118   25.8446 C   0  0  0  0  0  0
   33.7553   -3.7034   24.1956 C   0  0  0  0  0  0
   31.6601   -2.7369   22.4435 O   0  0  0  0  0  0
   31.9388    1.0615   32.2637 H   0  0  0  0  0  0
   31.8392    1.4366   30.5666 H   0  0  0  0  0  0
   30.3912    0.9323   31.4499 H   0  0  0  0  0  0
   31.6090   -1.3286   31.8634 H   0  0  0  0  0  0
   32.8702   -0.7684   30.8227 H   0  0  0  0  0  0
   30.0987   -1.7423   30.1468 H   0  0  0  0  0  0
   31.6323   -2.1725   29.4152 H   0  0  0  0  0  0
   27.0222    1.8346   27.3797 H   0  0  0  0  0  0
   25.8676   -0.2150   26.6669 H   0  0  0  0  0  0
   26.9878   -2.3794   26.8194 H   0  0  0  0  0  0
   30.4508   -2.9343   27.2432 H   0  0  0  0  0  0
   29.5018   -3.3652   28.6639 H   0  0  0  0  0  0
   28.8613   -3.6620   27.0640 H   0  0  0  0  0  0
   30.2711    1.9925   29.1497 H   0  0  0  0  0  0
   29.7221    2.6596   27.6117 H   0  0  0  0  0  0
   28.6810    2.6935   29.0598 H   0  0  0  0  0  0
   30.3521    0.2577   25.5515 H   0  0  0  0  0  0
   30.0599   -0.8878   23.4640 H   0  0  0  0  0  0
   33.6298   -2.3225   26.5354 H   0  0  0  0  0  0
   33.2610   -4.5395   23.7026 H   0  0  0  0  0  0
   34.4855   -3.2969   23.4958 H   0  0  0  0  0  0
   34.2751   -4.1067   25.0634 H   0  0  0  0  0  0
   32.2741   -3.4554   22.2746 H   0  0  0  0  0  0
  1  2  1  0  0  0
  1 24  1  0  0  0
  1 25  1  0  0  0
  1 26  1  0  0  0
  2  3  1  0  0  0
  2 27  1  0  0  0
  2 28  1  0  0  0
  3  4  1  0  0  0
  3 29  1  0  0  0
  3 30  1  0  0  0
  4  5  1  0  0  0
  4 13  1  0  0  0
  5 10  1  0  0  0
  5  6  2  0  0  0
  6  7  1  0  0  0
  6 12  1  0  0  0
  7  8  2  0  0  0
  7 31  1  0  0  0
  8  9  1  0  0  0
  8 32  1  0  0  0
  9 10  2  0  0  0
  9 33  1  0  0  0
 10 11  1  0  0  0
 11 34  1  0  0  0
 11 35  1  0  0  0
 11 36  1  0  0  0
 12 37  1  0  0  0
 12 38  1  0  0  0
 12 39  1  0  0  0
 13 14  2  0  0  0
 13 15  2  0  0  0
 13 16  1  0  0  0
 16 21  1  0  0  0
 16 17  2  0  0  0
 17 18  1  0  0  0
 17 40  1  0  0  0
 18 19  2  0  0  0
 18 41  1  0  0  0
 19 20  1  0  0  0
 19 23  1  0  0  0
 20 21  2  0  0  0
 20 22  1  0  0  0
 21 42  1  0  0  0
 22 43  1  0  0  0
 22 44  1  0  0  0
 22 45  1  0  0  0
 23 46  1  0  0  0
M  END
> <s_m_entry_id>
17590

> <s_m_entry_name>
ligand_docking-pose.517

> <s_m_Source_Path>
/home/csk/Desktop/cluster/DUD-E-result/esr1

> <s_m_Source_File>
ligand_docking-pose.sdf

> <i_m_Source_File_Index>
517

> <i_lp_mmshare_version>
53161

> <i_f3d_flags>
0

> <r_lp_tautomer_probability>
0.999999999997365

> <s_lp_Force_Field>
OPLS_2005

> <r_lp_Energy>
13.294158

> <b_lp_Chiralities_Consistent>
1

> <s_lp_Variant>
338789-1

> <s_i_glide_gridfile>
glide-grid_1sj0

> <i_i_glide_lignum>
1531

> <i_i_glide_rotatable_bonds>
6

> <r_i_docking_score>
-7.79105358842404

> <r_i_glide_ligand_efficiency>
-0.338741460366263

> <r_i_glide_ligand_efficiency_sa>
-0.963335652835467

> <r_i_glide_ligand_efficiency_ln>
-1.88394740304904

> <r_i_glide_gscore>
-7.79105358842404

> <r_i_glide_lipo>
-4.53334100445632

> <r_i_glide_hbond>
0

> <r_i_glide_metal>
0

> <r_i_glide_rewards>
-1.91524725193485

> <r_i_glide_evdw>
-36.6438369750977

> <r_i_glide_ecoul>
-1.25552701950073

> <r_i_glide_erotb>
0.678055569647126

> <r_i_glide_esite>
0

> <r_i_glide_emodel>
-48.4113613671971

> <r_i_glide_energy>
-37.8993639945984

> <r_i_glide_einternal>
2.73157715797424

> <i_i_glide_confnum>
18

> <i_i_glide_posenum>
378

> <r_i_glide_eff_state_penalty>
0

> <s_user_duplicate_titles>
338789

> <s_m_subgroup_title>
dock_pv

> <s_m_subgroupid>
dock_pv1

> <b_m_subgroup_collapsed>
0

$$$$
338787
                    3D
 Schrodinger Suite 2021-1.
 43 44  0  0  1  0            999 V2000
   32.7485    0.6213   30.8156 C   0  0  0  0  0  0
   31.5176   -0.2915   30.9329 C   0  0  0  0  0  0
   31.1960   -1.1897   29.7195 C   0  0  0  0  0  0
   30.8734   -0.4588   28.4984 N   0  0  0  0  0  0
   29.5335   -0.4087   28.0477 C   0  0  0  0  0  0
   28.8369   -1.5669   27.6272 C   0  0  0  0  0  0
   27.5280   -1.4662   27.1447 C   0  0  0  0  0  0
   26.8995   -0.2308   27.0641 C   0  0  0  0  0  0
   27.5728    0.9142   27.4695 C   0  0  0  0  0  0
   28.8608    0.8254   28.0017 C   0  0  0  0  0  0
   29.5652    2.2580   28.6599 Cl  0  0  0  0  0  0
   29.4567   -2.9501   27.6463 C   0  0  0  0  0  0
   32.2203    0.0155   27.4273 S   0  0  0  0  0  0
   32.0157    1.4207   27.0638 O   0  0  0  0  0  0
   33.4800   -0.4126   28.0462 O   0  0  0  0  0  0
   31.9939   -0.9504   25.9466 C   0  0  0  0  0  0
   30.9655   -0.6427   25.0658 C   0  0  0  0  0  0
   30.8599   -1.3413   23.8698 C   0  0  0  0  0  0
   31.7961   -2.3024   23.5067 C   0  0  0  0  0  0
   32.8204   -2.6243   24.4003 C   0  0  0  0  0  0
   32.8605   -1.9972   25.6470 C   0  0  0  0  0  0
   33.9129   -3.5984   24.0202 C   0  0  0  0  0  0
   31.6702   -2.9270   22.2894 O   0  0  0  0  0  0
   32.9048    1.1795   31.7400 H   0  0  0  0  0  0
   33.6541    0.0444   30.6278 H   0  0  0  0  0  0
   32.6379    1.3493   30.0118 H   0  0  0  0  0  0
   30.6615    0.3494   31.1505 H   0  0  0  0  0  0
   31.6250   -0.9429   31.7989 H   0  0  0  0  0  0
   30.4265   -1.8987   30.0038 H   0  0  0  0  0  0
   32.0830   -1.7742   29.4709 H   0  0  0  0  0  0
   26.9915   -2.3459   26.8134 H   0  0  0  0  0  0
   25.8908   -0.1618   26.6856 H   0  0  0  0  0  0
   27.0625    1.8641   27.4278 H   0  0  0  0  0  0
   30.4625   -2.9415   27.2287 H   0  0  0  0  0  0
   29.5077   -3.3345   28.6624 H   0  0  0  0  0  0
   28.8652   -3.6582   27.0642 H   0  0  0  0  0  0
   30.2523    0.1351   25.2986 H   0  0  0  0  0  0
   30.0117   -1.1492   23.2414 H   0  0  0  0  0  0
   33.6575   -2.2420   26.3360 H   0  0  0  0  0  0
   34.4647   -3.2268   23.1564 H   0  0  0  0  0  0
   34.6129   -3.7478   24.8410 H   0  0  0  0  0  0
   33.4819   -4.5528   23.7394 H   0  0  0  0  0  0
   32.3112   -3.6243   22.1361 H   0  0  0  0  0  0
  1  2  1  0  0  0
  1 24  1  0  0  0
  1 25  1  0  0  0
  1 26  1  0  0  0
  2  3  1  0  0  0
  2 27  1  0  0  0
  2 28  1  0  0  0
  3  4  1  0  0  0
  3 29  1  0  0  0
  3 30  1  0  0  0
  4  5  1  0  0  0
  4 13  1  0  0  0
  5 10  1  0  0  0
  5  6  2  0  0  0
  6  7  1  0  0  0
  6 12  1  0  0  0
  7  8  2  0  0  0
  7 31  1  0  0  0
  8  9  1  0  0  0
  8 32  1  0  0  0
  9 10  2  0  0  0
  9 33  1  0  0  0
 10 11  1  0  0  0
 12 34  1  0  0  0
 12 35  1  0  0  0
 12 36  1  0  0  0
 13 14  2  0  0  0
 13 15  2  0  0  0
 13 16  1  0  0  0
 16 21  1  0  0  0
 16 17  2  0  0  0
 17 18  1  0  0  0
 17 37  1  0  0  0
 18 19  2  0  0  0
 18 38  1  0  0  0
 19 20  1  0  0  0
 19 23  1  0  0  0
 20 21  2  0  0  0
 20 22  1  0  0  0
 21 39  1  0  0  0
 22 40  1  0  0  0
 22 41  1  0  0  0
 22 42  1  0  0  0
 23 43  1  0  0  0
M  END
> <s_m_entry_id>
17591

> <s_m_entry_name>
ligand_docking-pose.518

> <s_m_Source_Path>
/home/csk/Desktop/cluster/DUD-E-result/esr1

> <s_m_Source_File>
ligand_docking-pose.sdf

> <i_m_Source_File_Index>
518

> <i_lp_mmshare_version>
53161

> <i_f3d_flags>
0

> <r_lp_tautomer_probability>
0.999999999997365

> <s_lp_Force_Field>
OPLS_2005

> <r_lp_Energy>
9.590673

> <b_lp_Chiralities_Consistent>
1

> <s_lp_Variant>
338787-1

> <s_i_glide_gridfile>
glide-grid_1sj0

> <i_i_glide_lignum>
1534

> <i_i_glide_rotatable_bonds>
6

> <r_i_docking_score>
-7.79021539484794

> <r_i_glide_ligand_efficiency>
-0.338705017167302

> <r_i_glide_ligand_efficiency_sa>
-0.963232013225411

> <r_i_glide_ligand_efficiency_ln>
-1.88374472024202

> <r_i_glide_gscore>
-7.79021539484794

> <r_i_glide_lipo>
-4.51674481963999

> <r_i_glide_hbond>
0

> <r_i_glide_metal>
0

> <r_i_glide_rewards>
-1.85988336096845

> <r_i_glide_evdw>
-36.0129013061523

> <r_i_glide_ecoul>
-1.48753094673157

> <r_i_glide_erotb>
0.610187493077848

> <r_i_glide_esite>
0

> <r_i_glide_emodel>
-50.2159204766076

> <r_i_glide_energy>
-37.5004322528839

> <r_i_glide_einternal>
3.15960788726807

> <i_i_glide_confnum>
10

> <i_i_glide_posenum>
267

> <r_i_glide_eff_state_penalty>
0

> <s_user_duplicate_titles>
338787

> <s_m_subgroup_title>
dock_pv

> <s_m_subgroupid>
dock_pv1

> <b_m_subgroup_collapsed>
0

$$$$
568148
                    3D
 Schrodinger Suite 2021-1.
 32 33  0  0  1  0            999 V2000
   33.2382   -0.2803   28.4292 C   0  0  0  0  0  0
   31.9180   -0.5374   27.6676 C   0  0  2  0  0  0
   30.8511   -1.1491   28.6053 C   0  0  0  0  0  0
   29.4443   -1.2042   28.0181 C   0  0  0  0  0  0
   28.6903   -0.0315   27.9245 C   0  0  0  0  0  0
   27.3783   -0.0821   27.4635 C   0  0  0  0  0  0
   26.8269   -1.3020   27.0853 C   0  0  0  0  0  0
   27.5818   -2.4721   27.1426 C   0  0  0  0  0  0
   28.8930   -2.4234   27.6118 C   0  0  0  0  0  0
   25.5267   -1.3420   26.6640 O   0  0  0  0  0  0
   32.1328   -1.3719   26.4022 C   0  0  0  0  0  0
   31.6384   -0.9429   25.1646 C   0  0  0  0  0  0
   31.8947   -1.7200   24.0328 C   0  0  0  0  0  0
   32.6309   -2.8969   24.1596 C   0  0  0  0  0  0
   33.0802   -3.2651   25.4278 C   0  0  0  0  0  0
   32.8377   -2.5296   26.5425 N   0  0  0  0  0  0
   32.8994   -3.6660   23.0591 O   0  0  0  0  0  0
   33.9921    0.1653   27.7796 H   0  0  0  0  0  0
   33.0853    0.4054   29.2632 H   0  0  0  0  0  0
   33.6573   -1.2015   28.8375 H   0  0  0  0  0  0
   31.5607    0.4467   27.3576 H   0  0  0  0  0  0
   31.1614   -2.1408   28.9352 H   0  0  0  0  0  0
   30.7966   -0.5634   29.5242 H   0  0  0  0  0  0
   29.1093    0.9151   28.2344 H   0  0  0  0  0  0
   26.7844    0.8194   27.4088 H   0  0  0  0  0  0
   27.1506   -3.4152   26.8362 H   0  0  0  0  0  0
   29.4726   -3.3339   27.6663 H   0  0  0  0  0  0
   25.2602   -2.2037   26.2827 H   0  0  0  0  0  0
   31.0710   -0.0294   25.0787 H   0  0  0  0  0  0
   31.5326   -1.4115   23.0643 H   0  0  0  0  0  0
   33.6613   -4.1599   25.5706 H   0  0  0  0  0  0
   33.3707   -4.4807   23.2468 H   0  0  0  0  0  0
  1  2  1  0  0  0
  1 18  1  0  0  0
  1 19  1  0  0  0
  1 20  1  0  0  0
  2  3  1  0  0  0
  2 11  1  0  0  0
  2 21  1  0  0  0
  3  4  1  0  0  0
  3 22  1  0  0  0
  3 23  1  0  0  0
  4  9  1  0  0  0
  4  5  2  0  0  0
  5  6  1  0  0  0
  5 24  1  0  0  0
  6  7  2  0  0  0
  6 25  1  0  0  0
  7  8  1  0  0  0
  7 10  1  0  0  0
  8  9  2  0  0  0
  8 26  1  0  0  0
  9 27  1  0  0  0
 10 28  1  0  0  0
 11 16  1  0  0  0
 11 12  2  0  0  0
 12 13  1  0  0  0
 12 29  1  0  0  0
 13 14  2  0  0  0
 13 30  1  0  0  0
 14 15  1  0  0  0
 14 17  1  0  0  0
 15 16  2  0  0  0
 15 31  1  0  0  0
 17 32  1  0  0  0
M  END
> <s_m_entry_id>
17592

> <s_m_entry_name>
ligand_docking-pose.519

> <s_m_Source_Path>
/home/csk/Desktop/cluster/DUD-E-result/esr1

> <s_m_Source_File>
ligand_docking-pose.sdf

> <i_m_Source_File_Index>
519

> <i_lp_mmshare_version>
53161

> <i_f3d_flags>
0

> <r_lp_tautomer_probability>
0.43657999999885

> <s_lp_Force_Field>
OPLS_2005

> <r_lp_Energy>
4.591004

> <b_lp_Chiralities_Consistent>
1

> <s_lp_Variant>
568148-3

> <s_i_glide_gridfile>
glide-grid_1sj0

> <i_i_glide_lignum>
1281

> <i_i_glide_rotatable_bonds>
5

> <r_i_docking_score>
-7.79004551304682

> <r_i_glide_ligand_efficiency>
-0.458237971355695

> <r_i_glide_ligand_efficiency_sa>
-1.17825885877472

> <r_i_glide_ligand_efficiency_ln>
-2.0322493985695

> <r_i_glide_gscore>
-7.79004551304682

> <r_i_glide_lipo>
-3.51495074956813

> <r_i_glide_hbond>
-0.16

> <r_i_glide_metal>
0

> <r_i_glide_rewards>
-2.46195192415604

> <r_i_glide_evdw>
-31.457067489624

> <r_i_glide_ecoul>
-5.07865905761719

> <r_i_glide_erotb>
0.681509393801132

> <r_i_glide_esite>
0

> <r_i_glide_emodel>
-55.0387285237509

> <r_i_glide_energy>
-36.5357265472412

> <r_i_glide_einternal>
0.963870823383331

> <i_i_glide_confnum>
5

> <i_i_glide_posenum>
15

> <r_i_glide_eff_state_penalty>
0

> <s_user_duplicate_titles>
568148

> <s_m_subgroup_title>
dock_pv

> <s_m_subgroupid>
dock_pv1

> <b_m_subgroup_collapsed>
0

$$$$
339407
                    3D
 Schrodinger Suite 2021-1.
 38 40  0  0  1  0            999 V2000
   31.7167    1.0570   30.6061 C   0  0  0  0  0  0
   31.6899    1.8580   29.4682 C   0  0  0  0  0  0
   31.6619    1.2719   28.2139 C   0  0  0  0  0  0
   31.5371   -0.1093   28.0828 C   0  0  0  0  0  0
   31.5314   -0.9125   29.2303 C   0  0  0  0  0  0
   31.6600   -0.3286   30.4894 C   0  0  0  0  0  0
   31.2712   -0.6111   26.7971 N   0  0  0  0  0  0
   32.0675   -1.5266   26.0722 C   0  0  0  0  0  0
   32.3343   -1.2830   24.7185 C   0  0  0  0  0  0
   33.0228   -2.2000   23.9366 C   0  0  0  0  0  0
   33.4922   -3.3637   24.5211 C   0  0  0  0  0  0
   33.2600   -3.6153   25.8683 C   0  0  0  0  0  0
   32.5638   -2.6996   26.6466 C   0  0  0  0  0  0
   29.6669   -0.1720   26.1177 S   0  0  0  0  0  0
   29.3261    1.1959   26.5295 O   0  0  0  0  0  0
   29.6600   -0.5420   24.7002 O   0  0  0  0  0  0
   28.4764   -1.2248   26.9095 C   0  0  0  0  0  0
   27.1662   -0.7627   26.9994 C   0  0  0  0  0  0
   26.1758   -1.6073   27.4689 C   0  0  0  0  0  0
   26.5092   -2.8976   27.8641 C   0  0  0  0  0  0
   27.8264   -3.3429   27.8446 C   0  0  0  0  0  0
   28.8193   -2.5030   27.3559 C   0  0  0  0  0  0
   25.5204   -3.7419   28.2640 O   0  0  0  0  0  0
   31.7598    1.5141   31.5839 H   0  0  0  0  0  0
   31.6744    2.9327   29.5367 H   0  0  0  0  0  0
   31.6485    1.8955   27.3339 H   0  0  0  0  0  0
   31.3768   -1.9769   29.1737 H   0  0  0  0  0  0
   31.6537   -0.9420   31.3777 H   0  0  0  0  0  0
   32.0051   -0.3671   24.2515 H   0  0  0  0  0  0
   33.2040   -2.0025   22.8903 H   0  0  0  0  0  0
   34.0309   -4.0864   23.9256 H   0  0  0  0  0  0
   33.6153   -4.5291   26.3161 H   0  0  0  0  0  0
   32.4073   -2.9408   27.6815 H   0  0  0  0  0  0
   26.9056    0.2306   26.6641 H   0  0  0  0  0  0
   25.1549   -1.2640   27.4905 H   0  0  0  0  0  0
   28.0682   -4.3492   28.1540 H   0  0  0  0  0  0
   29.8301   -2.8722   27.2741 H   0  0  0  0  0  0
   24.8600   -3.7907   27.5592 H   0  0  0  0  0  0
  1  6  1  0  0  0
  1  2  2  0  0  0
  1 24  1  0  0  0
  2  3  1  0  0  0
  2 25  1  0  0  0
  3  4  2  0  0  0
  3 26  1  0  0  0
  4  5  1  0  0  0
  4  7  1  0  0  0
  5  6  2  0  0  0
  5 27  1  0  0  0
  6 28  1  0  0  0
  7  8  1  0  0  0
  7 14  1  0  0  0
  8 13  1  0  0  0
  8  9  2  0  0  0
  9 10  1  0  0  0
  9 29  1  0  0  0
 10 11  2  0  0  0
 10 30  1  0  0  0
 11 12  1  0  0  0
 11 31  1  0  0  0
 12 13  2  0  0  0
 12 32  1  0  0  0
 13 33  1  0  0  0
 14 15  2  0  0  0
 14 16  2  0  0  0
 14 17  1  0  0  0
 17 22  1  0  0  0
 17 18  2  0  0  0
 18 19  1  0  0  0
 18 34  1  0  0  0
 19 20  2  0  0  0
 19 35  1  0  0  0
 20 21  1  0  0  0
 20 23  1  0  0  0
 21 22  2  0  0  0
 21 36  1  0  0  0
 22 37  1  0  0  0
 23 38  1  0  0  0
M  END
> <s_m_entry_id>
17593

> <s_m_entry_name>
ligand_docking-pose.520

> <s_m_Source_Path>
/home/csk/Desktop/cluster/DUD-E-result/esr1

> <s_m_Source_File>
ligand_docking-pose.sdf

> <i_m_Source_File_Index>
520

> <i_lp_mmshare_version>
53161

> <i_f3d_flags>
0

> <r_lp_tautomer_probability>
0.999999999997365

> <s_lp_Force_Field>
OPLS_2005

> <r_lp_Energy>
24.019446

> <b_lp_Chiralities_Consistent>
1

> <s_lp_Variant>
339407-1

> <s_i_glide_gridfile>
glide-grid_1sj0

> <i_i_glide_lignum>
629

> <i_i_glide_rotatable_bonds>
5

> <r_i_docking_score>
-7.78492490697749

> <r_i_glide_ligand_efficiency>
-0.338474995955543

> <r_i_glide_ligand_efficiency_sa>
-0.962577863497308

> <r_i_glide_ligand_efficiency_ln>
-1.88246543230345

> <r_i_glide_gscore>
-7.78492490697749

> <r_i_glide_lipo>
-4.31634653893765

> <r_i_glide_hbond>
-0.145299843413153

> <r_i_glide_metal>
0

> <r_i_glide_rewards>
-1.61277086670165

> <r_i_glide_evdw>
-38.4182205200195

> <r_i_glide_ecoul>
-3.31751489639282

> <r_i_glide_erotb>
0.708030602534869

> <r_i_glide_esite>
0

> <r_i_glide_emodel>
-53.6593319044142

> <r_i_glide_energy>
-41.7357354164124

> <r_i_glide_einternal>
10.6297903060913

> <i_i_glide_confnum>
20

> <i_i_glide_posenum>
176

> <r_i_glide_eff_state_penalty>
0

> <s_user_duplicate_titles>
339407

> <s_m_subgroup_title>
dock_pv

> <s_m_subgroupid>
dock_pv1

> <b_m_subgroup_collapsed>
0

$$$$
339130
                    3D
 Schrodinger Suite 2021-1.
 55 58  0  0  1  0            999 V2000
   31.6315    0.4886   31.4632 C   0  0  0  0  0  0
   31.0436    1.1257   30.2360 C   0  0  0  0  0  0
   31.3048    0.9011   28.9352 C   0  0  0  0  0  0
   32.2890   -0.0347   28.2052 C   0  0  2  0  0  0
   33.5597   -0.4058   29.0450 C   0  0  0  0  0  0
   34.5397    0.7604   29.3369 C   0  0  0  0  0  0
   34.8649    1.5387   28.0497 C   0  0  1  0  0  0
   33.5999    2.0390   27.3719 C   0  0  0  0  0  0
   32.7733    0.8170   27.0283 C   0  0  0  0  0  0
   32.4716    0.5567   25.7586 C   0  0  0  0  0  0
   31.6656   -0.5781   25.1924 C   0  0  0  0  0  0
   30.8363   -1.2225   26.3015 C   0  0  1  0  0  0
   31.6386   -1.3612   27.6013 C   0  0  2  0  0  0
   30.7704   -2.2580   28.4599 C   0  0  0  0  0  0
   29.4444   -1.6999   28.8598 C   0  0  0  0  0  0
   28.6168   -1.0529   27.7589 C   0  0  1  0  0  0
   29.4718   -0.5409   26.5805 C   0  0  2  0  0  0
   28.4975   -0.6900   25.4639 C   0  0  0  0  0  0
   27.2853   -1.5459   25.8540 C   0  0  0  0  0  0
   27.6518   -2.1197   27.1748 C   0  0  2  0  0  0
   26.5011   -2.5626   27.8670 O   0  0  0  0  0  0
   27.8398    0.1758   28.2640 C   0  0  0  0  0  0
   35.6601    2.6576   28.2637 O   0  0  0  0  0  0
   35.4239    0.9123   27.3538 H   0  0  0  0  0  0
   28.2284   -3.0263   26.9749 H   0  0  0  0  0  0
   31.2788    1.0565   32.3245 H   0  0  0  0  0  0
   31.2649   -0.5366   31.5661 H   0  0  0  0  0  0
   32.7162    0.5147   31.4950 H   0  0  0  0  0  0
   30.2827    1.8575   30.4527 H   0  0  0  0  0  0
   30.7028    1.5011   28.2691 H   0  0  0  0  0  0
   34.1327   -1.1422   28.4824 H   0  0  0  0  0  0
   33.2900   -0.9367   29.9557 H   0  0  0  0  0  0
   34.1160    1.4477   30.0689 H   0  0  0  0  0  0
   35.4562    0.3698   29.7811 H   0  0  0  0  0  0
   33.0372    2.7118   28.0182 H   0  0  0  0  0  0
   33.8554    2.6214   26.4836 H   0  0  0  0  0  0
   32.8601    1.2734   25.0629 H   0  0  0  0  0  0
   31.0358   -0.2178   24.3801 H   0  0  0  0  0  0
   32.3514   -1.3009   24.7480 H   0  0  0  0  0  0
   30.6095   -2.2208   25.9185 H   0  0  0  0  0  0
   32.4800   -1.9935   27.3082 H   0  0  0  0  0  0
   30.4689   -3.1316   27.8640 H   0  0  0  0  0  0
   31.3165   -2.5417   29.3601 H   0  0  0  0  0  0
   28.8602   -2.3719   29.4640 H   0  0  0  0  0  0
   29.8063   -0.9111   29.4639 H   0  0  0  0  0  0
   29.6942    0.5205   26.6876 H   0  0  0  0  0  0
   28.2246    0.2831   25.0657 H   0  0  0  0  0  0
   29.0300   -1.2007   24.6643 H   0  0  0  0  0  0
   26.3814   -0.9420   25.9340 H   0  0  0  0  0  0
   27.0534   -2.3398   25.1468 H   0  0  0  0  0  0
   25.9451   -3.0442   27.2389 H   0  0  0  0  0  0
   27.5652    0.8725   27.4701 H   0  0  0  0  0  0
   26.8839   -0.1419   28.6640 H   0  0  0  0  0  0
   28.4600    0.7455   28.9663 H   0  0  0  0  0  0
   36.4869    2.3528   28.6643 H   0  0  0  0  0  0
  1  2  1  0  0  0
  1 26  1  0  0  0
  1 27  1  0  0  0
  1 28  1  0  0  0
  2  3  2  0  0  0
  2 29  1  0  0  0
  3  4  1  0  0  0
  3 30  1  0  0  0
  4  9  1  0  0  0
  4 13  1  0  0  0
  4  5  1  0  0  0
  5  6  1  0  0  0
  5 31  1  0  0  0
  5 32  1  0  0  0
  6  7  1  0  0  0
  6 33  1  0  0  0
  6 34  1  0  0  0
  7 24  1  0  0  0
  7  8  1  0  0  0
  7 23  1  0  0  0
  8  9  1  0  0  0
  8 35  1  0  0  0
  8 36  1  0  0  0
  9 10  2  0  0  0
 10 11  1  0  0  0
 10 37  1  0  0  0
 11 12  1  0  0  0
 11 38  1  0  0  0
 11 39  1  0  0  0
 12 17  1  0  0  0
 12 13  1  0  0  0
 12 40  1  0  0  0
 13 14  1  0  0  0
 13 41  1  0  0  0
 14 15  1  0  0  0
 14 42  1  0  0  0
 14 43  1  0  0  0
 15 16  1  0  0  0
 15 44  1  0  0  0
 15 45  1  0  0  0
 16 20  1  0  0  0
 16 17  1  0  0  0
 16 22  1  0  0  0
 17 18  1  0  0  0
 17 46  1  0  0  0
 18 19  1  0  0  0
 18 47  1  0  0  0
 18 48  1  0  0  0
 19 20  1  0  0  0
 19 49  1  0  0  0
 19 50  1  0  0  0
 20 25  1  0  0  0
 20 21  1  0  0  0
 21 51  1  0  0  0
 22 52  1  0  0  0
 22 53  1  0  0  0
 22 54  1  0  0  0
 23 55  1  0  0  0
M  END
> <s_m_entry_id>
17594

> <s_m_entry_name>
ligand_docking-pose.521

> <s_m_Source_Path>
/home/csk/Desktop/cluster/DUD-E-result/esr1

> <s_m_Source_File>
ligand_docking-pose.sdf

> <i_m_Source_File_Index>
521

> <i_lp_mmshare_version>
53161

> <i_f3d_flags>
0

> <r_lp_tautomer_probability>
1

> <s_lp_Force_Field>
OPLS_2005

> <r_lp_Energy>
56.717356

> <b_lp_Chiralities_Consistent>
1

> <s_lp_Variant>
339130-1

> <s_i_glide_gridfile>
glide-grid_1sj0

> <i_i_glide_lignum>
1198

> <i_i_glide_rotatable_bonds>
3

> <r_i_docking_score>
-7.77420173412522

> <r_i_glide_ligand_efficiency>
-0.338008771048923

> <r_i_glide_ligand_efficiency_sa>
-0.961251981881573

> <r_i_glide_ligand_efficiency_ln>
-1.87987247187542

> <r_i_glide_gscore>
-7.77420173412522

> <r_i_glide_lipo>
-4.40503015651088

> <r_i_glide_hbond>
-0.390782229037639

> <r_i_glide_metal>
0

> <r_i_glide_rewards>
-2.15128922727273

> <r_i_glide_evdw>
-4.89389657974243

> <r_i_glide_ecoul>
-5.12189865112305

> <r_i_glide_erotb>
0.185879505351595

> <r_i_glide_esite>
0

> <r_i_glide_emodel>
-27.4388156593752

> <r_i_glide_energy>
-10.0157952308655

> <r_i_glide_einternal>
3.28888130187988

> <i_i_glide_confnum>
3

> <i_i_glide_posenum>
170

> <r_i_glide_eff_state_penalty>
0

> <s_user_duplicate_titles>
339130

> <s_m_subgroup_title>
dock_pv

> <s_m_subgroupid>
dock_pv1

> <b_m_subgroup_collapsed>
0

$$$$
313086
                    3D
 Schrodinger Suite 2021-1.
 29 31  0  0  1  0            999 V2000
   26.5928   -0.8868   27.1776 C   0  0  0  0  0  0
   28.0163   -0.3428   27.2393 C   0  0  0  0  0  0
   29.0897   -1.1851   26.9400 C   0  0  0  0  0  0
   30.4024   -0.7084   27.0001 C   0  0  0  0  0  0
   30.6508    0.6062   27.3961 C   0  0  0  0  0  0
   29.5864    1.4558   27.6864 C   0  0  0  0  0  0
   28.2773    0.9886   27.5919 C   0  0  0  0  0  0
   27.2603    1.8561   27.8619 O   0  0  0  0  0  0
   31.5195   -1.5974   26.6240 C   0  0  0  0  0  0
   31.8792   -1.9862   25.3018 C   0  0  0  0  0  0
   31.4395   -1.7418   23.9919 C   0  0  0  0  0  0
   32.0832   -2.4050   22.9421 C   0  0  0  0  0  0
   33.1640   -3.2572   23.1736 C   0  0  0  0  0  0
   33.6414   -3.4743   24.4649 C   0  0  0  0  0  0
   32.9656   -2.8406   25.5060 C   0  0  0  0  0  0
   33.2337   -2.9418   26.8373 O   0  0  0  0  0  0
   32.3176   -2.1361   27.5230 N   0  0  0  0  0  0
   33.7592   -3.9040   22.1263 O   0  0  0  0  0  0
   26.5368   -1.8335   26.6345 H   0  0  0  0  0  0
   25.9279   -0.1922   26.6635 H   0  0  0  0  0  0
   26.1994   -1.0333   28.1855 H   0  0  0  0  0  0
   28.9082   -2.2137   26.6638 H   0  0  0  0  0  0
   31.6641    0.9756   27.4541 H   0  0  0  0  0  0
   29.7751    2.4788   27.9765 H   0  0  0  0  0  0
   26.3947    1.4777   27.6869 H   0  0  0  0  0  0
   30.6014   -1.0874   23.8030 H   0  0  0  0  0  0
   31.7330   -2.2522   21.9313 H   0  0  0  0  0  0
   34.4600   -4.1418   24.6632 H   0  0  0  0  0  0
   33.2358   -3.8866   21.3206 H   0  0  0  0  0  0
  1  2  1  0  0  0
  1 19  1  0  0  0
  1 20  1  0  0  0
  1 21  1  0  0  0
  2  7  1  0  0  0
  2  3  2  0  0  0
  3  4  1  0  0  0
  3 22  1  0  0  0
  4  5  2  0  0  0
  4  9  1  0  0  0
  5  6  1  0  0  0
  5 23  1  0  0  0
  6  7  2  0  0  0
  6 24  1  0  0  0
  7  8  1  0  0  0
  8 25  1  0  0  0
  9 17  2  0  0  0
  9 10  1  0  0  0
 10 15  2  0  0  0
 10 11  1  0  0  0
 11 12  2  0  0  0
 11 26  1  0  0  0
 12 13  1  0  0  0
 12 27  1  0  0  0
 13 14  2  0  0  0
 13 18  1  0  0  0
 14 15  1  0  0  0
 14 28  1  0  0  0
 15 16  1  0  0  0
 16 17  1  0  0  0
 18 29  1  0  0  0
M  END
> <s_m_entry_id>
17595

> <s_m_entry_name>
ligand_docking-pose.522

> <s_m_Source_Path>
/home/csk/Desktop/cluster/DUD-E-result/esr1

> <s_m_Source_File>
ligand_docking-pose.sdf

> <i_m_Source_File_Index>
522

> <i_lp_mmshare_version>
53161

> <i_f3d_flags>
0

> <r_lp_tautomer_probability>
0.999999999997365

> <s_lp_Force_Field>
OPLS_2005

> <r_lp_Energy>
21.056093

> <b_lp_Chiralities_Consistent>
1

> <s_lp_Variant>
313086-1

> <s_i_glide_gridfile>
glide-grid_1sj0

> <i_i_glide_lignum>
1008

> <i_i_glide_rotatable_bonds>
3

> <r_i_docking_score>
-7.75697488494785

> <r_i_glide_ligand_efficiency>
-0.43094304916377

> <r_i_glide_ligand_efficiency_sa>
-1.12939028640197

> <r_i_glide_ligand_efficiency_ln>
-1.99389039600233

> <r_i_glide_gscore>
-7.75697488494785

> <r_i_glide_lipo>
-3.7775398492761

> <r_i_glide_hbond>
-0.00437290434629254

> <r_i_glide_metal>
0

> <r_i_glide_rewards>
-2.28022539767329

> <r_i_glide_evdw>
-30.9185199737549

> <r_i_glide_ecoul>
-2.97681879997253

> <r_i_glide_erotb>
0.297612085031456

> <r_i_glide_esite>
0

> <r_i_glide_emodel>
-46.6968947313497

> <r_i_glide_energy>
-33.8953387737274

> <r_i_glide_einternal>
3.80941796302795

> <i_i_glide_confnum>
1

> <i_i_glide_posenum>
228

> <r_i_glide_eff_state_penalty>
0

> <s_user_duplicate_titles>
313086

> <s_m_subgroup_title>
dock_pv

> <s_m_subgroupid>
dock_pv1

> <b_m_subgroup_collapsed>
0

$$$$
301062
                    3D
 Schrodinger Suite 2021-1.
 42 44  0  0  1  0            999 V2000
   29.8538   -2.7272   27.1422 C   0  0  0  0  0  0
   30.5377   -1.5065   27.7157 C   0  0  0  0  0  0
   30.9224   -1.4455   29.0082 C   0  0  0  0  0  0
   31.5460   -0.2294   29.6800 C   0  0  0  0  0  0
   31.7864    0.9644   28.6881 C   0  0  2  0  0  0
   30.6397    0.9736   27.6416 C   0  0  0  0  0  0
   30.7380   -0.3067   26.7851 C   0  0  1  0  0  0
   32.1210   -0.3393   26.0769 C   0  0  1  0  0  0
   33.1584   -0.2681   27.0661 O   0  0  0  0  0  0
   33.1892    0.8679   27.9426 C   0  0  0  0  0  0
   34.3654    0.5552   28.8985 C   0  0  0  0  0  0
   33.5219    2.1445   27.1205 C   0  0  0  0  0  0
   32.3355   -1.5080   25.1077 C   0  0  0  0  0  0
   33.2573   -2.5302   25.3831 C   0  0  0  0  0  0
   33.5422   -3.4972   24.4253 C   0  0  0  0  0  0
   32.8635   -3.5079   23.2080 C   0  0  0  0  0  0
   31.9197   -2.5249   22.9426 C   0  0  0  0  0  0
   31.6595   -1.5246   23.8810 C   0  0  0  0  0  0
   31.2614   -2.5442   21.7649 F   0  0  0  0  0  0
   33.1108   -4.4793   22.2717 O   0  0  0  0  0  0
   31.6601    2.1566   29.4354 O   0  0  0  0  0  0
   29.9425   -0.2881   26.0376 H   0  0  0  0  0  0
   32.2131    0.5359   25.4342 H   0  0  0  0  0  0
   30.4843   -3.1835   26.3783 H   0  0  0  0  0  0
   29.6570   -3.4797   27.9058 H   0  0  0  0  0  0
   28.8988   -2.4468   26.6956 H   0  0  0  0  0  0
   30.7571   -2.3116   29.6266 H   0  0  0  0  0  0
   30.8600    0.0759   30.4685 H   0  0  0  0  0  0
   32.4381   -0.5256   30.2238 H   0  0  0  0  0  0
   30.6768    1.8576   27.0097 H   0  0  0  0  0  0
   29.6676    1.0226   28.1360 H   0  0  0  0  0  0
   34.3696    1.2162   29.7650 H   0  0  0  0  0  0
   34.3551   -0.4744   29.2532 H   0  0  0  0  0  0
   35.3235    0.6777   28.3912 H   0  0  0  0  0  0
   33.6710    3.0033   27.7760 H   0  0  0  0  0  0
   34.4429    2.0080   26.5533 H   0  0  0  0  0  0
   32.7573    2.4182   26.4002 H   0  0  0  0  0  0
   33.7829   -2.5424   26.3243 H   0  0  0  0  0  0
   34.2815   -4.2466   24.6458 H   0  0  0  0  0  0
   30.9401   -0.7533   23.6465 H   0  0  0  0  0  0
   32.4868   -4.4719   21.5378 H   0  0  0  0  0  0
   32.3211    2.1473   30.1330 H   0  0  0  0  0  0
  1  2  1  0  0  0
  1 24  1  0  0  0
  1 25  1  0  0  0
  1 26  1  0  0  0
  2  7  1  0  0  0
  2  3  2  0  0  0
  3  4  1  0  0  0
  3 27  1  0  0  0
  4  5  1  0  0  0
  4 28  1  0  0  0
  4 29  1  0  0  0
  5 10  1  0  0  0
  5  6  1  0  0  0
  5 21  1  0  0  0
  6  7  1  0  0  0
  6 30  1  0  0  0
  6 31  1  0  0  0
  7 22  1  0  0  0
  7  8  1  0  0  0
  8 23  1  0  0  0
  8  9  1  0  0  0
  8 13  1  0  0  0
  9 10  1  0  0  0
 10 11  1  0  0  0
 10 12  1  0  0  0
 11 32  1  0  0  0
 11 33  1  0  0  0
 11 34  1  0  0  0
 12 35  1  0  0  0
 12 36  1  0  0  0
 12 37  1  0  0  0
 13 18  1  0  0  0
 13 14  2  0  0  0
 14 15  1  0  0  0
 14 38  1  0  0  0
 15 16  2  0  0  0
 15 39  1  0  0  0
 16 17  1  0  0  0
 16 20  1  0  0  0
 17 18  2  0  0  0
 17 19  1  0  0  0
 18 40  1  0  0  0
 20 41  1  0  0  0
 21 42  1  0  0  0
M  END
> <s_m_entry_id>
17596

> <s_m_entry_name>
ligand_docking-pose.523

> <s_m_Source_Path>
/home/csk/Desktop/cluster/DUD-E-result/esr1

> <s_m_Source_File>
ligand_docking-pose.sdf

> <i_m_Source_File_Index>
523

> <i_lp_mmshare_version>
53161

> <i_f3d_flags>
0

> <r_lp_tautomer_probability>
0.999999999997365

> <s_lp_Force_Field>
OPLS_2005

> <r_lp_Energy>
28.988455

> <b_lp_Chiralities_Consistent>
1

> <s_lp_Variant>
301062-1

> <s_i_glide_gridfile>
glide-grid_1sj0

> <i_i_glide_lignum>
936

> <i_i_glide_rotatable_bonds>
3

> <r_i_docking_score>
-7.74907337092229

> <r_i_glide_ligand_efficiency>
-0.369003493853442

> <r_i_glide_ligand_efficiency_sa>
-1.0180526593282

> <r_i_glide_ligand_efficiency_ln>
-1.91594273248341

> <r_i_glide_gscore>
-7.74907337092229

> <r_i_glide_lipo>
-4.41978864756604

> <r_i_glide_hbond>
0

> <r_i_glide_metal>
0

> <r_i_glide_rewards>
-2.21246827174344

> <r_i_glide_evdw>
-22.9010925292969

> <r_i_glide_ecoul>
-1.22578835487366

> <r_i_glide_erotb>
0.213600203221412

> <r_i_glide_esite>
-0.00149377513833673

> <r_i_glide_emodel>
-32.3250178081699

> <r_i_glide_energy>
-24.1268808841705

> <r_i_glide_einternal>
0.330371677875519

> <i_i_glide_confnum>
2

> <i_i_glide_posenum>
241

> <r_i_glide_eff_state_penalty>
0

> <s_user_duplicate_titles>
301062

> <s_m_subgroup_title>
dock_pv

> <s_m_subgroupid>
dock_pv1

> <b_m_subgroup_collapsed>
0

$$$$
323083
                    3D
 Schrodinger Suite 2021-1.
 30 32  0  0  1  0            999 V2000
   33.8146   -3.2220   23.5519 C   0  0  0  0  0  0
   33.9689   -3.7419   22.2640 C   0  0  0  0  0  0
   32.9419   -3.6120   21.3376 C   0  0  0  0  0  0
   31.7792   -2.9420   21.6794 C   0  0  0  0  0  0
   31.6600   -2.3838   22.9474 C   0  0  0  0  0  0
   32.6448   -2.5435   23.9184 C   0  0  0  0  0  0
   32.4299   -2.0130   25.3014 C   0  0  0  0  0  0
   32.9631   -2.6811   26.4045 C   0  0  0  0  0  0
   32.8599   -2.1678   27.6938 C   0  0  0  0  0  0
   32.1523   -0.9682   27.9346 C   0  0  0  0  0  0
   31.5055   -0.3248   26.8386 C   0  0  0  0  0  0
   31.6780   -0.8509   25.5321 C   0  0  0  0  0  0
   30.7199    0.8293   27.0876 C   0  0  0  0  0  0
   30.6369    1.3643   28.3711 C   0  0  0  0  0  0
   31.3222    0.7741   29.4273 C   0  0  0  0  0  0
   32.0690   -0.3863   29.2269 C   0  0  0  0  0  0
   32.7299   -0.9420   30.2691 F   0  0  0  0  0  0
   31.2596    1.3373   30.6749 O   0  0  0  0  0  0
   33.0694   -4.1420   20.0844 O   0  0  0  0  0  0
   34.6144   -3.3420   24.2659 H   0  0  0  0  0  0
   34.8639   -4.2705   21.9801 H   0  0  0  0  0  0
   30.9822   -2.8347   20.9580 H   0  0  0  0  0  0
   30.7615   -1.8381   23.1825 H   0  0  0  0  0  0
   33.5037   -3.6045   26.2614 H   0  0  0  0  0  0
   33.3287   -2.6854   28.5191 H   0  0  0  0  0  0
   31.2275   -0.3181   24.7080 H   0  0  0  0  0  0
   30.1872    1.2981   26.2729 H   0  0  0  0  0  0
   30.0488    2.2540   28.5451 H   0  0  0  0  0  0
   31.8178    0.8740   31.3042 H   0  0  0  0  0  0
   32.3266   -4.7298   19.8643 H   0  0  0  0  0  0
  1  6  1  0  0  0
  1  2  2  0  0  0
  1 20  1  0  0  0
  2  3  1  0  0  0
  2 21  1  0  0  0
  3  4  2  0  0  0
  3 19  1  0  0  0
  4  5  1  0  0  0
  4 22  1  0  0  0
  5  6  2  0  0  0
  5 23  1  0  0  0
  6  7  1  0  0  0
  7 12  1  0  0  0
  7  8  2  0  0  0
  8  9  1  0  0  0
  8 24  1  0  0  0
  9 10  2  0  0  0
  9 25  1  0  0  0
 10 16  1  0  0  0
 10 11  1  0  0  0
 11 12  2  0  0  0
 11 13  1  0  0  0
 12 26  1  0  0  0
 13 14  2  0  0  0
 13 27  1  0  0  0
 14 15  1  0  0  0
 14 28  1  0  0  0
 15 16  2  0  0  0
 15 18  1  0  0  0
 16 17  1  0  0  0
 18 29  1  0  0  0
 19 30  1  0  0  0
M  END
> <s_m_entry_id>
17598

> <s_m_entry_name>
ligand_docking-pose.525

> <s_m_Source_Path>
/home/csk/Desktop/cluster/DUD-E-result/esr1

> <s_m_Source_File>
ligand_docking-pose.sdf

> <i_m_Source_File_Index>
525

> <i_lp_mmshare_version>
53161

> <i_f3d_flags>
0

> <r_lp_tautomer_probability>
0.999999999997365

> <s_lp_Force_Field>
OPLS_2005

> <r_lp_Energy>
17.027608

> <b_lp_Chiralities_Consistent>
1

> <s_lp_Variant>
323083-1

> <s_i_glide_gridfile>
glide-grid_1sj0

> <i_i_glide_lignum>
298

> <i_i_glide_rotatable_bonds>
3

> <r_i_docking_score>
-7.7466605599858

> <r_i_glide_ligand_efficiency>
-0.407718976841358

> <r_i_glide_ligand_efficiency_sa>
-1.0879579889509

> <r_i_glide_ligand_efficiency_ln>
-1.96394483496937

> <r_i_glide_gscore>
-7.7466605599858

> <r_i_glide_lipo>
-3.50835047676614

> <r_i_glide_hbond>
-0.16

> <r_i_glide_metal>
0

> <r_i_glide_rewards>
-2.4742765340973

> <r_i_glide_evdw>
-28.3272132873535

> <r_i_glide_ecoul>
-3.06452560424805

> <r_i_glide_erotb>
0.272005955882521

> <r_i_glide_esite>
0

> <r_i_glide_emodel>
-44.3937148486359

> <r_i_glide_energy>
-31.3917388916016

> <r_i_glide_einternal>
2.78242111206055

> <i_i_glide_confnum>
3

> <i_i_glide_posenum>
255

> <r_i_glide_eff_state_penalty>
0

> <s_user_duplicate_titles>
323083

> <s_m_subgroup_title>
dock_pv

> <s_m_subgroupid>
dock_pv1

> <b_m_subgroup_collapsed>
0

$$$$
215899
                    3D
 Schrodinger Suite 2021-1.
 44 46  0  0  1  0            999 V2000
   33.6598   -3.2507   28.8157 C   0  0  0  0  0  0
   33.2552   -3.7683   27.4185 C   0  0  0  0  0  0
   33.5787   -2.9335   26.2659 N   0  0  0  0  0  0
   32.5860   -2.1491   25.6820 C   0  0  0  0  0  0
   32.4020   -2.3384   24.2954 C   0  0  0  0  0  0
   31.3168   -1.7126   23.7091 C   0  0  0  0  0  0
   30.4537   -0.9349   24.4417 C   0  0  0  0  0  0
   30.6390   -0.7085   25.7986 C   0  0  0  0  0  0
   31.7776   -1.2501   26.4273 C   0  0  0  0  0  0
   32.1503   -0.7750   27.8001 C   0  0  0  0  0  0
   33.2937    0.0195   27.9561 C   0  0  0  0  0  0
   33.6353    0.5488   29.1971 C   0  0  0  0  0  0
   32.8144    0.3076   30.2935 C   0  0  0  0  0  0
   31.6576   -0.4546   30.1549 C   0  0  0  0  0  0
   31.3267   -0.9962   28.9133 C   0  0  0  0  0  0
   29.6061    0.0849   26.5131 C   0  0  0  0  0  0
   28.2647   -0.3055   26.4389 C   0  0  0  0  0  0
   27.2834    0.4290   27.0935 C   0  0  0  0  0  0
   27.6522    1.5297   27.8568 C   0  0  0  0  0  0
   28.9877    1.8605   28.0197 C   0  0  0  0  0  0
   29.9530    1.1928   27.2896 C   0  0  0  0  0  0
   33.3009   -3.1261   23.4150 C   0  0  0  0  0  0
   32.9327   -3.6384   22.3096 N   0  0  0  0  0  0
   34.0070   -4.2311   21.6350 O   0  0  0  0  0  0
   34.0602   -4.0529   29.4248 H   0  0  0  0  0  0
   34.3000   -2.3789   28.8399 H   0  0  0  0  0  0
   32.8012   -2.9364   29.3833 H   0  0  0  0  0  0
   32.1879   -3.9524   27.3906 H   0  0  0  0  0  0
   33.7009   -4.7503   27.2646 H   0  0  0  0  0  0
   33.9693   -3.5201   25.5416 H   0  0  0  0  0  0
   31.1247   -1.8424   22.6642 H   0  0  0  0  0  0
   29.6576   -0.4554   23.9135 H   0  0  0  0  0  0
   33.9123    0.2538   27.1038 H   0  0  0  0  0  0
   34.5252    1.1539   29.3019 H   0  0  0  0  0  0
   33.0734    0.7208   31.2575 H   0  0  0  0  0  0
   31.0248   -0.6352   31.0099 H   0  0  0  0  0  0
   30.4240   -1.5808   28.8086 H   0  0  0  0  0  0
   27.9759   -1.1711   25.8592 H   0  0  0  0  0  0
   26.2411    0.1567   26.9975 H   0  0  0  0  0  0
   26.8865    2.1383   28.3078 H   0  0  0  0  0  0
   29.2761    2.6736   28.6679 H   0  0  0  0  0  0
   30.9795    1.5176   27.3660 H   0  0  0  0  0  0
   34.3291   -3.2119   23.7739 H   0  0  0  0  0  0
   33.5671   -4.6429   20.8808 H   0  0  0  0  0  0
  1  2  1  0  0  0
  1 25  1  0  0  0
  1 26  1  0  0  0
  1 27  1  0  0  0
  2  3  1  0  0  0
  2 28  1  0  0  0
  2 29  1  0  0  0
  3  4  1  0  0  0
  3 30  1  0  0  0
  4  9  1  0  0  0
  4  5  2  0  0  0
  5  6  1  0  0  0
  5 22  1  0  0  0
  6  7  2  0  0  0
  6 31  1  0  0  0
  7  8  1  0  0  0
  7 32  1  0  0  0
  8  9  2  0  0  0
  8 16  1  0  0  0
  9 10  1  0  0  0
 10 15  1  0  0  0
 10 11  2  0  0  0
 11 12  1  0  0  0
 11 33  1  0  0  0
 12 13  2  0  0  0
 12 34  1  0  0  0
 13 14  1  0  0  0
 13 35  1  0  0  0
 14 15  2  0  0  0
 14 36  1  0  0  0
 15 37  1  0  0  0
 16 21  1  0  0  0
 16 17  2  0  0  0
 17 18  1  0  0  0
 17 38  1  0  0  0
 18 19  2  0  0  0
 18 39  1  0  0  0
 19 20  1  0  0  0
 19 40  1  0  0  0
 20 21  2  0  0  0
 20 41  1  0  0  0
 21 42  1  0  0  0
 22 23  2  0  0  0
 22 43  1  0  0  0
 23 24  1  0  0  0
 24 44  1  0  0  0
M  END
> <s_m_entry_id>
17599

> <s_m_entry_name>
ligand_docking-pose.526

> <s_m_Source_Path>
/home/csk/Desktop/cluster/DUD-E-result/esr1

> <s_m_Source_File>
ligand_docking-pose.sdf

> <i_m_Source_File_Index>
526

> <i_lp_mmshare_version>
53161

> <i_f3d_flags>
0

> <r_lp_tautomer_probability>
1

> <s_lp_Force_Field>
OPLS_2005

> <r_lp_Energy>
35.118792

> <b_lp_Chiralities_Consistent>
1

> <s_lp_Variant>
215899-1

> <s_i_glide_gridfile>
glide-grid_1sj0

> <i_i_glide_lignum>
1621

> <i_i_glide_rotatable_bonds>
6

> <r_i_docking_score>
-7.74543201642391

> <r_i_glide_ligand_efficiency>
-0.322726334017663

> <r_i_glide_ligand_efficiency_sa>
-0.930903832141565

> <r_i_glide_ligand_efficiency_ln>
-1.85383729624634

> <r_i_glide_gscore>
-7.74543201642391

> <r_i_glide_lipo>
-4.90070885075968

> <r_i_glide_hbond>
0

> <r_i_glide_metal>
0

> <r_i_glide_rewards>
-2.60184340909091

> <r_i_glide_evdw>
-22.3697109222412

> <r_i_glide_ecoul>
-0.163025677204132

> <r_i_glide_erotb>
0.929817746249497

> <r_i_glide_esite>
-0.0297581051301331

> <r_i_glide_emodel>
-20.0548585081606

> <r_i_glide_energy>
-22.5327365994453

> <r_i_glide_einternal>
9.67280387878418

> <i_i_glide_confnum>
349

> <i_i_glide_posenum>
276

> <r_i_glide_eff_state_penalty>
0

> <s_user_duplicate_titles>
215899

> <s_m_subgroup_title>
dock_pv

> <s_m_subgroupid>
dock_pv1

> <b_m_subgroup_collapsed>
0

$$$$
313778
                    3D
 Schrodinger Suite 2021-1.
 32 35  0  0  1  0            999 V2000
   29.3525   -0.1436   25.9828 C   0  0  0  0  0  0
   29.6000    0.3954   27.2303 C   0  0  0  0  0  0
   30.7832    0.0634   27.9341 C   0  0  0  0  0  0
   31.7290   -0.8384   27.3269 C   0  0  0  0  0  0
   32.9069   -1.1215   28.0801 C   0  0  0  0  0  0
   33.1412   -0.5695   29.3326 C   0  0  0  0  0  0
   32.2168    0.2865   29.9032 C   0  0  0  0  0  0
   31.0481    0.6087   29.2293 C   0  0  0  0  0  0
   30.1700    1.4566   29.8537 O   0  0  0  0  0  0
   31.4565   -1.3982   26.0112 C   0  0  0  0  0  0
   30.2570   -1.0137   25.3998 C   0  0  0  0  0  0
   32.3660   -2.3453   25.2177 C   0  0  0  0  0  0
   32.3908   -2.6866   23.8107 C   0  0  0  0  0  0
   31.6597   -2.3964   22.6629 C   0  0  0  0  0  0
   31.9479   -3.0187   21.4476 C   0  0  0  0  0  0
   33.0285   -3.8805   21.3267 C   0  0  0  0  0  0
   33.8587   -4.1162   22.4108 C   0  0  0  0  0  0
   33.4866   -3.5466   23.6466 C   0  0  0  0  0  0
   34.0530   -3.7411   24.8599 O   0  0  0  0  0  0
   33.2600   -3.0934   25.8174 N   0  0  0  0  0  0
   33.2601   -4.5377   20.1476 O   0  0  0  0  0  0
   28.4427    0.1097   25.4613 H   0  0  0  0  0  0
   28.8733    1.0700   27.6583 H   0  0  0  0  0  0
   33.6636   -1.7753   27.7027 H   0  0  0  0  0  0
   34.0501   -0.8115   29.8639 H   0  0  0  0  0  0
   32.4118    0.7055   30.8802 H   0  0  0  0  0  0
   29.3983    1.6653   29.3272 H   0  0  0  0  0  0
   29.9605   -1.4136   24.4520 H   0  0  0  0  0  0
   30.8235   -1.7422   22.7088 H   0  0  0  0  0  0
   31.3199   -2.8287   20.5898 H   0  0  0  0  0  0
   34.7003   -4.7768   22.2699 H   0  0  0  0  0  0
   32.4990   -5.0811   19.8794 H   0  0  0  0  0  0
  1 11  1  0  0  0
  1  2  2  0  0  0
  1 22  1  0  0  0
  2  3  1  0  0  0
  2 23  1  0  0  0
  3  8  2  0  0  0
  3  4  1  0  0  0
  4  5  2  0  0  0
  4 10  1  0  0  0
  5  6  1  0  0  0
  5 24  1  0  0  0
  6  7  2  0  0  0
  6 25  1  0  0  0
  7  8  1  0  0  0
  7 26  1  0  0  0
  8  9  1  0  0  0
  9 27  1  0  0  0
 10 11  2  0  0  0
 10 12  1  0  0  0
 11 28  1  0  0  0
 12 20  2  0  0  0
 12 13  1  0  0  0
 13 18  2  0  0  0
 13 14  1  0  0  0
 14 15  2  0  0  0
 14 29  1  0  0  0
 15 16  1  0  0  0
 15 30  1  0  0  0
 16 17  2  0  0  0
 16 21  1  0  0  0
 17 18  1  0  0  0
 17 31  1  0  0  0
 18 19  1  0  0  0
 19 20  1  0  0  0
 21 32  1  0  0  0
M  END
> <s_m_entry_id>
17600

> <s_m_entry_name>
ligand_docking-pose.527

> <s_m_Source_Path>
/home/csk/Desktop/cluster/DUD-E-result/esr1

> <s_m_Source_File>
ligand_docking-pose.sdf

> <i_m_Source_File_Index>
527

> <i_lp_mmshare_version>
53161

> <i_f3d_flags>
0

> <r_lp_tautomer_probability>
1

> <s_lp_Force_Field>
OPLS_2005

> <r_lp_Energy>
41.002496

> <b_lp_Chiralities_Consistent>
1

> <s_lp_Variant>
313778-1

> <s_i_glide_gridfile>
glide-grid_1sj0

> <i_i_glide_lignum>
52

> <i_i_glide_rotatable_bonds>
3

> <r_i_docking_score>
-7.74339041632802

> <r_i_glide_ligand_efficiency>
-0.368732876968001

> <r_i_glide_ligand_efficiency_sa>
-1.01730604786118

> <r_i_glide_ligand_efficiency_ln>
-1.91453763344347

> <r_i_glide_gscore>
-7.74339041632802

> <r_i_glide_lipo>
-3.61372873939326

> <r_i_glide_hbond>
-0.16

> <r_i_glide_metal>
0

> <r_i_glide_rewards>
-2.17867888781496

> <r_i_glide_evdw>
-27.8060131072998

> <r_i_glide_ecoul>
-4.23259353637695

> <r_i_glide_erotb>
0.234206896701733

> <r_i_glide_esite>
0

> <r_i_glide_emodel>
-44.6941262691699

> <r_i_glide_energy>
-32.0386066436768

> <r_i_glide_einternal>
3.45709586143494

> <i_i_glide_confnum>
4

> <i_i_glide_posenum>
7

> <r_i_glide_eff_state_penalty>
0

> <s_user_duplicate_titles>
313778

> <s_m_subgroup_title>
dock_pv

> <s_m_subgroupid>
dock_pv1

> <b_m_subgroup_collapsed>
0

$$$$
305923
                    3D
 Schrodinger Suite 2021-1.
 27 29  0  0  1  0            999 V2000
   33.1770   -2.9602   24.9717 C   0  0  0  0  0  0
   33.3798   -3.7419   23.8449 C   0  0  0  0  0  0
   32.6294   -3.5452   22.6993 C   0  0  0  0  0  0
   31.6695   -2.5423   22.6644 C   0  0  0  0  0  0
   31.4673   -1.7384   23.7922 C   0  0  0  0  0  0
   32.2176   -1.9506   24.9544 C   0  0  0  0  0  0
   31.9981   -1.1718   26.2048 C   0  0  0  0  0  0
   32.7281   -1.0894   27.3862 C   0  0  0  0  0  0
   31.9964   -0.2464   28.2666 C   0  0  0  0  0  0
   32.1591    0.2127   29.5807 C   0  0  0  0  0  0
   31.1752    1.0400   30.1219 C   0  0  0  0  0  0
   30.0514    1.4184   29.3808 C   0  0  0  0  0  0
   29.8639    0.9790   28.0679 C   0  0  0  0  0  0
   30.8546    0.1443   27.5330 C   0  0  0  0  0  0
   30.8632   -0.4143   26.2845 O   0  0  0  0  0  0
   28.3117    1.4571   27.0756 Br  0  0  0  0  0  0
   31.3091    1.4548   31.4153 O   0  0  0  0  0  0
   32.8461   -4.3657   21.6234 O   0  0  0  0  0  0
   33.7486   -3.1656   25.8628 H   0  0  0  0  0  0
   34.0603   -4.5679   23.8753 H   0  0  0  0  0  0
   31.0749   -2.4252   21.7731 H   0  0  0  0  0  0
   30.7073   -0.9715   23.7706 H   0  0  0  0  0  0
   33.6598   -1.5921   27.5878 H   0  0  0  0  0  0
   33.0240   -0.0818   30.1560 H   0  0  0  0  0  0
   29.2953    2.0409   29.8371 H   0  0  0  0  0  0
   32.1305    1.1632   31.8127 H   0  0  0  0  0  0
   32.0786   -4.5501   21.0661 H   0  0  0  0  0  0
  1  6  1  0  0  0
  1  2  2  0  0  0
  1 19  1  0  0  0
  2  3  1  0  0  0
  2 20  1  0  0  0
  3  4  2  0  0  0
  3 18  1  0  0  0
  4  5  1  0  0  0
  4 21  1  0  0  0
  5  6  2  0  0  0
  5 22  1  0  0  0
  6  7  1  0  0  0
  7 15  1  0  0  0
  7  8  2  0  0  0
  8  9  1  0  0  0
  8 23  1  0  0  0
  9 14  2  0  0  0
  9 10  1  0  0  0
 10 11  2  0  0  0
 10 24  1  0  0  0
 11 12  1  0  0  0
 11 17  1  0  0  0
 12 13  2  0  0  0
 12 25  1  0  0  0
 13 14  1  0  0  0
 13 16  1  0  0  0
 14 15  1  0  0  0
 17 26  1  0  0  0
 18 27  1  0  0  0
M  END
> <s_m_entry_id>
17601

> <s_m_entry_name>
ligand_docking-pose.528

> <s_m_Source_Path>
/home/csk/Desktop/cluster/DUD-E-result/esr1

> <s_m_Source_File>
ligand_docking-pose.sdf

> <i_m_Source_File_Index>
528

> <i_lp_mmshare_version>
53161

> <i_f3d_flags>
0

> <r_lp_tautomer_probability>
0.999999999997365

> <s_lp_Force_Field>
OPLS_2005

> <r_lp_Energy>
8.327395

> <b_lp_Chiralities_Consistent>
1

> <s_lp_Variant>
305923-1

> <s_i_glide_gridfile>
glide-grid_1sj0

> <i_i_glide_lignum>
240

> <i_i_glide_rotatable_bonds>
3

> <r_i_docking_score>
-7.74053804422631

> <r_i_glide_ligand_efficiency>
-0.430029891345906

> <r_i_glide_ligand_efficiency_sa>
-1.12699713591156

> <r_i_glide_ligand_efficiency_ln>
-1.98966539085001

> <r_i_glide_gscore>
-7.74053804422631

> <r_i_glide_lipo>
-4.05414985846125

> <r_i_glide_hbond>
-0.0731581086023508

> <r_i_glide_metal>
0

> <r_i_glide_rewards>
-2.04191554725872

> <r_i_glide_evdw>
-30.3360080718994

> <r_i_glide_ecoul>
-1.68475914001465

> <r_i_glide_erotb>
0.198199744693181

> <r_i_glide_esite>
0

> <r_i_glide_emodel>
-46.7631520847906

> <r_i_glide_energy>
-32.0207672119141

> <r_i_glide_einternal>
1.45977795124054

> <i_i_glide_confnum>
1

> <i_i_glide_posenum>
324

> <r_i_glide_eff_state_penalty>
0

> <s_user_duplicate_titles>
305923

> <s_m_subgroup_title>
dock_pv

> <s_m_subgroupid>
dock_pv1

> <b_m_subgroup_collapsed>
0

$$$$
339231
                    3D
 Schrodinger Suite 2021-1.
 44 46  0  0  1  0            999 V2000
   32.9547   -3.1628   24.4298 C   0  0  0  0  0  0
   32.4419   -2.0219   23.8227 C   0  0  0  0  0  0
   31.8293   -1.0452   24.6038 C   0  0  0  0  0  0
   31.7088   -1.2101   25.9869 C   0  0  0  0  0  0
   32.1916   -2.3834   26.5774 C   0  0  0  0  0  0
   32.8349   -3.3420   25.8048 C   0  0  0  0  0  0
   31.1363   -0.1698   26.7514 N   0  0  0  0  0  0
   31.7784    0.3167   27.9877 C   0  0  0  0  0  0
   31.1350   -0.2937   29.2490 C   0  0  0  0  0  0
   31.6995    0.3769   30.5123 C   0  0  0  0  0  0
   33.2313    0.2584   30.5529 C   0  0  0  0  0  0
   33.9248    0.7825   29.2796 C   0  0  0  0  0  0
   33.3262    0.1738   28.0034 C   0  0  0  0  0  0
   29.4204    0.3120   26.5009 S   0  0  0  0  0  0
   29.1900    1.5541   27.2491 O   0  0  0  0  0  0
   29.1650    0.2573   25.0642 O   0  0  0  0  0  0
   28.3303   -0.9250   27.1881 C   0  0  0  0  0  0
   27.0997   -0.5139   27.6998 C   0  0  0  0  0  0
   26.1940   -1.4601   28.1619 C   0  0  0  0  0  0
   26.5159   -2.8149   28.1006 C   0  0  0  0  0  0
   27.7325   -3.2310   27.5697 C   0  0  0  0  0  0
   28.6417   -2.2821   27.1122 C   0  0  0  0  0  0
   25.6589   -3.7377   28.6272 O   0  0  0  0  0  0
   33.4433   -3.9170   23.8293 H   0  0  0  0  0  0
   32.5346   -1.8874   22.7548 H   0  0  0  0  0  0
   31.4719   -0.1430   24.1318 H   0  0  0  0  0  0
   32.1013   -2.5447   27.6394 H   0  0  0  0  0  0
   33.2276   -4.2343   26.2689 H   0  0  0  0  0  0
   31.5764    1.3895   27.9979 H   0  0  0  0  0  0
   30.0590   -0.1460   29.2308 H   0  0  0  0  0  0
   31.2954   -1.3702   29.2983 H   0  0  0  0  0  0
   31.4118    1.4292   30.5350 H   0  0  0  0  0  0
   31.2686   -0.0793   31.4034 H   0  0  0  0  0  0
   33.6234    0.7739   31.4307 H   0  0  0  0  0  0
   33.4884   -0.7952   30.6644 H   0  0  0  0  0  0
   33.8218    1.8580   29.2274 H   0  0  0  0  0  0
   34.9967    0.5845   29.3266 H   0  0  0  0  0  0
   33.6473   -0.8652   27.9699 H   0  0  0  0  0  0
   33.7562    0.6583   27.1255 H   0  0  0  0  0  0
   26.8407    0.5351   27.7353 H   0  0  0  0  0  0
   25.2602   -1.1341   28.5877 H   0  0  0  0  0  0
   27.9776   -4.2819   27.5175 H   0  0  0  0  0  0
   29.5699   -2.6170   26.6810 H   0  0  0  0  0  0
   25.1401   -4.1464   27.9242 H   0  0  0  0  0  0
  1  6  1  0  0  0
  1  2  2  0  0  0
  1 24  1  0  0  0
  2  3  1  0  0  0
  2 25  1  0  0  0
  3  4  2  0  0  0
  3 26  1  0  0  0
  4  5  1  0  0  0
  4  7  1  0  0  0
  5  6  2  0  0  0
  5 27  1  0  0  0
  6 28  1  0  0  0
  7  8  1  0  0  0
  7 14  1  0  0  0
  8 13  1  0  0  0
  8  9  1  0  0  0
  8 29  1  0  0  0
  9 10  1  0  0  0
  9 30  1  0  0  0
  9 31  1  0  0  0
 10 11  1  0  0  0
 10 32  1  0  0  0
 10 33  1  0  0  0
 11 12  1  0  0  0
 11 34  1  0  0  0
 11 35  1  0  0  0
 12 13  1  0  0  0
 12 36  1  0  0  0
 12 37  1  0  0  0
 13 38  1  0  0  0
 13 39  1  0  0  0
 14 15  2  0  0  0
 14 16  2  0  0  0
 14 17  1  0  0  0
 17 22  1  0  0  0
 17 18  2  0  0  0
 18 19  1  0  0  0
 18 40  1  0  0  0
 19 20  2  0  0  0
 19 41  1  0  0  0
 20 21  1  0  0  0
 20 23  1  0  0  0
 21 22  2  0  0  0
 21 42  1  0  0  0
 22 43  1  0  0  0
 23 44  1  0  0  0
M  END
> <s_m_entry_id>
17602

> <s_m_entry_name>
ligand_docking-pose.529

> <s_m_Source_Path>
/home/csk/Desktop/cluster/DUD-E-result/esr1

> <s_m_Source_File>
ligand_docking-pose.sdf

> <i_m_Source_File_Index>
529

> <i_lp_mmshare_version>
53161

> <i_f3d_flags>
0

> <r_lp_tautomer_probability>
0.999999999997365

> <s_lp_Force_Field>
OPLS_2005

> <r_lp_Energy>
19.648894

> <b_lp_Chiralities_Consistent>
1

> <s_lp_Variant>
339231-1

> <s_i_glide_gridfile>
glide-grid_1sj0

> <i_i_glide_lignum>
630

> <i_i_glide_rotatable_bonds>
5

> <r_i_docking_score>
-7.73926936215617

> <r_i_glide_ligand_efficiency>
-0.33648997226766

> <r_i_glide_ligand_efficiency_sa>
-0.956932720183014

> <r_i_glide_ligand_efficiency_ln>
-1.87142550758407

> <r_i_glide_gscore>
-7.73926936215617

> <r_i_glide_lipo>
-4.34216153729677

> <r_i_glide_hbond>
0

> <r_i_glide_metal>
0

> <r_i_glide_rewards>
-1.53265128793053

> <r_i_glide_evdw>
-40.8696823120117

> <r_i_glide_ecoul>
-3.37559795379639

> <r_i_glide_erotb>
0.685367271741168

> <r_i_glide_esite>
0

> <r_i_glide_emodel>
-51.427885354357

> <r_i_glide_energy>
-44.2452802658081

> <r_i_glide_einternal>
6.52850294113159

> <i_i_glide_confnum>
1

> <i_i_glide_posenum>
398

> <r_i_glide_eff_state_penalty>
0

> <s_user_duplicate_titles>
339231

> <s_m_subgroup_title>
dock_pv

> <s_m_subgroupid>
dock_pv1

> <b_m_subgroup_collapsed>
0

$$$$
338786
                    3D
 Schrodinger Suite 2021-1.
 38 39  0  0  1  0            999 V2000
   34.0552    1.4621   27.7251 C   0  0  0  0  0  0
   32.7282    1.2918   26.9739 C   0  0  0  0  0  0
   32.0635    0.0317   27.3152 N   0  0  0  0  0  0
   32.2493   -1.0849   26.4835 C   0  0  0  0  0  0
   32.6866   -2.2900   27.0367 C   0  0  0  0  0  0
   32.9155   -3.3908   26.2218 C   0  0  0  0  0  0
   32.7481   -3.2920   24.8433 C   0  0  0  0  0  0
   32.2762   -2.1056   24.2715 C   0  0  0  0  0  0
   32.0194   -1.0163   25.1042 C   0  0  0  0  0  0
   32.0539   -1.9364   22.9222 O   0  0  0  0  0  0
   32.2877   -3.0218   22.0277 C   0  0  0  0  0  0
   30.9414   -0.0051   28.7025 S   0  0  0  0  0  0
   30.9413    1.3273   29.3202 O   0  0  0  0  0  0
   31.2604   -1.1958   29.4978 O   0  0  0  0  0  0
   29.3188   -0.2889   28.0035 C   0  0  0  0  0  0
   28.4412    0.7847   27.8641 C   0  0  0  0  0  0
   27.1410    0.5529   27.4340 C   0  0  0  0  0  0
   26.7328   -0.7353   27.0868 C   0  0  0  0  0  0
   27.6278   -1.8028   27.1716 C   0  0  0  0  0  0
   28.9242   -1.5809   27.6395 C   0  0  0  0  0  0
   25.4453   -0.9430   26.6638 O   0  0  0  0  0  0
   34.5337    2.4059   27.4622 H   0  0  0  0  0  0
   33.9027    1.4596   28.8055 H   0  0  0  0  0  0
   34.7532    0.6609   27.4815 H   0  0  0  0  0  0
   32.9336    1.3542   25.9047 H   0  0  0  0  0  0
   32.0750    2.1269   27.2258 H   0  0  0  0  0  0
   32.8791   -2.3785   28.0947 H   0  0  0  0  0  0
   33.2597   -4.3182   26.6550 H   0  0  0  0  0  0
   32.9878   -4.1418   24.2290 H   0  0  0  0  0  0
   31.6559   -0.1046   24.6588 H   0  0  0  0  0  0
   32.0444   -2.7089   21.0123 H   0  0  0  0  0  0
   33.3339   -3.3307   22.0320 H   0  0  0  0  0  0
   31.6633   -3.8844   22.2607 H   0  0  0  0  0  0
   28.7410    1.7878   28.1332 H   0  0  0  0  0  0
   26.4553    1.3803   27.3613 H   0  0  0  0  0  0
   27.3206   -2.8012   26.8919 H   0  0  0  0  0  0
   29.6116   -2.4093   27.7313 H   0  0  0  0  0  0
   25.2699   -1.8318   26.3167 H   0  0  0  0  0  0
  1  2  1  0  0  0
  1 22  1  0  0  0
  1 23  1  0  0  0
  1 24  1  0  0  0
  2  3  1  0  0  0
  2 25  1  0  0  0
  2 26  1  0  0  0
  3  4  1  0  0  0
  3 12  1  0  0  0
  4  9  1  0  0  0
  4  5  2  0  0  0
  5  6  1  0  0  0
  5 27  1  0  0  0
  6  7  2  0  0  0
  6 28  1  0  0  0
  7  8  1  0  0  0
  7 29  1  0  0  0
  8  9  2  0  0  0
  8 10  1  0  0  0
  9 30  1  0  0  0
 10 11  1  0  0  0
 11 31  1  0  0  0
 11 32  1  0  0  0
 11 33  1  0  0  0
 12 13  2  0  0  0
 12 14  2  0  0  0
 12 15  1  0  0  0
 15 20  1  0  0  0
 15 16  2  0  0  0
 16 17  1  0  0  0
 16 34  1  0  0  0
 17 18  2  0  0  0
 17 35  1  0  0  0
 18 19  1  0  0  0
 18 21  1  0  0  0
 19 20  2  0  0  0
 19 36  1  0  0  0
 20 37  1  0  0  0
 21 38  1  0  0  0
M  END
> <s_m_entry_id>
17603

> <s_m_entry_name>
ligand_docking-pose.530

> <s_m_Source_Path>
/home/csk/Desktop/cluster/DUD-E-result/esr1

> <s_m_Source_File>
ligand_docking-pose.sdf

> <i_m_Source_File_Index>
530

> <i_lp_mmshare_version>
53161

> <i_f3d_flags>
0

> <r_lp_tautomer_probability>
0.999999999997365

> <s_lp_Force_Field>
OPLS_2005

> <r_lp_Energy>
12.70731

> <b_lp_Chiralities_Consistent>
1

> <s_lp_Variant>
338786-1

> <s_i_glide_gridfile>
glide-grid_1sj0

> <i_i_glide_lignum>
1622

> <i_i_glide_rotatable_bonds>
6

> <r_i_docking_score>
-7.73635375880601

> <r_i_glide_ligand_efficiency>
-0.368397798038381

> <r_i_glide_ligand_efficiency_sa>
-1.01638159050219

> <r_i_glide_ligand_efficiency_ln>
-1.91279783409006

> <r_i_glide_gscore>
-7.73635375880601

> <r_i_glide_lipo>
-3.87902335041565

> <r_i_glide_hbond>
-0.158594858504888

> <r_i_glide_metal>
0

> <r_i_glide_rewards>
-1.50521317778729

> <r_i_glide_evdw>
-39.3624992370605

> <r_i_glide_ecoul>
-4.24204063415527

> <r_i_glide_erotb>
0.410908684878135

> <r_i_glide_esite>
0

> <r_i_glide_emodel>
-60.4057383359014

> <r_i_glide_energy>
-43.6045398712158

> <r_i_glide_einternal>
6.1708869934082

> <i_i_glide_confnum>
12

> <i_i_glide_posenum>
179

> <r_i_glide_eff_state_penalty>
0

> <s_user_duplicate_titles>
338786

> <s_m_subgroup_title>
dock_pv

> <s_m_subgroupid>
dock_pv1

> <b_m_subgroup_collapsed>
0

$$$$
338935
                    3D
 Schrodinger Suite 2021-1.
 34 35  0  0  1  0            999 V2000
   33.4767    1.8211   27.5982 C   0  0  0  0  0  0
   32.3439    1.1860   26.7785 C   0  0  0  0  0  0
   32.0604   -0.1937   27.1808 N   0  0  0  0  0  0
   32.1567   -1.1860   26.1882 C   0  0  0  0  0  0
   31.5862   -1.0176   24.9202 C   0  0  0  0  0  0
   31.7655   -1.9867   23.9378 C   0  0  0  0  0  0
   32.4971   -3.1350   24.2263 C   0  0  0  0  0  0
   33.0351   -3.3274   25.4951 C   0  0  0  0  0  0
   32.8594   -2.3576   26.4772 C   0  0  0  0  0  0
   30.9519   -0.4342   28.5608 S   0  0  0  0  0  0
   30.9885    0.7784   29.3883 O   0  0  0  0  0  0
   31.2753   -1.7415   29.1380 O   0  0  0  0  0  0
   29.2949   -0.5744   27.8912 C   0  0  0  0  0  0
   28.4621    0.5457   27.8643 C   0  0  0  0  0  0
   27.1365    0.4072   27.4639 C   0  0  0  0  0  0
   26.6576   -0.8379   27.0624 C   0  0  0  0  0  0
   27.4991   -1.9487   27.0438 C   0  0  0  0  0  0
   28.8223   -1.8186   27.4615 C   0  0  0  0  0  0
   25.3549   -0.9590   26.6582 O   0  0  0  0  0  0
   33.6643    2.8433   27.2683 H   0  0  0  0  0  0
   33.2407    1.8579   28.6619 H   0  0  0  0  0  0
   34.4076    1.2636   27.4810 H   0  0  0  0  0  0
   32.6614    1.2283   25.7354 H   0  0  0  0  0  0
   31.4367    1.7830   26.8717 H   0  0  0  0  0  0
   31.0092   -0.1375   24.6883 H   0  0  0  0  0  0
   31.3364   -1.8544   22.9564 H   0  0  0  0  0  0
   32.6370   -3.8879   23.4633 H   0  0  0  0  0  0
   33.5949   -4.2206   25.7176 H   0  0  0  0  0  0
   33.2860   -2.5065   27.4585 H   0  0  0  0  0  0
   28.8225    1.5098   28.1938 H   0  0  0  0  0  0
   26.4766    1.2630   27.4615 H   0  0  0  0  0  0
   27.1281   -2.9106   26.7173 H   0  0  0  0  0  0
   29.4680   -2.6864   27.4719 H   0  0  0  0  0  0
   25.1647   -1.8286   26.2669 H   0  0  0  0  0  0
  1  2  1  0  0  0
  1 20  1  0  0  0
  1 21  1  0  0  0
  1 22  1  0  0  0
  2  3  1  0  0  0
  2 23  1  0  0  0
  2 24  1  0  0  0
  3  4  1  0  0  0
  3 10  1  0  0  0
  4  9  1  0  0  0
  4  5  2  0  0  0
  5  6  1  0  0  0
  5 25  1  0  0  0
  6  7  2  0  0  0
  6 26  1  0  0  0
  7  8  1  0  0  0
  7 27  1  0  0  0
  8  9  2  0  0  0
  8 28  1  0  0  0
  9 29  1  0  0  0
 10 11  2  0  0  0
 10 12  2  0  0  0
 10 13  1  0  0  0
 13 18  1  0  0  0
 13 14  2  0  0  0
 14 15  1  0  0  0
 14 30  1  0  0  0
 15 16  2  0  0  0
 15 31  1  0  0  0
 16 17  1  0  0  0
 16 19  1  0  0  0
 17 18  2  0  0  0
 17 32  1  0  0  0
 18 33  1  0  0  0
 19 34  1  0  0  0
M  END
> <s_m_entry_id>
17604

> <s_m_entry_name>
ligand_docking-pose.531

> <s_m_Source_Path>
/home/csk/Desktop/cluster/DUD-E-result/esr1

> <s_m_Source_File>
ligand_docking-pose.sdf

> <i_m_Source_File_Index>
531

> <i_lp_mmshare_version>
53161

> <i_f3d_flags>
0

> <r_lp_tautomer_probability>
0.999999999997365

> <s_lp_Force_Field>
OPLS_2005

> <r_lp_Energy>
11.843991

> <b_lp_Chiralities_Consistent>
1

> <s_lp_Variant>
338935-1

> <s_i_glide_gridfile>
glide-grid_1sj0

> <i_i_glide_lignum>
1626

> <i_i_glide_rotatable_bonds>
5

> <r_i_docking_score>
-7.72978289382592

> <r_i_glide_ligand_efficiency>
-0.406830678622417

> <r_i_glide_ligand_efficiency_sa>
-1.08558765252124

> <r_i_glide_ligand_efficiency_ln>
-1.95966598409881

> <r_i_glide_gscore>
-7.72978289382592

> <r_i_glide_lipo>
-3.64134027770059

> <r_i_glide_hbond>
-0.16

> <r_i_glide_metal>
0

> <r_i_glide_rewards>
-2.05884077584012

> <r_i_glide_evdw>
-35.8891983032227

> <r_i_glide_ecoul>
-3.7784960269928

> <r_i_glide_erotb>
0.491632478924841

> <r_i_glide_esite>
0

> <r_i_glide_emodel>
-52.5023056183873

> <r_i_glide_energy>
-39.6676943302155

> <r_i_glide_einternal>
5.64551591873169

> <i_i_glide_confnum>
2

> <i_i_glide_posenum>
182

> <r_i_glide_eff_state_penalty>
0

> <s_user_duplicate_titles>
338935

> <s_m_subgroup_title>
dock_pv

> <s_m_subgroupid>
dock_pv1

> <b_m_subgroup_collapsed>
0

$$$$
308635
                    3D
 Schrodinger Suite 2021-1.
 32 34  0  0  1  0            999 V2000
   28.2678    1.5857   27.3552 C   0  0  0  0  0  0
   29.1278    0.5434   26.6370 C   0  0  0  0  0  0
   28.8600    0.2625   25.4705 O   0  0  0  0  0  0
   30.2735   -0.0773   27.3643 C   0  0  0  0  0  0
   30.4989    0.1759   28.7295 C   0  0  0  0  0  0
   31.5379   -0.4269   29.4412 C   0  0  0  0  0  0
   32.3997   -1.3397   28.8382 C   0  0  0  0  0  0
   32.2234   -1.6164   27.4778 C   0  0  0  0  0  0
   31.1901   -0.9646   26.7683 C   0  0  0  0  0  0
   31.2322   -1.3098   25.4459 O   0  0  0  0  0  0
   32.2703   -2.1819   25.2919 C   0  0  0  0  0  0
   32.8518   -2.4601   26.5193 C   0  0  0  0  0  0
   32.5612   -2.6559   23.9094 C   0  0  0  0  0  0
   31.6602   -2.4192   22.8732 C   0  0  0  0  0  0
   31.8778   -2.9428   21.6008 C   0  0  0  0  0  0
   33.0396   -3.6616   21.3490 C   0  0  0  0  0  0
   33.9788   -3.8385   22.3527 C   0  0  0  0  0  0
   33.7378   -3.3501   23.6358 C   0  0  0  0  0  0
   33.2599   -4.2223   20.1213 O   0  0  0  0  0  0
   31.7158   -0.1225   30.7602 O   0  0  0  0  0  0
   28.8901    2.2591   27.9445 H   0  0  0  0  0  0
   27.7287    2.2083   26.6376 H   0  0  0  0  0  0
   27.5500    1.0972   28.0146 H   0  0  0  0  0  0
   29.8609    0.8506   29.2820 H   0  0  0  0  0  0
   33.1926   -1.8161   29.3956 H   0  0  0  0  0  0
   33.6597   -3.1498   26.6836 H   0  0  0  0  0  0
   30.7724   -1.8388   23.0662 H   0  0  0  0  0  0
   31.1511   -2.7895   20.8165 H   0  0  0  0  0  0
   34.8612   -4.4120   22.1333 H   0  0  0  0  0  0
   34.4586   -3.5337   24.4177 H   0  0  0  0  0  0
   32.5196   -4.7923   19.8637 H   0  0  0  0  0  0
   32.4970   -0.5469   31.1218 H   0  0  0  0  0  0
  1  2  1  0  0  0
  1 21  1  0  0  0
  1 22  1  0  0  0
  1 23  1  0  0  0
  2  3  2  0  0  0
  2  4  1  0  0  0
  4  9  1  0  0  0
  4  5  2  0  0  0
  5  6  1  0  0  0
  5 24  1  0  0  0
  6  7  2  0  0  0
  6 20  1  0  0  0
  7  8  1  0  0  0
  7 25  1  0  0  0
  8 12  1  0  0  0
  8  9  2  0  0  0
  9 10  1  0  0  0
 10 11  1  0  0  0
 11 12  2  0  0  0
 11 13  1  0  0  0
 12 26  1  0  0  0
 13 18  1  0  0  0
 13 14  2  0  0  0
 14 15  1  0  0  0
 14 27  1  0  0  0
 15 16  2  0  0  0
 15 28  1  0  0  0
 16 17  1  0  0  0
 16 19  1  0  0  0
 17 18  2  0  0  0
 17 29  1  0  0  0
 18 30  1  0  0  0
 19 31  1  0  0  0
 20 32  1  0  0  0
M  END
> <s_m_entry_id>
17605

> <s_m_entry_name>
ligand_docking-pose.532

> <s_m_Source_Path>
/home/csk/Desktop/cluster/DUD-E-result/esr1

> <s_m_Source_File>
ligand_docking-pose.sdf

> <i_m_Source_File_Index>
532

> <i_lp_mmshare_version>
53161

> <i_f3d_flags>
0

> <r_lp_tautomer_probability>
0.999949999997365

> <s_lp_Force_Field>
OPLS_2005

> <r_lp_Energy>
16.425531

> <b_lp_Chiralities_Consistent>
1

> <s_lp_Variant>
308635-1

> <s_i_glide_gridfile>
glide-grid_1sj0

> <i_i_glide_lignum>
1640

> <i_i_glide_rotatable_bonds>
4

> <r_i_docking_score>
-7.72457338531531

> <r_i_glide_ligand_efficiency>
-0.386228669265765

> <r_i_glide_ligand_efficiency_sa>
-1.04838590284211

> <r_i_glide_ligand_efficiency_ln>
-1.93320594486295

> <r_i_glide_gscore>
-7.72457338531531

> <r_i_glide_lipo>
-3.26381640573516

> <r_i_glide_hbond>
-0.16

> <r_i_glide_metal>
0

> <r_i_glide_rewards>
-2.47771565285226

> <r_i_glide_evdw>
-32.3465576171875

> <r_i_glide_ecoul>
-3.0247278213501

> <r_i_glide_erotb>
0.247995727333995

> <r_i_glide_esite>
0

> <r_i_glide_emodel>
-49.8595023808844

> <r_i_glide_energy>
-35.3712854385376

> <r_i_glide_einternal>
2.84270763397217

> <i_i_glide_confnum>
2

> <i_i_glide_posenum>
270

> <r_i_glide_eff_state_penalty>
0

> <s_user_duplicate_titles>
308635

> <s_m_subgroup_title>
dock_pv

> <s_m_subgroupid>
dock_pv1

> <b_m_subgroup_collapsed>
0

$$$$
322741
                    3D
 Schrodinger Suite 2021-1.
 34 36  0  0  1  0            999 V2000
   34.1363    2.2512   26.8919 C   0  0  0  0  0  0
   33.3465    1.0785   26.7361 O   0  0  0  0  0  0
   32.7473    0.4975   27.8402 C   0  0  0  0  0  0
   32.8702    1.0047   29.1428 C   0  0  0  0  0  0
   32.1932    0.4147   30.2051 C   0  0  0  0  0  0
   31.4061   -0.7101   29.9802 C   0  0  0  0  0  0
   31.2998   -1.2475   28.6991 C   0  0  0  0  0  0
   31.9699   -0.6532   27.6263 C   0  0  0  0  0  0
   31.8746   -1.2454   26.2741 C   0  0  0  0  0  0
   30.8580   -0.8674   25.4060 C   0  0  0  0  0  0
   30.8303   -1.3420   24.0996 C   0  0  0  0  0  0
   31.8295   -2.2146   23.6069 C   0  0  0  0  0  0
   31.8085   -2.7603   22.2887 C   0  0  0  0  0  0
   32.8601   -3.5574   21.8402 C   0  0  0  0  0  0
   33.9479   -3.7866   22.6640 C   0  0  0  0  0  0
   33.9563   -3.3420   23.9865 C   0  0  0  0  0  0
   32.8887   -2.5711   24.4859 C   0  0  0  0  0  0
   32.8601   -2.1223   25.8281 C   0  0  0  0  0  0
   32.8600   -4.1358   20.5954 O   0  0  0  0  0  0
   32.2957    0.9481   31.4617 O   0  0  0  0  0  0
   34.4598    2.5914   25.9088 H   0  0  0  0  0  0
   33.5703    3.0646   27.3475 H   0  0  0  0  0  0
   35.0299    2.0539   27.4865 H   0  0  0  0  0  0
   33.4922    1.8580   29.3364 H   0  0  0  0  0  0
   30.8801   -1.1755   30.8010 H   0  0  0  0  0  0
   30.6966   -2.1303   28.5409 H   0  0  0  0  0  0
   30.0915   -0.1820   25.7392 H   0  0  0  0  0  0
   30.0183   -1.0387   23.4639 H   0  0  0  0  0  0
   30.9800   -2.5426   21.6318 H   0  0  0  0  0  0
   34.7624   -4.3748   22.2640 H   0  0  0  0  0  0
   34.7735   -3.5799   24.6526 H   0  0  0  0  0  0
   33.6603   -2.4046   26.4941 H   0  0  0  0  0  0
   32.1110   -4.7281   20.4085 H   0  0  0  0  0  0
   32.8658    1.7187   31.4812 H   0  0  0  0  0  0
  1  2  1  0  0  0
  1 21  1  0  0  0
  1 22  1  0  0  0
  1 23  1  0  0  0
  2  3  1  0  0  0
  3  8  1  0  0  0
  3  4  2  0  0  0
  4  5  1  0  0  0
  4 24  1  0  0  0
  5  6  2  0  0  0
  5 20  1  0  0  0
  6  7  1  0  0  0
  6 25  1  0  0  0
  7  8  2  0  0  0
  7 26  1  0  0  0
  8  9  1  0  0  0
  9 18  1  0  0  0
  9 10  2  0  0  0
 10 11  1  0  0  0
 10 27  1  0  0  0
 11 12  2  0  0  0
 11 28  1  0  0  0
 12 17  1  0  0  0
 12 13  1  0  0  0
 13 14  2  0  0  0
 13 29  1  0  0  0
 14 15  1  0  0  0
 14 19  1  0  0  0
 15 16  2  0  0  0
 15 30  1  0  0  0
 16 17  1  0  0  0
 16 31  1  0  0  0
 17 18  2  0  0  0
 18 32  1  0  0  0
 19 33  1  0  0  0
 20 34  1  0  0  0
M  END
> <s_m_entry_id>
17606

> <s_m_entry_name>
ligand_docking-pose.533

> <s_m_Source_Path>
/home/csk/Desktop/cluster/DUD-E-result/esr1

> <s_m_Source_File>
ligand_docking-pose.sdf

> <i_m_Source_File_Index>
533

> <i_lp_mmshare_version>
53161

> <i_f3d_flags>
0

> <r_lp_tautomer_probability>
1

> <s_lp_Force_Field>
OPLS_2005

> <r_lp_Energy>
21.279253

> <b_lp_Chiralities_Consistent>
1

> <s_lp_Variant>
322741-1

> <s_i_glide_gridfile>
glide-grid_1sj0

> <i_i_glide_lignum>
1783

> <i_i_glide_rotatable_bonds>
4

> <r_i_docking_score>
-7.71865997669746

> <r_i_glide_ligand_efficiency>
-0.385932998834873

> <r_i_glide_ligand_efficiency_sa>
-1.04758332981659

> <r_i_glide_ligand_efficiency_ln>
-1.93172601372317

> <r_i_glide_gscore>
-7.71865997669746

> <r_i_glide_lipo>
-3.88163907095462

> <r_i_glide_hbond>
-0.16

> <r_i_glide_metal>
0

> <r_i_glide_rewards>
-1.96545612847495

> <r_i_glide_evdw>
-29.266637802124

> <r_i_glide_ecoul>
-3.32940983772278

> <r_i_glide_erotb>
0.251178588496727

> <r_i_glide_esite>
0

> <r_i_glide_emodel>
-43.518928146895

> <r_i_glide_energy>
-32.5960476398468

> <r_i_glide_einternal>
6.84575986862183

> <i_i_glide_confnum>
2

> <i_i_glide_posenum>
279

> <r_i_glide_eff_state_penalty>
0

> <s_user_duplicate_titles>
322741

> <s_m_subgroup_title>
dock_pv

> <s_m_subgroupid>
dock_pv1

> <b_m_subgroup_collapsed>
0

$$$$
339401
                    3D
 Schrodinger Suite 2021-1.
 35 36  0  0  1  0            999 V2000
   34.4615    1.0559   28.4720 C   0  0  0  0  0  0
   33.6899    1.7124   27.5891 C   0  0  0  0  0  0
   32.4248    1.1812   26.9330 C   0  0  0  0  0  0
   32.0156   -0.1873   27.2603 N   0  0  0  0  0  0
   32.1177   -1.1561   26.2495 C   0  0  0  0  0  0
   31.5131   -0.9609   25.0033 C   0  0  0  0  0  0
   31.6955   -1.8922   23.9876 C   0  0  0  0  0  0
   32.4631   -3.0278   24.2236 C   0  0  0  0  0  0
   33.0359   -3.2502   25.4731 C   0  0  0  0  0  0
   32.8586   -2.3154   26.4897 C   0  0  0  0  0  0
   30.8922   -0.4067   28.6230 S   0  0  0  0  0  0
   30.9889    0.7828   29.4789 O   0  0  0  0  0  0
   31.1482   -1.7421   29.1685 O   0  0  0  0  0  0
   29.2374   -0.4401   27.9341 C   0  0  0  0  0  0
   28.5032    0.7436   27.8639 C   0  0  0  0  0  0
   27.1723    0.7023   27.4639 C   0  0  0  0  0  0
   26.5861   -0.5126   27.1111 C   0  0  0  0  0  0
   27.3336   -1.6878   27.1251 C   0  0  0  0  0  0
   28.6650   -1.6539   27.5375 C   0  0  0  0  0  0
   25.2638   -0.5420   26.7542 O   0  0  0  0  0  0
   35.3483    1.5168   28.8838 H   0  0  0  0  0  0
   34.2265    0.0530   28.7978 H   0  0  0  0  0  0
   33.9764    2.7140   27.3023 H   0  0  0  0  0  0
   32.6142    1.2623   25.8641 H   0  0  0  0  0  0
   31.5939    1.8580   27.1275 H   0  0  0  0  0  0
   30.9116   -0.0859   24.8152 H   0  0  0  0  0  0
   31.2441   -1.7412   23.0207 H   0  0  0  0  0  0
   32.6033   -3.7519   23.4336 H   0  0  0  0  0  0
   33.6196   -4.1419   25.6482 H   0  0  0  0  0  0
   33.3100   -2.4814   27.4572 H   0  0  0  0  0  0
   28.9419    1.6829   28.1693 H   0  0  0  0  0  0
   26.5908    1.6115   27.4617 H   0  0  0  0  0  0
   26.8750   -2.6228   26.8330 H   0  0  0  0  0  0
   29.2349   -2.5718   27.5788 H   0  0  0  0  0  0
   24.8881    0.3425   26.6639 H   0  0  0  0  0  0
  1  2  2  0  0  0
  1 21  1  0  0  0
  1 22  1  0  0  0
  2  3  1  0  0  0
  2 23  1  0  0  0
  3  4  1  0  0  0
  3 24  1  0  0  0
  3 25  1  0  0  0
  4  5  1  0  0  0
  4 11  1  0  0  0
  5 10  1  0  0  0
  5  6  2  0  0  0
  6  7  1  0  0  0
  6 26  1  0  0  0
  7  8  2  0  0  0
  7 27  1  0  0  0
  8  9  1  0  0  0
  8 28  1  0  0  0
  9 10  2  0  0  0
  9 29  1  0  0  0
 10 30  1  0  0  0
 11 12  2  0  0  0
 11 13  2  0  0  0
 11 14  1  0  0  0
 14 19  1  0  0  0
 14 15  2  0  0  0
 15 16  1  0  0  0
 15 31  1  0  0  0
 16 17  2  0  0  0
 16 32  1  0  0  0
 17 18  1  0  0  0
 17 20  1  0  0  0
 18 19  2  0  0  0
 18 33  1  0  0  0
 19 34  1  0  0  0
 20 35  1  0  0  0
M  END
> <s_m_entry_id>
17607

> <s_m_entry_name>
ligand_docking-pose.534

> <s_m_Source_Path>
/home/csk/Desktop/cluster/DUD-E-result/esr1

> <s_m_Source_File>
ligand_docking-pose.sdf

> <i_m_Source_File_Index>
534

> <i_lp_mmshare_version>
53161

> <i_f3d_flags>
0

> <r_lp_tautomer_probability>
0.999999999997365

> <s_lp_Force_Field>
OPLS_2005

> <r_lp_Energy>
8.374308

> <b_lp_Chiralities_Consistent>
1

> <s_lp_Variant>
339401-1

> <s_i_glide_gridfile>
glide-grid_1sj0

> <i_i_glide_lignum>
1540

> <i_i_glide_rotatable_bonds>
6

> <r_i_docking_score>
-7.7118112932481

> <r_i_glide_ligand_efficiency>
-0.385590564662405

> <r_i_glide_ligand_efficiency_sa>
-1.04665382046725

> <r_i_glide_ligand_efficiency_ln>
-1.93001201414049

> <r_i_glide_gscore>
-7.7118112932481

> <r_i_glide_lipo>
-4.06746982758645

> <r_i_glide_hbond>
-0.32

> <r_i_glide_metal>
0

> <r_i_glide_rewards>
-1.95832668575509

> <r_i_glide_evdw>
-39.5582695007324

> <r_i_glide_ecoul>
-3.16970467567444

> <r_i_glide_erotb>
1.08735439648122

> <r_i_glide_esite>
0

> <r_i_glide_emodel>
-60.3651392111418

> <r_i_glide_energy>
-42.7279741764069

> <r_i_glide_einternal>
4.5109486579895

> <i_i_glide_confnum>
14

> <i_i_glide_posenum>
322

> <r_i_glide_eff_state_penalty>
0

> <s_user_duplicate_titles>
339401

> <s_m_subgroup_title>
dock_pv

> <s_m_subgroupid>
dock_pv1

> <b_m_subgroup_collapsed>
0

$$$$
318911
                    3D
 Schrodinger Suite 2021-1.
 31 33  0  0  1  0            999 V2000
   33.5626   -1.4721   27.8027 C   0  0  0  0  0  0
   32.1950   -1.0482   27.3554 C   0  0  0  0  0  0
   31.5035   -1.2115   26.2031 C   0  0  0  0  0  0
   30.2039   -0.5370   26.3050 C   0  0  0  0  0  0
   29.3076   -0.5286   25.4640 O   0  0  0  0  0  0
   30.2471    0.1252   27.6132 C   0  0  0  0  0  0
   31.4221   -0.2288   28.2457 C   0  0  0  0  0  0
   31.7214    0.2163   29.5287 C   0  0  0  0  0  0
   30.8317    1.0580   30.1690 C   0  0  0  0  0  0
   29.6600    1.4580   29.5120 C   0  0  0  0  0  0
   29.3461    0.9800   28.2393 C   0  0  0  0  0  0
   31.1170    1.4580   31.4442 O   0  0  0  0  0  0
   31.9584   -2.0046   25.0225 C   0  0  0  0  0  0
   32.8138   -3.0994   25.1875 C   0  0  0  0  0  0
   33.3653   -3.7420   24.0906 C   0  0  0  0  0  0
   32.9589   -3.4183   22.8103 C   0  0  0  0  0  0
   32.0600   -2.3830   22.6227 C   0  0  0  0  0  0
   31.6001   -1.6480   23.7158 C   0  0  0  0  0  0
   33.4276   -4.1420   21.7486 O   0  0  0  0  0  0
   34.1349   -0.6320   28.1982 H   0  0  0  0  0  0
   33.5166   -2.2674   28.5474 H   0  0  0  0  0  0
   34.0600   -1.8164   26.9205 H   0  0  0  0  0  0
   32.6311   -0.0755   30.0329 H   0  0  0  0  0  0
   28.9594    2.1224   29.9858 H   0  0  0  0  0  0
   28.4243    1.2797   27.7606 H   0  0  0  0  0  0
   30.4600    2.0637   31.7933 H   0  0  0  0  0  0
   33.0728   -3.4726   26.1652 H   0  0  0  0  0  0
   34.0600   -4.5420   24.2446 H   0  0  0  0  0  0
   31.7333   -2.1420   21.6235 H   0  0  0  0  0  0
   30.9444   -0.8101   23.5344 H   0  0  0  0  0  0
   32.8226   -4.1732   21.0015 H   0  0  0  0  0  0
  1  2  1  0  0  0
  1 20  1  0  0  0
  1 21  1  0  0  0
  1 22  1  0  0  0
  2  7  1  0  0  0
  2  3  2  0  0  0
  3  4  1  0  0  0
  3 13  1  0  0  0
  4  5  2  0  0  0
  4  6  1  0  0  0
  6 11  2  0  0  0
  6  7  1  0  0  0
  7  8  2  0  0  0
  8  9  1  0  0  0
  8 23  1  0  0  0
  9 10  2  0  0  0
  9 12  1  0  0  0
 10 11  1  0  0  0
 10 24  1  0  0  0
 11 25  1  0  0  0
 12 26  1  0  0  0
 13 18  1  0  0  0
 13 14  2  0  0  0
 14 15  1  0  0  0
 14 27  1  0  0  0
 15 16  2  0  0  0
 15 28  1  0  0  0
 16 17  1  0  0  0
 16 19  1  0  0  0
 17 18  2  0  0  0
 17 29  1  0  0  0
 18 30  1  0  0  0
 19 31  1  0  0  0
M  END
> <s_m_entry_id>
17608

> <s_m_entry_name>
ligand_docking-pose.535

> <s_m_Source_Path>
/home/csk/Desktop/cluster/DUD-E-result/esr1

> <s_m_Source_File>
ligand_docking-pose.sdf

> <i_m_Source_File_Index>
535

> <i_lp_mmshare_version>
53161

> <i_f3d_flags>
0

> <r_lp_tautomer_probability>
1

> <s_lp_Force_Field>
OPLS_2005

> <r_lp_Energy>
25.08342

> <b_lp_Chiralities_Consistent>
1

> <s_lp_Variant>
318911-1

> <s_i_glide_gridfile>
glide-grid_1sj0

> <i_i_glide_lignum>
1045

> <i_i_glide_rotatable_bonds>
3

> <r_i_docking_score>
-7.69784124593806

> <r_i_glide_ligand_efficiency>
-0.405149539259898

> <r_i_glide_ligand_efficiency_sa>
-1.08110169747897

> <r_i_glide_ligand_efficiency_ln>
-1.95156809031555

> <r_i_glide_gscore>
-7.69784124593806

> <r_i_glide_lipo>
-3.84761843751591

> <r_i_glide_hbond>
0

> <r_i_glide_metal>
0

> <r_i_glide_rewards>
-2.72488891483844

> <r_i_glide_evdw>
-24.93186378479

> <r_i_glide_ecoul>
-1.02962064743042

> <r_i_glide_erotb>
0.27570239277036

> <r_i_glide_esite>
0

> <r_i_glide_emodel>
-36.1478528335785

> <r_i_glide_energy>
-25.9614844322205

> <r_i_glide_einternal>
3.39594197273254

> <i_i_glide_confnum>
2

> <i_i_glide_posenum>
1

> <r_i_glide_eff_state_penalty>
0

> <s_user_duplicate_titles>
318911

> <s_m_subgroup_title>
dock_pv

> <s_m_subgroupid>
dock_pv1

> <b_m_subgroup_collapsed>
0

$$$$
90959
                    3D
 Schrodinger Suite 2021-1.
 52 54  0  0  1  0            999 V2000
   31.3576   -0.4585   31.0060 C   0  0  0  0  0  0
   32.8262   -0.0638   30.8765 C   0  0  0  0  0  0
   33.0512    1.3759   30.3877 C   0  0  0  0  0  0
   32.5424    1.6795   28.9614 C   0  0  0  0  0  0
   33.0112    0.7169   27.9551 N   0  0  0  0  0  0
   34.4485    0.7380   27.6891 C   0  0  0  0  0  0
   32.1236   -0.0259   27.1265 C   0  0  0  0  0  0
   30.7533   -0.0178   27.3752 C   0  0  0  0  0  0
   29.8796   -0.6602   26.5147 C   0  0  0  0  0  0
   30.3848   -1.3113   25.3980 C   0  0  0  0  0  0
   31.7613   -1.3799   25.2039 C   0  0  0  0  0  0
   32.6069   -0.7469   26.0710 N   0  0  0  0  0  0
   32.3606   -2.1202   24.0422 C   0  0  0  0  0  0
   33.6600   -2.6095   24.0799 C   0  0  0  0  0  0
   34.2650   -3.1283   22.9366 C   0  0  0  0  0  0
   33.5524   -3.3280   21.7649 C   0  0  0  0  0  0
   32.2150   -2.9420   21.7218 C   0  0  0  0  0  0
   31.6600   -2.3313   22.8500 C   0  0  0  0  0  0
   31.3616   -3.1414   20.4751 C   0  0  0  0  0  0
   34.1837   -3.8858   20.6834 O   0  0  0  0  0  0
   28.4475   -0.6288   26.8142 C   0  0  0  0  0  0
   27.8501    0.5916   27.1249 C   0  0  0  0  0  0
   26.5135    0.6283   27.4640 C   0  0  0  0  0  0
   25.7661   -0.5420   27.4640 C   0  0  0  0  0  0
   26.3653   -1.7625   27.1957 C   0  0  0  0  0  0
   27.7075   -1.8106   26.8582 C   0  0  0  0  0  0
   31.2600   -1.3420   31.6349 H   0  0  0  0  0  0
   30.9136   -0.6935   30.0415 H   0  0  0  0  0  0
   30.7868    0.3477   31.4640 H   0  0  0  0  0  0
   33.2600   -0.1420   31.8640 H   0  0  0  0  0  0
   33.3595   -0.7821   30.2520 H   0  0  0  0  0  0
   32.5771    2.0546   31.0962 H   0  0  0  0  0  0
   34.1206    1.5819   30.4423 H   0  0  0  0  0  0
   31.4648    1.7520   29.0185 H   0  0  0  0  0  0
   32.8600    2.6580   28.6137 H   0  0  0  0  0  0
   34.8774   -0.2493   27.8640 H   0  0  0  0  0  0
   34.6403    1.0580   26.6640 H   0  0  0  0  0  0
   34.9803    1.4392   28.3334 H   0  0  0  0  0  0
   30.3117    0.4640   28.2269 H   0  0  0  0  0  0
   29.6935   -1.7420   24.6980 H   0  0  0  0  0  0
   34.2329   -2.5420   24.9899 H   0  0  0  0  0  0
   35.3114   -3.3420   22.9490 H   0  0  0  0  0  0
   30.6446   -1.9997   22.7761 H   0  0  0  0  0  0
   31.1862   -2.1965   19.9634 H   0  0  0  0  0  0
   31.8232   -3.8230   19.7621 H   0  0  0  0  0  0
   30.3940   -3.5687   20.7419 H   0  0  0  0  0  0
   34.9880   -4.3629   20.9053 H   0  0  0  0  0  0
   28.4181    1.5107   27.1075 H   0  0  0  0  0  0
   26.0600    1.5746   27.7082 H   0  0  0  0  0  0
   24.7176   -0.5064   27.7013 H   0  0  0  0  0  0
   25.7872   -2.6712   27.2431 H   0  0  0  0  0  0
   28.1721   -2.7662   26.6640 H   0  0  0  0  0  0
  1  2  1  0  0  0
  1 27  1  0  0  0
  1 28  1  0  0  0
  1 29  1  0  0  0
  2  3  1  0  0  0
  2 30  1  0  0  0
  2 31  1  0  0  0
  3  4  1  0  0  0
  3 32  1  0  0  0
  3 33  1  0  0  0
  4  5  1  0  0  0
  4 34  1  0  0  0
  4 35  1  0  0  0
  5  6  1  0  0  0
  5  7  1  0  0  0
  6 36  1  0  0  0
  6 37  1  0  0  0
  6 38  1  0  0  0
  7 12  1  0  0  0
  7  8  2  0  0  0
  8  9  1  0  0  0
  8 39  1  0  0  0
  9 10  2  0  0  0
  9 21  1  0  0  0
 10 11  1  0  0  0
 10 40  1  0  0  0
 11 12  2  0  0  0
 11 13  1  0  0  0
 13 18  1  0  0  0
 13 14  2  0  0  0
 14 15  1  0  0  0
 14 41  1  0  0  0
 15 16  2  0  0  0
 15 42  1  0  0  0
 16 17  1  0  0  0
 16 20  1  0  0  0
 17 18  2  0  0  0
 17 19  1  0  0  0
 18 43  1  0  0  0
 19 44  1  0  0  0
 19 45  1  0  0  0
 19 46  1  0  0  0
 20 47  1  0  0  0
 21 26  1  0  0  0
 21 22  2  0  0  0
 22 23  1  0  0  0
 22 48  1  0  0  0
 23 24  2  0  0  0
 23 49  1  0  0  0
 24 25  1  0  0  0
 24 50  1  0  0  0
 25 26  2  0  0  0
 25 51  1  0  0  0
 26 52  1  0  0  0
M  END
> <s_m_entry_id>
17609

> <s_m_entry_name>
ligand_docking-pose.536

> <s_m_Source_Path>
/home/csk/Desktop/cluster/DUD-E-result/esr1

> <s_m_Source_File>
ligand_docking-pose.sdf

> <i_m_Source_File_Index>
536

> <i_lp_mmshare_version>
53161

> <i_f3d_flags>
0

> <r_lp_tautomer_probability>
0.999999999997365

> <s_lp_Force_Field>
OPLS_2005

> <r_lp_Energy>
18.638722

> <b_lp_Chiralities_Consistent>
1

> <s_lp_Variant>
90959-1

> <s_i_glide_gridfile>
glide-grid_1sj0

> <i_i_glide_lignum>
1471

> <i_i_glide_rotatable_bonds>
7

> <r_i_docking_score>
-7.695935393344

> <r_i_glide_ligand_efficiency>
-0.295997515128615

> <r_i_glide_ligand_efficiency_sa>
-0.876891473874542

> <r_i_glide_ligand_efficiency_ln>
-1.80736517470313

> <r_i_glide_gscore>
-7.695935393344

> <r_i_glide_lipo>
-4.54002028644533

> <r_i_glide_hbond>
-0.175433092274392

> <r_i_glide_metal>
0

> <r_i_glide_rewards>
-2.25318520815306

> <r_i_glide_evdw>
-25.0395374298096

> <r_i_glide_ecoul>
-1.78168749809265

> <r_i_glide_erotb>
0.79193318973315

> <r_i_glide_esite>
0

> <r_i_glide_emodel>
-29.8624457962572

> <r_i_glide_energy>
-26.8212249279022

> <r_i_glide_einternal>
5.10749006271362

> <i_i_glide_confnum>
108

> <i_i_glide_posenum>
141

> <r_i_glide_eff_state_penalty>
0

> <s_user_duplicate_titles>
90959

> <s_m_subgroup_title>
dock_pv

> <s_m_subgroupid>
dock_pv1

> <b_m_subgroup_collapsed>
0

$$$$
44396
                    3D
 Schrodinger Suite 2021-1.
 28 31  0  0  1  0            999 V2000
   33.7130   -4.1238   22.5787 C   0  0  0  0  0  0
   33.6439   -3.7420   23.9238 C   0  0  0  0  0  0
   32.6168   -2.8759   24.3170 C   0  0  0  0  0  0
   31.7253   -2.3910   23.3302 C   0  0  0  0  0  0
   31.7466   -2.8431   22.0036 C   0  0  0  0  0  0
   32.7737   -3.7029   21.6455 C   0  0  0  0  0  0
   32.8600   -4.1420   20.3576 O   0  0  0  0  0  0
   30.8600   -1.4748   23.8640 O   0  0  0  0  0  0
   31.1255   -1.4569   25.1980 C   0  0  0  0  0  0
   32.1470   -2.3114   25.5397 C   0  0  0  0  0  0
   32.5314   -2.4916   26.9352 C   0  0  0  0  0  0
   33.2600   -3.3557   27.4051 O   0  0  0  0  0  0
   32.0065   -1.5546   27.8151 O   0  0  0  0  0  0
   31.0154   -0.6486   27.4538 C   0  0  0  0  0  0
   30.4474   -0.5956   26.1716 C   0  0  0  0  0  0
   29.3792    0.2580   25.9079 C   0  0  0  0  0  0
   28.9599    1.1503   26.8959 C   0  0  0  0  0  0
   29.5972    1.1662   28.1379 C   0  0  0  0  0  0
   30.5964    0.2431   28.4353 C   0  0  0  0  0  0
   29.2600    2.1057   29.0640 O   0  0  0  0  0  0
   34.4950   -4.7896   22.2457 H   0  0  0  0  0  0
   34.3407   -4.1249   24.6562 H   0  0  0  0  0  0
   31.0132   -2.5420   21.2741 H   0  0  0  0  0  0
   32.1920   -4.8255   20.1665 H   0  0  0  0  0  0
   28.9222    0.2747   24.9293 H   0  0  0  0  0  0
   28.1696    1.8561   26.6846 H   0  0  0  0  0  0
   31.0669    0.2291   29.4072 H   0  0  0  0  0  0
   29.7648    2.0313   29.8761 H   0  0  0  0  0  0
  1  6  1  0  0  0
  1  2  2  0  0  0
  1 21  1  0  0  0
  2  3  1  0  0  0
  2 22  1  0  0  0
  3 10  1  0  0  0
  3  4  2  0  0  0
  4  5  1  0  0  0
  4  8  1  0  0  0
  5  6  2  0  0  0
  5 23  1  0  0  0
  6  7  1  0  0  0
  7 24  1  0  0  0
  8  9  1  0  0  0
  9 15  1  0  0  0
  9 10  2  0  0  0
 10 11  1  0  0  0
 11 12  2  0  0  0
 11 13  1  0  0  0
 13 14  1  0  0  0
 14 19  1  0  0  0
 14 15  2  0  0  0
 15 16  1  0  0  0
 16 17  2  0  0  0
 16 25  1  0  0  0
 17 18  1  0  0  0
 17 26  1  0  0  0
 18 19  2  0  0  0
 18 20  1  0  0  0
 19 27  1  0  0  0
 20 28  1  0  0  0
M  END
> <s_m_entry_id>
17610

> <s_m_entry_name>
ligand_docking-pose.537

> <s_m_Source_Path>
/home/csk/Desktop/cluster/DUD-E-result/esr1

> <s_m_Source_File>
ligand_docking-pose.sdf

> <i_m_Source_File_Index>
537

> <i_lp_mmshare_version>
53161

> <i_f3d_flags>
0

> <r_lp_tautomer_probability>
1

> <s_lp_Force_Field>
OPLS_2005

> <r_lp_Energy>
15.025928

> <b_lp_Chiralities_Consistent>
1

> <s_lp_Variant>
44396-1

> <s_i_glide_gridfile>
glide-grid_1sj0

> <i_i_glide_lignum>
36

> <i_i_glide_rotatable_bonds>
2

> <r_i_docking_score>
-7.69395453920052

> <r_i_glide_ligand_efficiency>
-0.384697726960026

> <r_i_glide_ligand_efficiency_sa>
-1.04423028608157

> <r_i_glide_ligand_efficiency_ln>
-1.92554305755755

> <r_i_glide_gscore>
-7.69395453920052

> <r_i_glide_lipo>
-3.3897063890478

> <r_i_glide_hbond>
-0.16

> <r_i_glide_metal>
0

> <r_i_glide_rewards>
-2.01639880971388

> <r_i_glide_evdw>
-26.6763668060303

> <r_i_glide_ecoul>
-5.29354000091553

> <r_i_glide_erotb>
0

> <r_i_glide_esite>
0

> <r_i_glide_emodel>
-36.4474442312197

> <r_i_glide_energy>
-31.9699068069458

> <r_i_glide_einternal>
4.26005458831787

> <i_i_glide_confnum>
1

> <i_i_glide_posenum>
127

> <r_i_glide_eff_state_penalty>
0

> <s_user_duplicate_titles>
44396

> <s_m_subgroup_title>
dock_pv

> <s_m_subgroupid>
dock_pv1

> <b_m_subgroup_collapsed>
0

$$$$
323186
                    3D
 Schrodinger Suite 2021-1.
 32 34  0  0  1  0            999 V2000
   28.5348    1.2737   26.2647 C   0  0  0  0  0  0
   29.5317    0.5719   26.2283 C   0  0  0  0  0  0
   30.7111   -0.2881   26.2621 C   0  0  0  0  0  0
   31.1144   -0.9100   25.0804 C   0  0  0  0  0  0
   32.1840   -1.8132   25.0216 C   0  0  0  0  0  0
   32.8497   -2.1051   26.2215 C   0  0  0  0  0  0
   32.5259   -1.4389   27.4377 C   0  0  0  0  0  0
   31.4471   -0.5008   27.4629 C   0  0  0  0  0  0
   31.1609    0.1836   28.6858 C   0  0  0  0  0  0
   31.9317   -0.0293   29.8190 C   0  0  0  0  0  0
   32.9715   -0.9420   29.7835 C   0  0  0  0  0  0
   33.2588   -1.6650   28.6322 C   0  0  0  0  0  0
   31.6692    0.6601   30.9731 O   0  0  0  0  0  0
   32.5744   -2.4574   23.7140 C   0  0  0  0  0  0
   33.8444   -3.0031   23.4728 C   0  0  0  0  0  0
   34.1447   -3.6471   22.2641 C   0  0  0  0  0  0
   33.1690   -3.8121   21.2888 C   0  0  0  0  0  0
   31.9213   -3.2355   21.4816 C   0  0  0  0  0  0
   31.6600   -2.5433   22.6594 C   0  0  0  0  0  0
   30.9539   -3.3401   20.5402 F   0  0  0  0  0  0
   33.4340   -4.5419   20.1601 O   0  0  0  0  0  0
   27.6602    1.8731   26.3245 H   0  0  0  0  0  0
   30.5663   -0.6654   24.1831 H   0  0  0  0  0  0
   33.6601   -2.8176   26.2335 H   0  0  0  0  0  0
   30.3516    0.8963   28.7277 H   0  0  0  0  0  0
   33.5667   -1.0991   30.6640 H   0  0  0  0  0  0
   34.0598   -2.3874   28.6568 H   0  0  0  0  0  0
   30.9512    1.2891   30.8816 H   0  0  0  0  0  0
   34.6099   -2.9459   24.2272 H   0  0  0  0  0  0
   35.1242   -4.0626   22.0882 H   0  0  0  0  0  0
   30.6722   -2.1419   22.7449 H   0  0  0  0  0  0
   32.6442   -5.0223   19.8641 H   0  0  0  0  0  0
  1  2  3  0  0  0
  1 22  1  0  0  0
  2  3  1  0  0  0
  3  8  1  0  0  0
  3  4  2  0  0  0
  4  5  1  0  0  0
  4 23  1  0  0  0
  5  6  2  0  0  0
  5 14  1  0  0  0
  6  7  1  0  0  0
  6 24  1  0  0  0
  7 12  2  0  0  0
  7  8  1  0  0  0
  8  9  2  0  0  0
  9 10  1  0  0  0
  9 25  1  0  0  0
 10 11  2  0  0  0
 10 13  1  0  0  0
 11 12  1  0  0  0
 11 26  1  0  0  0
 12 27  1  0  0  0
 13 28  1  0  0  0
 14 19  1  0  0  0
 14 15  2  0  0  0
 15 16  1  0  0  0
 15 29  1  0  0  0
 16 17  2  0  0  0
 16 30  1  0  0  0
 17 18  1  0  0  0
 17 21  1  0  0  0
 18 19  2  0  0  0
 18 20  1  0  0  0
 19 31  1  0  0  0
 21 32  1  0  0  0
M  END
> <s_m_entry_id>
17611

> <s_m_entry_name>
ligand_docking-pose.538

> <s_m_Source_Path>
/home/csk/Desktop/cluster/DUD-E-result/esr1

> <s_m_Source_File>
ligand_docking-pose.sdf

> <i_m_Source_File_Index>
538

> <i_lp_mmshare_version>
53161

> <i_f3d_flags>
0

> <r_lp_tautomer_probability>
0.999999999997365

> <s_lp_Force_Field>
OPLS_2005

> <r_lp_Energy>
18.213686

> <b_lp_Chiralities_Consistent>
1

> <s_lp_Variant>
323186-1

> <s_i_glide_gridfile>
glide-grid_1sj0

> <i_i_glide_lignum>
1147

> <i_i_glide_rotatable_bonds>
4

> <r_i_docking_score>
-7.69131818597672

> <r_i_glide_ligand_efficiency>
-0.366253246951272

> <r_i_glide_ligand_efficiency_sa>
-1.01046493666649

> <r_i_glide_ligand_efficiency_ln>
-1.90166287971096

> <r_i_glide_gscore>
-7.69131818597672

> <r_i_glide_lipo>
-3.97395571818238

> <r_i_glide_hbond>
-0.16

> <r_i_glide_metal>
0

> <r_i_glide_rewards>
-2.1089282697636

> <r_i_glide_evdw>
-30.566104888916

> <r_i_glide_ecoul>
-1.90411269664764

> <r_i_glide_erotb>
0.465487950912211

> <r_i_glide_esite>
-0.1

> <r_i_glide_emodel>
-44.2184861349916

> <r_i_glide_energy>
-32.4702175855637

> <r_i_glide_einternal>
3.40180325508118

> <i_i_glide_confnum>
3

> <i_i_glide_posenum>
362

> <r_i_glide_eff_state_penalty>
0

> <s_user_duplicate_titles>
323186

> <s_m_subgroup_title>
dock_pv

> <s_m_subgroupid>
dock_pv1

> <b_m_subgroup_collapsed>
0

$$$$
313615
                    3D
 Schrodinger Suite 2021-1.
 32 35  0  0  1  0            999 V2000
   29.2424    0.2207   26.2641 C   0  0  0  0  0  0
   29.7062    0.5201   27.5322 C   0  0  0  0  0  0
   30.9645    0.0398   27.9750 C   0  0  0  0  0  0
   31.7458   -0.7860   27.0948 C   0  0  0  0  0  0
   32.9768   -1.2935   27.5918 C   0  0  0  0  0  0
   33.4498   -0.9420   28.8505 C   0  0  0  0  0  0
   32.7149   -0.1001   29.6709 C   0  0  0  0  0  0
   31.4681    0.3698   29.2673 C   0  0  0  0  0  0
   30.4600    1.4580   30.4692 Br  0  0  0  0  0  0
   33.2250    0.2580   30.8894 O   0  0  0  0  0  0
   31.2619   -1.0577   25.7660 C   0  0  0  0  0  0
   30.0115   -0.5420   25.4028 C   0  0  0  0  0  0
   31.9882   -1.8151   24.6756 C   0  0  0  0  0  0
   33.2600   -2.1420   24.5850 N   0  0  0  0  0  0
   33.3849   -2.6416   23.3160 C   0  0  0  0  0  0
   34.5021   -3.0301   22.5709 C   0  0  0  0  0  0
   34.3028   -3.5190   21.2735 C   0  0  0  0  0  0
   33.0209   -3.6311   20.7295 C   0  0  0  0  0  0
   31.8943   -3.2296   21.4425 C   0  0  0  0  0  0
   32.1312   -2.7121   22.7165 C   0  0  0  0  0  0
   31.2600   -2.1420   23.5701 O   0  0  0  0  0  0
   32.8600   -4.1420   19.4760 O   0  0  0  0  0  0
   28.2859    0.5995   25.9360 H   0  0  0  0  0  0
   29.0967    1.1340   28.1778 H   0  0  0  0  0  0
   33.5818   -1.9513   26.9912 H   0  0  0  0  0  0
   34.4053   -1.3229   29.1821 H   0  0  0  0  0  0
   33.9865   -0.2711   31.1415 H   0  0  0  0  0  0
   29.6173   -0.7108   24.4129 H   0  0  0  0  0  0
   35.4944   -2.9420   22.9840 H   0  0  0  0  0  0
   35.1507   -3.8373   20.6831 H   0  0  0  0  0  0
   30.9015   -3.2852   21.0225 H   0  0  0  0  0  0
   32.1353   -4.7919   19.4640 H   0  0  0  0  0  0
  1 12  1  0  0  0
  1  2  2  0  0  0
  1 23  1  0  0  0
  2  3  1  0  0  0
  2 24  1  0  0  0
  3  8  2  0  0  0
  3  4  1  0  0  0
  4  5  2  0  0  0
  4 11  1  0  0  0
  5  6  1  0  0  0
  5 25  1  0  0  0
  6  7  2  0  0  0
  6 26  1  0  0  0
  7  8  1  0  0  0
  7 10  1  0  0  0
  8  9  1  0  0  0
 10 27  1  0  0  0
 11 12  2  0  0  0
 11 13  1  0  0  0
 12 28  1  0  0  0
 13 21  1  0  0  0
 13 14  2  0  0  0
 14 15  1  0  0  0
 15 20  2  0  0  0
 15 16  1  0  0  0
 16 17  2  0  0  0
 16 29  1  0  0  0
 17 18  1  0  0  0
 17 30  1  0  0  0
 18 19  2  0  0  0
 18 22  1  0  0  0
 19 20  1  0  0  0
 19 31  1  0  0  0
 20 21  1  0  0  0
 22 32  1  0  0  0
M  END
> <s_m_entry_id>
17612

> <s_m_entry_name>
ligand_docking-pose.539

> <s_m_Source_Path>
/home/csk/Desktop/cluster/DUD-E-result/esr1

> <s_m_Source_File>
ligand_docking-pose.sdf

> <i_m_Source_File_Index>
539

> <i_lp_mmshare_version>
53161

> <i_f3d_flags>
0

> <r_lp_tautomer_probability>
1

> <s_lp_Force_Field>
OPLS_2005

> <r_lp_Energy>
22.593279

> <b_lp_Chiralities_Consistent>
1

> <s_lp_Variant>
313615-1

> <s_i_glide_gridfile>
glide-grid_1sj0

> <i_i_glide_lignum>
45

> <i_i_glide_rotatable_bonds>
3

> <r_i_docking_score>
-7.68334069371727

> <r_i_glide_ligand_efficiency>
-0.349242758805331

> <r_i_glide_ligand_efficiency_sa>
-0.978591945110839

> <r_i_glide_ligand_efficiency_ln>
-1.87808872220577

> <r_i_glide_gscore>
-7.68334069371727

> <r_i_glide_lipo>
-3.64101149881544

> <r_i_glide_hbond>
-0.16

> <r_i_glide_metal>
0

> <r_i_glide_rewards>
-1.56552020412324

> <r_i_glide_evdw>
-30.3007354736328

> <r_i_glide_ecoul>
-6.35043573379517

> <r_i_glide_erotb>
0.150793142972328

> <r_i_glide_esite>
0

> <r_i_glide_emodel>
-50.4173601249912

> <r_i_glide_energy>
-36.651171207428

> <r_i_glide_einternal>
2.67053008079529

> <i_i_glide_confnum>
4

> <i_i_glide_posenum>
382

> <r_i_glide_eff_state_penalty>
0

> <s_user_duplicate_titles>
313615

> <s_m_subgroup_title>
dock_pv

> <s_m_subgroupid>
dock_pv1

> <b_m_subgroup_collapsed>
0

$$$$
313219
                    3D
 Schrodinger Suite 2021-1.
 30 32  0  0  1  0            999 V2000
   26.5867   -0.9575   27.8904 C   0  0  0  0  0  0
   27.9918   -0.4398   27.5722 C   0  0  0  0  0  0
   28.2369    0.9386   27.4884 C   0  0  0  0  0  0
   29.4985    1.4244   27.1790 C   0  0  0  0  0  0
   30.5334    0.5437   26.9033 C   0  0  0  0  0  0
   30.3079   -0.8308   26.9474 C   0  0  0  0  0  0
   29.0520   -1.3299   27.3289 C   0  0  0  0  0  0
   28.8607   -2.6850   27.4636 O   0  0  0  0  0  0
   31.4371   -1.7019   26.5658 C   0  0  0  0  0  0
   31.8464   -2.0325   25.2428 C   0  0  0  0  0  0
   31.4545   -1.7408   23.9281 C   0  0  0  0  0  0
   32.1501   -2.3479   22.8779 C   0  0  0  0  0  0
   33.2279   -3.2008   23.1176 C   0  0  0  0  0  0
   33.6466   -3.4743   24.4164 C   0  0  0  0  0  0
   32.9293   -2.8878   25.4535 C   0  0  0  0  0  0
   33.1496   -3.0453   26.7856 O   0  0  0  0  0  0
   32.2098   -2.2645   27.4651 N   0  0  0  0  0  0
   33.8814   -3.7861   22.0695 O   0  0  0  0  0  0
   27.2599    1.8559   27.7249 O   0  0  0  0  0  0
   26.4293   -1.9742   27.5239 H   0  0  0  0  0  0
   26.3989   -0.9404   28.9644 H   0  0  0  0  0  0
   25.8259   -0.3510   27.3973 H   0  0  0  0  0  0
   29.6611    2.4896   27.1352 H   0  0  0  0  0  0
   31.5071    0.9327   26.6412 H   0  0  0  0  0  0
   29.6109   -3.2111   27.1719 H   0  0  0  0  0  0
   30.6199   -1.0830   23.7319 H   0  0  0  0  0  0
   31.8446   -2.1426   21.8631 H   0  0  0  0  0  0
   34.4599   -4.1418   24.6265 H   0  0  0  0  0  0
   33.4066   -3.7106   21.2379 H   0  0  0  0  0  0
   26.3913    1.4562   27.8021 H   0  0  0  0  0  0
  1  2  1  0  0  0
  1 20  1  0  0  0
  1 21  1  0  0  0
  1 22  1  0  0  0
  2  7  1  0  0  0
  2  3  2  0  0  0
  3  4  1  0  0  0
  3 19  1  0  0  0
  4  5  2  0  0  0
  4 23  1  0  0  0
  5  6  1  0  0  0
  5 24  1  0  0  0
  6  7  2  0  0  0
  6  9  1  0  0  0
  7  8  1  0  0  0
  8 25  1  0  0  0
  9 17  2  0  0  0
  9 10  1  0  0  0
 10 15  2  0  0  0
 10 11  1  0  0  0
 11 12  2  0  0  0
 11 26  1  0  0  0
 12 13  1  0  0  0
 12 27  1  0  0  0
 13 14  2  0  0  0
 13 18  1  0  0  0
 14 15  1  0  0  0
 14 28  1  0  0  0
 15 16  1  0  0  0
 16 17  1  0  0  0
 18 29  1  0  0  0
 19 30  1  0  0  0
M  END
> <s_m_entry_id>
17613

> <s_m_entry_name>
ligand_docking-pose.540

> <s_m_Source_Path>
/home/csk/Desktop/cluster/DUD-E-result/esr1

> <s_m_Source_File>
ligand_docking-pose.sdf

> <i_m_Source_File_Index>
540

> <i_lp_mmshare_version>
53161

> <i_f3d_flags>
0

> <r_lp_tautomer_probability>
0.999999999898

> <s_lp_Force_Field>
OPLS_2005

> <r_lp_Energy>
31.589964

> <b_lp_Chiralities_Consistent>
1

> <s_lp_Variant>
313219-1

> <s_i_glide_gridfile>
glide-grid_1sj0

> <i_i_glide_lignum>
1009

> <i_i_glide_rotatable_bonds>
4

> <r_i_docking_score>
-7.67966722383324

> <r_i_glide_ligand_efficiency>
-0.404193011780697

> <r_i_glide_ligand_efficiency_sa>
-1.07854929797893

> <r_i_glide_ligand_efficiency_ln>
-1.94696058536977

> <r_i_glide_gscore>
-7.67966722383324

> <r_i_glide_lipo>
-3.75210803328957

> <r_i_glide_hbond>
-0.0258549802633608

> <r_i_glide_metal>
0

> <r_i_glide_rewards>
-2.1155994533888

> <r_i_glide_evdw>
-32.3037490844727

> <r_i_glide_ecoul>
-2.91679501533508

> <r_i_glide_erotb>
0.266601949632388

> <r_i_glide_esite>
0

> <r_i_glide_emodel>
-47.235905595628

> <r_i_glide_energy>
-35.2205440998077

> <r_i_glide_einternal>
4.49795818328857

> <i_i_glide_confnum>
3

> <i_i_glide_posenum>
293

> <r_i_glide_eff_state_penalty>
0

> <s_user_duplicate_titles>
313219

> <s_m_subgroup_title>
dock_pv

> <s_m_subgroupid>
dock_pv1

> <b_m_subgroup_collapsed>
0

$$$$
568149
                    3D
 Schrodinger Suite 2021-1.
 32 33  0  0  1  0            999 V2000
   33.1391   -0.0549   28.3505 C   0  0  0  0  0  0
   31.8239   -0.4242   27.6326 C   0  0  2  0  0  0
   30.8035   -1.0473   28.6132 C   0  0  0  0  0  0
   29.3982   -1.1887   28.0423 C   0  0  0  0  0  0
   28.8728   -2.4377   27.6893 C   0  0  0  0  0  0
   27.5616   -2.4990   27.2106 C   0  0  0  0  0  0
   26.8174   -1.3218   27.1046 C   0  0  0  0  0  0
   27.4153   -0.1146   27.4640 C   0  0  0  0  0  0
   28.6898   -0.0329   27.9228 N   0  0  0  0  0  0
   25.5240   -1.3420   26.6639 O   0  0  0  0  0  0
   32.0607   -1.3080   26.4036 C   0  0  0  0  0  0
   32.8330   -2.4699   26.5064 C   0  0  0  0  0  0
   33.0628   -3.2540   25.3818 C   0  0  0  0  0  0
   32.5092   -2.8953   24.1576 C   0  0  0  0  0  0
   31.7245   -1.7493   24.0467 C   0  0  0  0  0  0
   31.4979   -0.9579   25.1711 C   0  0  0  0  0  0
   32.7396   -3.6862   23.0643 O   0  0  0  0  0  0
   33.8656    0.3663   27.6547 H   0  0  0  0  0  0
   32.9655    0.6912   29.1263 H   0  0  0  0  0  0
   33.6021   -0.9173   28.8313 H   0  0  0  0  0  0
   31.4109    0.5255   27.2851 H   0  0  0  0  0  0
   31.1594   -2.0148   28.9701 H   0  0  0  0  0  0
   30.7345   -0.4277   29.5088 H   0  0  0  0  0  0
   29.4627   -3.3383   27.7820 H   0  0  0  0  0  0
   27.1279   -3.4489   26.9306 H   0  0  0  0  0  0
   26.8662    0.8121   27.3896 H   0  0  0  0  0  0
   25.2602   -2.2023   26.2782 H   0  0  0  0  0  0
   33.2598   -2.7658   27.4535 H   0  0  0  0  0  0
   33.6696   -4.1419   25.4575 H   0  0  0  0  0  0
   31.2875   -1.4755   23.0985 H   0  0  0  0  0  0
   30.8826   -0.0753   25.0817 H   0  0  0  0  0  0
   32.2553   -3.4223   22.2784 H   0  0  0  0  0  0
  1  2  1  0  0  0
  1 18  1  0  0  0
  1 19  1  0  0  0
  1 20  1  0  0  0
  2  3  1  0  0  0
  2 11  1  0  0  0
  2 21  1  0  0  0
  3  4  1  0  0  0
  3 22  1  0  0  0
  3 23  1  0  0  0
  4  9  1  0  0  0
  4  5  2  0  0  0
  5  6  1  0  0  0
  5 24  1  0  0  0
  6  7  2  0  0  0
  6 25  1  0  0  0
  7  8  1  0  0  0
  7 10  1  0  0  0
  8  9  2  0  0  0
  8 26  1  0  0  0
 10 27  1  0  0  0
 11 16  1  0  0  0
 11 12  2  0  0  0
 12 13  1  0  0  0
 12 28  1  0  0  0
 13 14  2  0  0  0
 13 29  1  0  0  0
 14 15  1  0  0  0
 14 17  1  0  0  0
 15 16  2  0  0  0
 15 30  1  0  0  0
 16 31  1  0  0  0
 17 32  1  0  0  0
M  END
> <s_m_entry_id>
17614

> <s_m_entry_name>
ligand_docking-pose.541

> <s_m_Source_Path>
/home/csk/Desktop/cluster/DUD-E-result/esr1

> <s_m_Source_File>
ligand_docking-pose.sdf

> <i_m_Source_File_Index>
541

> <i_lp_mmshare_version>
53161

> <i_f3d_flags>
0

> <r_lp_tautomer_probability>
0.43657999999885

> <s_lp_Force_Field>
OPLS_2005

> <r_lp_Energy>
7.344769

> <b_lp_Chiralities_Consistent>
1

> <s_lp_Variant>
568149-3

> <s_i_glide_gridfile>
glide-grid_1sj0

> <i_i_glide_lignum>
1294

> <i_i_glide_rotatable_bonds>
5

> <r_i_docking_score>
-7.67783279508868

> <r_i_glide_ligand_efficiency>
-0.45163722324051

> <r_i_glide_ligand_efficiency_sa>
-1.1612864766776

> <r_i_glide_ligand_efficiency_ln>
-2.00297559930859

> <r_i_glide_gscore>
-7.67783279508868

> <r_i_glide_lipo>
-3.54525647634365

> <r_i_glide_hbond>
-0.16

> <r_i_glide_metal>
0

> <r_i_glide_rewards>
-2.30004375469093

> <r_i_glide_evdw>
-31.1922225952148

> <r_i_glide_ecoul>
-5.29620552062988

> <r_i_glide_erotb>
0.681509393801132

> <r_i_glide_esite>
0

> <r_i_glide_emodel>
-53.8208152366536

> <r_i_glide_energy>
-36.4884281158447

> <r_i_glide_einternal>
2.50752305984497

> <i_i_glide_confnum>
1

> <i_i_glide_posenum>
131

> <r_i_glide_eff_state_penalty>
0

> <s_user_duplicate_titles>
568149

> <s_m_subgroup_title>
dock_pv

> <s_m_subgroupid>
dock_pv1

> <b_m_subgroup_collapsed>
0

$$$$
322995
                    3D
 Schrodinger Suite 2021-1.
 30 32  0  0  1  0            999 V2000
   30.8600   -1.2915   24.1006 C   0  0  0  0  0  0
   30.9298   -0.7776   25.3899 C   0  0  0  0  0  0
   31.9319   -1.1683   26.2821 C   0  0  0  0  0  0
   32.8604   -2.1135   25.8367 C   0  0  0  0  0  0
   32.8824   -2.5621   24.4938 C   0  0  0  0  0  0
   31.8309   -2.1920   23.6141 C   0  0  0  0  0  0
   31.7993   -2.7439   22.2988 C   0  0  0  0  0  0
   32.8549   -3.5273   21.8400 C   0  0  0  0  0  0
   33.9390   -3.7716   22.6640 C   0  0  0  0  0  0
   33.9425   -3.3420   23.9919 C   0  0  0  0  0  0
   32.8599   -4.0653   20.5786 O   0  0  0  0  0  0
   32.0499   -0.5414   27.6386 C   0  0  0  0  0  0
   33.2859   -0.4537   28.3017 C   0  0  0  0  0  0
   33.4082    0.1806   29.5369 C   0  0  0  0  0  0
   32.2946    0.7636   30.1339 C   0  0  0  0  0  0
   31.0579    0.6993   29.4861 C   0  0  0  0  0  0
   30.9373    0.0322   28.2692 C   0  0  0  0  0  0
   29.6600    1.4580   30.1445 Cl  0  0  0  0  0  0
   32.4373    1.3988   31.3404 O   0  0  0  0  0  0
   30.0550   -0.9722   23.4640 H   0  0  0  0  0  0
   30.1896   -0.0455   25.6738 H   0  0  0  0  0  0
   33.6564   -2.4455   26.4858 H   0  0  0  0  0  0
   30.9658   -2.5420   21.6441 H   0  0  0  0  0  0
   34.7545   -4.3578   22.2640 H   0  0  0  0  0  0
   34.7562   -3.5931   24.6577 H   0  0  0  0  0  0
   32.1395   -4.6927   20.3956 H   0  0  0  0  0  0
   34.1822   -0.8593   27.8638 H   0  0  0  0  0  0
   34.3763    0.2268   30.0142 H   0  0  0  0  0  0
   29.9616   -0.0103   27.8096 H   0  0  0  0  0  0
   33.3438    1.3890   31.6529 H   0  0  0  0  0  0
  1  6  1  0  0  0
  1  2  2  0  0  0
  1 20  1  0  0  0
  2  3  1  0  0  0
  2 21  1  0  0  0
  3  4  2  0  0  0
  3 12  1  0  0  0
  4  5  1  0  0  0
  4 22  1  0  0  0
  5 10  2  0  0  0
  5  6  1  0  0  0
  6  7  2  0  0  0
  7  8  1  0  0  0
  7 23  1  0  0  0
  8  9  2  0  0  0
  8 11  1  0  0  0
  9 10  1  0  0  0
  9 24  1  0  0  0
 10 25  1  0  0  0
 11 26  1  0  0  0
 12 17  1  0  0  0
 12 13  2  0  0  0
 13 14  1  0  0  0
 13 27  1  0  0  0
 14 15  2  0  0  0
 14 28  1  0  0  0
 15 16  1  0  0  0
 15 19  1  0  0  0
 16 17  2  0  0  0
 16 18  1  0  0  0
 17 29  1  0  0  0
 19 30  1  0  0  0
M  END
> <s_m_entry_id>
17615

> <s_m_entry_name>
ligand_docking-pose.542

> <s_m_Source_Path>
/home/csk/Desktop/cluster/DUD-E-result/esr1

> <s_m_Source_File>
ligand_docking-pose.sdf

> <i_m_Source_File_Index>
542

> <i_lp_mmshare_version>
53161

> <i_f3d_flags>
0

> <r_lp_tautomer_probability>
0.999999999997365

> <s_lp_Force_Field>
OPLS_2005

> <r_lp_Energy>
16.285486

> <b_lp_Chiralities_Consistent>
1

> <s_lp_Variant>
322995-1

> <s_i_glide_gridfile>
glide-grid_1sj0

> <i_i_glide_lignum>
136

> <i_i_glide_rotatable_bonds>
3

> <r_i_docking_score>
-7.67332528977493

> <r_i_glide_ligand_efficiency>
-0.403859225777628

> <r_i_glide_ligand_efficiency_sa>
-1.07765862285889

> <r_i_glide_ligand_efficiency_ln>
-1.94535276887374

> <r_i_glide_gscore>
-7.67332528977493

> <r_i_glide_lipo>
-3.7780201666165

> <r_i_glide_hbond>
-0.16

> <r_i_glide_metal>
0

> <r_i_glide_rewards>
-2.11997371308305

> <r_i_glide_evdw>
-27.1200523376465

> <r_i_glide_ecoul>
-3.35641527175903

> <r_i_glide_erotb>
0.244133497570801

> <r_i_glide_esite>
0

> <r_i_glide_emodel>
-40.5789624389024

> <r_i_glide_energy>
-30.4764676094055

> <r_i_glide_einternal>
6.00183343887329

> <i_i_glide_confnum>
3

> <i_i_glide_posenum>
151

> <r_i_glide_eff_state_penalty>
0

> <s_user_duplicate_titles>
322995

> <s_m_subgroup_title>
dock_pv

> <s_m_subgroupid>
dock_pv1

> <b_m_subgroup_collapsed>
0

$$$$
461602
                    3D
 Schrodinger Suite 2021-1.
 34 36  0  0  1  0            999 V2000
   25.1932   -0.6862   26.8292 C   0  0  0  0  0  0
   26.0505    0.2576   27.4623 O   0  0  0  0  0  0
   27.3919    0.2471   27.2194 C   0  0  0  0  0  0
   28.1429    1.2248   27.8641 C   0  0  0  0  0  0
   29.5331    1.2380   27.8230 C   0  0  0  0  0  0
   30.1883    0.3237   26.9790 C   0  0  0  0  0  0
   29.3794   -0.5810   26.2651 C   0  0  0  0  0  0
   28.0059   -0.6832   26.3903 C   0  0  0  0  0  0
   30.1013   -1.3455   25.4388 O   0  0  0  0  0  0
   31.3986   -1.0235   25.6359 C   0  0  0  0  0  0
   31.5350   -0.0054   26.5879 C   0  0  0  0  0  0
   32.7530    0.6330   27.0515 C   0  0  0  0  0  0
   32.7735    1.5430   27.8787 O   0  0  0  0  0  0
   32.2498   -1.8394   24.7544 C   0  0  0  0  0  0
   32.0607   -1.6285   23.3918 C   0  0  0  0  0  0
   32.6452   -2.4674   22.4496 C   0  0  0  0  0  0
   33.4674   -3.4969   22.8677 C   0  0  0  0  0  0
   33.6600   -3.7170   24.2304 C   0  0  0  0  0  0
   33.0396   -2.9064   25.1801 C   0  0  0  0  0  0
   33.1591   -3.2007   26.5115 O   0  0  0  0  0  0
   34.0683   -4.2810   21.9281 O   0  0  0  0  0  0
   30.2246    2.1152   28.6106 O   0  0  0  0  0  0
   24.1632   -0.4252   27.0633 H   0  0  0  0  0  0
   25.2610   -0.6666   25.7455 H   0  0  0  0  0  0
   25.3827   -1.7015   27.1810 H   0  0  0  0  0  0
   27.6366    1.9480   28.4832 H   0  0  0  0  0  0
   27.4584   -1.4433   25.8552 H   0  0  0  0  0  0
   33.6599    0.2553   26.6008 H   0  0  0  0  0  0
   31.4232   -0.8226   23.0643 H   0  0  0  0  0  0
   32.4705   -2.3012   21.3968 H   0  0  0  0  0  0
   34.2620   -4.5418   24.5538 H   0  0  0  0  0  0
   32.6389   -2.6147   27.0655 H   0  0  0  0  0  0
   33.6772   -4.2027   21.0551 H   0  0  0  0  0  0
   31.1816    2.0230   28.4993 H   0  0  0  0  0  0
  1  2  1  0  0  0
  1 23  1  0  0  0
  1 24  1  0  0  0
  1 25  1  0  0  0
  2  3  1  0  0  0
  3  8  1  0  0  0
  3  4  2  0  0  0
  4  5  1  0  0  0
  4 26  1  0  0  0
  5  6  2  0  0  0
  5 22  1  0  0  0
  6 11  1  0  0  0
  6  7  1  0  0  0
  7  8  2  0  0  0
  7  9  1  0  0  0
  8 27  1  0  0  0
  9 10  1  0  0  0
 10 11  2  0  0  0
 10 14  1  0  0  0
 11 12  1  0  0  0
 12 13  2  0  0  0
 12 28  1  0  0  0
 14 19  1  0  0  0
 14 15  2  0  0  0
 15 16  1  0  0  0
 15 29  1  0  0  0
 16 17  2  0  0  0
 16 30  1  0  0  0
 17 18  1  0  0  0
 17 21  1  0  0  0
 18 19  2  0  0  0
 18 31  1  0  0  0
 19 20  1  0  0  0
 20 32  1  0  0  0
 21 33  1  0  0  0
 22 34  1  0  0  0
M  END
> <s_m_entry_id>
17616

> <s_m_entry_name>
ligand_docking-pose.543

> <s_m_Source_Path>
/home/csk/Desktop/cluster/DUD-E-result/esr1

> <s_m_Source_File>
ligand_docking-pose.sdf

> <i_m_Source_File_Index>
543

> <i_lp_mmshare_version>
53161

> <i_f3d_flags>
0

> <r_lp_tautomer_probability>
0.999999999898

> <s_lp_Force_Field>
OPLS_2005

> <r_lp_Energy>
16.362862

> <b_lp_Chiralities_Consistent>
1

> <s_lp_Variant>
461602-1

> <s_i_glide_gridfile>
glide-grid_1sj0

> <i_i_glide_lignum>
1760

> <i_i_glide_rotatable_bonds>
6

> <r_i_docking_score>
-7.6711675483756

> <r_i_glide_ligand_efficiency>
-0.348689434017073

> <r_i_glide_ligand_efficiency_sa>
-0.977041507293111

> <r_i_glide_ligand_efficiency_ln>
-1.875113161458

> <r_i_glide_gscore>
-7.6711675483756

> <r_i_glide_lipo>
-3.97336879296114

> <r_i_glide_hbond>
0

> <r_i_glide_metal>
0

> <r_i_glide_rewards>
-2.13856966073983

> <r_i_glide_evdw>
-29.6565399169922

> <r_i_glide_ecoul>
-1.86837363243103

> <r_i_glide_erotb>
0.203853946039636

> <r_i_glide_esite>
0

> <r_i_glide_emodel>
-33.1198088569306

> <r_i_glide_energy>
-31.5249135494232

> <r_i_glide_einternal>
5.92227602005005

> <i_i_glide_confnum>
4

> <i_i_glide_posenum>
51

> <r_i_glide_eff_state_penalty>
0

> <s_user_duplicate_titles>
461602

> <s_m_subgroup_title>
dock_pv

> <s_m_subgroupid>
dock_pv1

> <b_m_subgroup_collapsed>
0

$$$$
568785
                    3D
 Schrodinger Suite 2021-1.
 30 31  0  0  1  0            999 V2000
   32.8600   -2.4989   26.4635 C   0  0  0  0  0  0
   33.1118   -3.2716   25.3352 C   0  0  0  0  0  0
   32.5440   -2.9240   24.1146 C   0  0  0  0  0  0
   31.7282   -1.7989   24.0086 C   0  0  0  0  0  0
   31.4864   -1.0132   25.1333 C   0  0  0  0  0  0
   32.0585   -1.3595   26.3604 C   0  0  0  0  0  0
   31.8211   -0.4968   27.5909 C   0  0  0  0  0  0
   30.7932   -1.0904   28.5722 C   0  0  0  0  0  0
   29.3786   -1.1630   28.0128 C   0  0  0  0  0  0
   28.8368   -2.3908   27.6193 C   0  0  0  0  0  0
   27.5265   -2.4512   27.1519 C   0  0  0  0  0  0
   26.7635   -1.2877   27.0894 C   0  0  0  0  0  0
   27.3021   -0.0600   27.4636 C   0  0  0  0  0  0
   28.6158    0.0041   27.9185 C   0  0  0  0  0  0
   25.4674   -1.3420   26.6638 O   0  0  0  0  0  0
   32.7928   -3.7066   23.0201 O   0  0  0  0  0  0
   33.2942   -2.7766   27.4126 H   0  0  0  0  0  0
   33.7445   -4.1419   25.4040 H   0  0  0  0  0  0
   31.2812   -1.5341   23.0640 H   0  0  0  0  0  0
   30.8524   -0.1428   25.0513 H   0  0  0  0  0  0
   32.7753   -0.3645   28.1018 H   0  0  0  0  0  0
   31.5252    0.5100   27.2915 H   0  0  0  0  0  0
   31.1163   -2.0776   28.9079 H   0  0  0  0  0  0
   30.7688   -0.4837   29.4773 H   0  0  0  0  0  0
   29.4235   -3.2969   27.6745 H   0  0  0  0  0  0
   27.1026   -3.3978   26.8464 H   0  0  0  0  0  0
   26.7001    0.8351   27.4079 H   0  0  0  0  0  0
   29.0300    0.9549   28.2198 H   0  0  0  0  0  0
   25.2325   -2.2082   26.2755 H   0  0  0  0  0  0
   32.2916   -3.4611   22.2396 H   0  0  0  0  0  0
  1  6  1  0  0  0
  1  2  2  0  0  0
  1 17  1  0  0  0
  2  3  1  0  0  0
  2 18  1  0  0  0
  3  4  2  0  0  0
  3 16  1  0  0  0
  4  5  1  0  0  0
  4 19  1  0  0  0
  5  6  2  0  0  0
  5 20  1  0  0  0
  6  7  1  0  0  0
  7  8  1  0  0  0
  7 21  1  0  0  0
  7 22  1  0  0  0
  8  9  1  0  0  0
  8 23  1  0  0  0
  8 24  1  0  0  0
  9 14  1  0  0  0
  9 10  2  0  0  0
 10 11  1  0  0  0
 10 25  1  0  0  0
 11 12  2  0  0  0
 11 26  1  0  0  0
 12 13  1  0  0  0
 12 15  1  0  0  0
 13 14  2  0  0  0
 13 27  1  0  0  0
 14 28  1  0  0  0
 15 29  1  0  0  0
 16 30  1  0  0  0
M  END
> <s_m_entry_id>
17617

> <s_m_entry_name>
ligand_docking-pose.544

> <s_m_Source_Path>
/home/csk/Desktop/cluster/DUD-E-result/esr1

> <s_m_Source_File>
ligand_docking-pose.sdf

> <i_m_Source_File_Index>
544

> <i_lp_mmshare_version>
53161

> <i_f3d_flags>
0

> <r_lp_tautomer_probability>
0.99999999999473

> <s_lp_Force_Field>
OPLS_2005

> <r_lp_Energy>
8.276114

> <b_lp_Chiralities_Consistent>
1

> <s_lp_Variant>
568785-1

> <s_i_glide_gridfile>
glide-grid_1sj0

> <i_i_glide_lignum>
424

> <i_i_glide_rotatable_bonds>
5

> <r_i_docking_score>
-7.6689485923991

> <r_i_glide_ligand_efficiency>
-0.479309287024944

> <r_i_glide_ligand_efficiency_sa>
-1.20778371914943

> <r_i_glide_ligand_efficiency_ln>
-2.03280801514087

> <r_i_glide_gscore>
-7.6689485923991

> <r_i_glide_lipo>
-3.52071499416132

> <r_i_glide_hbond>
-0.16

> <r_i_glide_metal>
0

> <r_i_glide_rewards>
-2.49265121313677

> <r_i_glide_evdw>
-29.2116279602051

> <r_i_glide_ecoul>
-5.32740783691406

> <r_i_glide_erotb>
0.764110188446357

> <r_i_glide_esite>
0

> <r_i_glide_emodel>
-51.9171778147977

> <r_i_glide_energy>
-34.5390357971191

> <r_i_glide_einternal>
0.69532185792923

> <i_i_glide_confnum>
40

> <i_i_glide_posenum>
286

> <r_i_glide_eff_state_penalty>
0

> <s_user_duplicate_titles>
568785

> <s_m_subgroup_title>
dock_pv

> <s_m_subgroupid>
dock_pv1

> <b_m_subgroup_collapsed>
0

$$$$
357412
                    3D
 Schrodinger Suite 2021-1.
 37 40  0  0  1  0            999 V2000
   33.3844   -3.4999   25.3561 C   0  0  0  0  0  0
   32.1609   -2.5985   25.1699 C   0  0  0  0  0  0
   32.0769   -1.3526   26.0851 C   0  0  0  0  0  0
   31.7189   -1.5175   27.6060 C   0  0  1  0  0  0
   32.8644   -2.1253   28.4704 C   0  0  0  0  0  0
   34.0576   -1.1642   28.6640 C   0  0  0  0  0  0
   33.6429    0.2068   29.1892 C   0  0  0  0  0  0
   34.4363    0.9349   29.7823 O   0  0  0  0  0  0
   32.2821    0.6237   28.8767 C   0  0  0  0  0  0
   31.3956   -0.1285   28.1821 C   0  0  0  0  0  0
   29.9863    0.1369   27.8338 C   0  0  0  0  0  0
   29.2696    1.3319   27.7587 C   0  0  0  0  0  0
   27.9111    1.3396   27.4641 C   0  0  0  0  0  0
   27.2698    0.1109   27.3167 C   0  0  0  0  0  0
   28.0013   -1.0958   27.3861 C   0  0  0  0  0  0
   29.3778   -1.0973   27.6122 C   0  0  0  0  0  0
   30.3604   -2.2093   27.8171 C   0  0  0  0  0  0
   27.0533   -2.0824   27.2042 N   0  0  0  0  0  0
   25.8400   -1.5258   27.0647 N   0  0  0  0  0  0
   25.9601   -0.1633   27.1064 N   0  0  0  0  0  0
   31.6600    2.2580   29.7424 Br  0  0  0  0  0  0
   27.1638   -3.0854   27.1621 H   0  0  0  0  0  0
   33.5185   -4.1421   24.4856 H   0  0  0  0  0  0
   33.2688   -4.1542   26.2178 H   0  0  0  0  0  0
   34.3019   -2.9256   25.4640 H   0  0  0  0  0  0
   32.1767   -2.2430   24.1382 H   0  0  0  0  0  0
   31.2601   -3.2032   25.2422 H   0  0  0  0  0  0
   32.9903   -0.7725   25.9856 H   0  0  0  0  0  0
   31.3234   -0.7119   25.6229 H   0  0  0  0  0  0
   32.4856   -2.3551   29.4639 H   0  0  0  0  0  0
   33.2127   -3.0752   28.0747 H   0  0  0  0  0  0
   34.4600   -0.9419   27.6828 H   0  0  0  0  0  0
   34.8578   -1.5737   29.2816 H   0  0  0  0  0  0
   29.7632    2.2756   27.8993 H   0  0  0  0  0  0
   27.3616    2.2580   27.3902 H   0  0  0  0  0  0
   30.2006   -3.0707   27.1710 H   0  0  0  0  0  0
   30.2518   -2.5420   28.8481 H   0  0  0  0  0  0
  1  2  1  0  0  0
  1 23  1  0  0  0
  1 24  1  0  0  0
  1 25  1  0  0  0
  2  3  1  0  0  0
  2 26  1  0  0  0
  2 27  1  0  0  0
  3  4  1  0  0  0
  3 28  1  0  0  0
  3 29  1  0  0  0
  4 10  1  0  0  0
  4 17  1  0  0  0
  4  5  1  0  0  0
  5  6  1  0  0  0
  5 30  1  0  0  0
  5 31  1  0  0  0
  6  7  1  0  0  0
  6 32  1  0  0  0
  6 33  1  0  0  0
  7  8  2  0  0  0
  7  9  1  0  0  0
  9 10  2  0  0  0
  9 21  1  0  0  0
 10 11  1  0  0  0
 11 16  2  0  0  0
 11 12  1  0  0  0
 12 13  2  0  0  0
 12 34  1  0  0  0
 13 14  1  0  0  0
 13 35  1  0  0  0
 14 15  2  0  0  0
 14 20  1  0  0  0
 15 16  1  0  0  0
 15 18  1  0  0  0
 16 17  1  0  0  0
 17 36  1  0  0  0
 17 37  1  0  0  0
 18 22  1  0  0  0
 18 19  1  0  0  0
 19 20  2  0  0  0
M  END
> <s_m_entry_id>
17618

> <s_m_entry_name>
ligand_docking-pose.545

> <s_m_Source_Path>
/home/csk/Desktop/cluster/DUD-E-result/esr1

> <s_m_Source_File>
ligand_docking-pose.sdf

> <i_m_Source_File_Index>
545

> <i_lp_mmshare_version>
53161

> <i_f3d_flags>
0

> <r_lp_tautomer_probability>
0.25

> <s_lp_Force_Field>
OPLS_2005

> <r_lp_Energy>
36.404822

> <b_lp_Chiralities_Consistent>
1

> <s_lp_Variant>
357412-5

> <s_i_glide_gridfile>
glide-grid_1sj0

> <i_i_glide_lignum>
1211

> <i_i_glide_rotatable_bonds>
2

> <r_i_docking_score>
-7.65933282589047

> <r_i_glide_ligand_efficiency>
-0.364730134566213

> <r_i_glide_ligand_efficiency_sa>
-1.00626278508827

> <r_i_glide_ligand_efficiency_ln>
-1.89375456406214

> <r_i_glide_gscore>
-7.65933282589047

> <r_i_glide_lipo>
-3.8467912002928

> <r_i_glide_hbond>
0

> <r_i_glide_metal>
0

> <r_i_glide_rewards>
-2.19071832931864

> <r_i_glide_evdw>
-32.1622467041016

> <r_i_glide_ecoul>
0.442690819501877

> <r_i_glide_erotb>
0

> <r_i_glide_esite>
-0.080114583999238

> <r_i_glide_emodel>
-43.6181864807944

> <r_i_glide_energy>
-31.7195558845997

> <r_i_glide_einternal>
3.06115484237671

> <i_i_glide_confnum>
1

> <i_i_glide_posenum>
90

> <r_i_glide_eff_state_penalty>
0

> <s_user_duplicate_titles>
357412

> <s_m_subgroup_title>
dock_pv

> <s_m_subgroupid>
dock_pv1

> <b_m_subgroup_collapsed>
0

$$$$
14600
                    3D
 Schrodinger Suite 2021-1.
 48 51  0  0  1  0            999 V2000
   28.9753   -0.0126   25.4758 C   0  0  0  0  0  0
   28.6212   -0.7175   26.8107 C   0  0  2  0  0  0
   28.4956    0.3398   27.9582 C   0  0  0  0  0  0
   29.7985    1.0577   28.3222 C   0  0  0  0  0  0
   30.9892    0.0888   28.5731 C   0  0  1  0  0  0
   31.0969   -1.0041   27.4796 C   0  0  2  0  0  0
   29.7594   -1.7211   27.1399 C   0  0  1  0  0  0
   29.1281   -2.6408   28.1834 C   0  0  0  0  0  0
   27.6767   -2.8376   27.7067 C   0  0  0  0  0  0
   27.3443   -1.6525   26.7550 C   0  0  1  0  0  0
   26.0430   -1.0177   27.0430 C   0  0  0  0  0  0
   24.9209   -0.5420   27.0640 C   0  0  0  0  0  0
   27.1010   -2.1420   25.4687 O   0  0  0  0  0  0
   32.3015   -1.9570   27.7029 C   0  0  0  0  0  0
   33.1884   -1.5913   28.9188 C   0  0  0  0  0  0
   33.5544   -0.1420   28.6953 C   0  0  0  0  0  0
   34.7804    0.2184   28.2684 C   0  0  0  0  0  0
   35.0508    1.4594   27.5711 C   0  0  0  0  0  0
   36.1323    1.6820   27.0642 O   0  0  0  0  0  0
   33.9467    2.4860   27.4640 C   0  0  0  0  0  0
   32.5600    1.8622   27.6099 C   0  0  0  0  0  0
   32.3590    0.8261   28.7246 C   0  0  1  0  0  0
   29.8221    0.6582   25.5650 H   0  0  0  0  0  0
   29.2600   -0.7200   24.6947 H   0  0  0  0  0  0
   28.1494    0.5874   25.1212 H   0  0  0  0  0  0
   27.7315    1.0805   27.7151 H   0  0  0  0  0  0
   28.1388   -0.1542   28.8592 H   0  0  0  0  0  0
   29.6698    1.7339   29.1687 H   0  0  0  0  0  0
   29.9992    1.7143   27.4792 H   0  0  0  0  0  0
   30.7681   -0.4325   29.5054 H   0  0  0  0  0  0
   31.3624   -0.5000   26.5526 H   0  0  0  0  0  0
   29.9634   -2.3373   26.2641 H   0  0  0  0  0  0
   29.1614   -2.1664   29.1625 H   0  0  0  0  0  0
   29.6575   -3.5904   28.2600 H   0  0  0  0  0  0
   26.9993   -2.9224   28.5570 H   0  0  0  0  0  0
   27.5966   -3.7940   27.1843 H   0  0  0  0  0  0
   23.9423   -0.1419   26.9614 H   0  0  0  0  0  0
   26.2781   -2.6569   25.4925 H   0  0  0  0  0  0
   31.9275   -2.9420   27.8640 H   0  0  0  0  0  0
   32.9138   -2.0130   26.8001 H   0  0  0  0  0  0
   34.0599   -2.2439   28.9618 H   0  0  0  0  0  0
   32.6699   -1.7288   29.8640 H   0  0  0  0  0  0
   35.5531   -0.5363   28.2615 H   0  0  0  0  0  0
   34.1465    3.1829   28.2640 H   0  0  0  0  0  0
   34.0550    3.0354   26.5290 H   0  0  0  0  0  0
   32.2432    1.4822   26.6402 H   0  0  0  0  0  0
   31.8836    2.6580   27.8640 H   0  0  0  0  0  0
   32.3658    1.3335   29.6912 H   0  0  0  0  0  0
  1  2  1  0  0  0
  1 23  1  0  0  0
  1 24  1  0  0  0
  1 25  1  0  0  0
  2  7  1  0  0  0
  2 10  1  0  0  0
  2  3  1  0  0  0
  3  4  1  0  0  0
  3 26  1  0  0  0
  3 27  1  0  0  0
  4  5  1  0  0  0
  4 28  1  0  0  0
  4 29  1  0  0  0
  5 22  1  0  0  0
  5  6  1  0  0  0
  5 30  1  0  0  0
  6  7  1  0  0  0
  6 14  1  0  0  0
  6 31  1  0  0  0
  7  8  1  0  0  0
  7 32  1  0  0  0
  8  9  1  0  0  0
  8 33  1  0  0  0
  8 34  1  0  0  0
  9 10  1  0  0  0
  9 35  1  0  0  0
  9 36  1  0  0  0
 10 11  1  0  0  0
 10 13  1  0  0  0
 11 12  3  0  0  0
 12 37  1  0  0  0
 13 38  1  0  0  0
 14 15  1  0  0  0
 14 39  1  0  0  0
 14 40  1  0  0  0
 15 16  1  0  0  0
 15 41  1  0  0  0
 15 42  1  0  0  0
 16 22  1  0  0  0
 16 17  2  0  0  0
 17 18  1  0  0  0
 17 43  1  0  0  0
 18 19  2  0  0  0
 18 20  1  0  0  0
 20 21  1  0  0  0
 20 44  1  0  0  0
 20 45  1  0  0  0
 21 22  1  0  0  0
 21 46  1  0  0  0
 21 47  1  0  0  0
 22 48  1  0  0  0
M  END
> <s_m_entry_id>
17619

> <s_m_entry_name>
ligand_docking-pose.546

> <s_m_Source_Path>
/home/csk/Desktop/cluster/DUD-E-result/esr1

> <s_m_Source_File>
ligand_docking-pose.sdf

> <i_m_Source_File_Index>
546

> <i_lp_mmshare_version>
53161

> <i_f3d_flags>
0

> <r_lp_tautomer_probability>
1

> <s_lp_Force_Field>
OPLS_2005

> <r_lp_Energy>
54.113122

> <b_lp_Chiralities_Consistent>
1

> <s_lp_Variant>
14600-1

> <s_i_glide_gridfile>
glide-grid_1sj0

> <i_i_glide_lignum>
771

> <i_i_glide_rotatable_bonds>
2

> <r_i_docking_score>
-7.63669523629003

> <r_i_glide_ligand_efficiency>
-0.347122510740456

> <r_i_glide_ligand_efficiency_sa>
-0.972650926648436

> <r_i_glide_ligand_efficiency_ln>
-1.86668687097615

> <r_i_glide_gscore>
-7.63669523629003

> <r_i_glide_lipo>
-4.01556233295293

> <r_i_glide_hbond>
-0.16

> <r_i_glide_metal>
0

> <r_i_glide_rewards>
-2.67570987633067

> <r_i_glide_evdw>
-20.7184734344482

> <r_i_glide_ecoul>
0.296254307031631

> <r_i_glide_erotb>
0.206062498661235

> <r_i_glide_esite>
0

> <r_i_glide_emodel>
-53.0762403037698

> <r_i_glide_energy>
-20.4222191274166

> <r_i_glide_einternal>
4.60229253768921

> <i_i_glide_confnum>
1

> <i_i_glide_posenum>
182

> <r_i_glide_eff_state_penalty>
0

> <s_user_duplicate_titles>
14600

> <s_m_subgroup_title>
dock_pv

> <s_m_subgroupid>
dock_pv1

> <b_m_subgroup_collapsed>
0

$$$$
323139
                    3D
 Schrodinger Suite 2021-1.
 30 32  0  0  1  0            999 V2000
   33.7879   -3.2116   23.6141 C   0  0  0  0  0  0
   33.9710   -3.7416   22.3349 C   0  0  0  0  0  0
   32.9753   -3.6133   21.3776 C   0  0  0  0  0  0
   31.8052   -2.9417   21.6852 C   0  0  0  0  0  0
   31.6600   -2.3615   22.9407 C   0  0  0  0  0  0
   32.6161   -2.5166   23.9414 C   0  0  0  0  0  0
   32.3619   -1.9762   25.3140 C   0  0  0  0  0  0
   31.6025   -0.8139   25.5295 C   0  0  0  0  0  0
   31.3637   -0.3120   26.8388 C   0  0  0  0  0  0
   30.5574    0.8308   27.0838 C   0  0  0  0  0  0
   30.3932    1.3169   28.3804 C   0  0  0  0  0  0
   31.0111    0.6869   29.4541 C   0  0  0  0  0  0
   31.7802   -0.4526   29.2542 C   0  0  0  0  0  0
   31.9587   -0.9781   27.9493 C   0  0  0  0  0  0
   32.7049   -2.1520   27.7187 C   0  0  0  0  0  0
   32.8607   -2.6470   26.4300 C   0  0  0  0  0  0
   33.2610   -2.8206   28.7514 F   0  0  0  0  0  0
   30.8603    1.1772   30.7210 O   0  0  0  0  0  0
   33.1445   -4.1424   20.1282 O   0  0  0  0  0  0
   34.5653   -3.3422   24.3503 H   0  0  0  0  0  0
   34.8623   -4.2845   22.0770 H   0  0  0  0  0  0
   31.0295   -2.8363   20.9418 H   0  0  0  0  0  0
   30.7589   -1.8089   23.1458 H   0  0  0  0  0  0
   31.1823   -0.2740   24.6950 H   0  0  0  0  0  0
   30.0628    1.3276   26.2646 H   0  0  0  0  0  0
   29.7836    2.1921   28.5505 H   0  0  0  0  0  0
   32.2461   -0.9452   30.0937 H   0  0  0  0  0  0
   33.4107   -3.5668   26.3041 H   0  0  0  0  0  0
   31.3521    0.6784   31.3765 H   0  0  0  0  0  0
   32.3926   -4.6975   19.8643 H   0  0  0  0  0  0
  1  6  1  0  0  0
  1  2  2  0  0  0
  1 20  1  0  0  0
  2  3  1  0  0  0
  2 21  1  0  0  0
  3  4  2  0  0  0
  3 19  1  0  0  0
  4  5  1  0  0  0
  4 22  1  0  0  0
  5  6  2  0  0  0
  5 23  1  0  0  0
  6  7  1  0  0  0
  7 16  1  0  0  0
  7  8  2  0  0  0
  8  9  1  0  0  0
  8 24  1  0  0  0
  9 14  2  0  0  0
  9 10  1  0  0  0
 10 11  2  0  0  0
 10 25  1  0  0  0
 11 12  1  0  0  0
 11 26  1  0  0  0
 12 13  2  0  0  0
 12 18  1  0  0  0
 13 14  1  0  0  0
 13 27  1  0  0  0
 14 15  1  0  0  0
 15 16  2  0  0  0
 15 17  1  0  0  0
 16 28  1  0  0  0
 18 29  1  0  0  0
 19 30  1  0  0  0
M  END
> <s_m_entry_id>
17620

> <s_m_entry_name>
ligand_docking-pose.547

> <s_m_Source_Path>
/home/csk/Desktop/cluster/DUD-E-result/esr1

> <s_m_Source_File>
ligand_docking-pose.sdf

> <i_m_Source_File_Index>
547

> <i_lp_mmshare_version>
53161

> <i_f3d_flags>
0

> <r_lp_tautomer_probability>
0.999999999997365

> <s_lp_Force_Field>
OPLS_2005

> <r_lp_Energy>
15.786168

> <b_lp_Chiralities_Consistent>
1

> <s_lp_Variant>
323139-1

> <s_i_glide_gridfile>
glide-grid_1sj0

> <i_i_glide_lignum>
235

> <i_i_glide_rotatable_bonds>
3

> <r_i_docking_score>
-7.63358620098545

> <r_i_glide_ligand_efficiency>
-0.401767694788708

> <r_i_glide_ligand_efficiency_sa>
-1.07207757812518

> <r_i_glide_ligand_efficiency_ln>
-1.93527805634824

> <r_i_glide_gscore>
-7.63358620098545

> <r_i_glide_lipo>
-3.61011290863615

> <r_i_glide_hbond>
-0.16

> <r_i_glide_metal>
0

> <r_i_glide_rewards>
-2.33789666957277

> <r_i_glide_evdw>
-28.1404495239258

> <r_i_glide_ecoul>
-2.60373401641846

> <r_i_glide_erotb>
0.272005955882521

> <r_i_glide_esite>
0

> <r_i_glide_emodel>
-43.4194669671429

> <r_i_glide_energy>
-30.7441835403442

> <r_i_glide_einternal>
2.86648321151733

> <i_i_glide_confnum>
2

> <i_i_glide_posenum>
328

> <r_i_glide_eff_state_penalty>
0

> <s_user_duplicate_titles>
323139

> <s_m_subgroup_title>
dock_pv

> <s_m_subgroupid>
dock_pv1

> <b_m_subgroup_collapsed>
0

$$$$
313832
                    3D
 Schrodinger Suite 2021-1.
 26 28  0  0  1  0            999 V2000
   33.1280   -2.9203   24.8081 C   0  0  0  0  0  0
   33.3676   -3.7423   23.7177 C   0  0  0  0  0  0
   32.6338   -3.6104   22.5487 C   0  0  0  0  0  0
   31.6730   -2.6117   22.4500 C   0  0  0  0  0  0
   31.4495   -1.7503   23.5307 C   0  0  0  0  0  0
   32.1543   -1.9243   24.7254 C   0  0  0  0  0  0
   31.8462   -1.1026   25.9305 C   0  0  0  0  0  0
   32.5549   -1.0462   27.0418 N   0  0  0  0  0  0
   31.8270   -0.2249   27.8490 C   0  0  0  0  0  0
   32.0665    0.2132   29.1577 C   0  0  0  0  0  0
   31.1124    1.0438   29.7507 C   0  0  0  0  0  0
   29.9550    1.4352   29.0645 C   0  0  0  0  0  0
   29.6939    0.9986   27.7625 C   0  0  0  0  0  0
   30.6620    0.1776   27.1784 C   0  0  0  0  0  0
   30.6802   -0.3846   25.9399 O   0  0  0  0  0  0
   28.0842    1.4583   26.8561 Br  0  0  0  0  0  0
   31.3112    1.4577   31.0375 O   0  0  0  0  0  0
   32.8609   -4.4917   21.5222 O   0  0  0  0  0  0
   33.6729   -3.0864   25.7256 H   0  0  0  0  0  0
   34.0600   -4.5557   23.8081 H   0  0  0  0  0  0
   31.0892   -2.5407   21.5448 H   0  0  0  0  0  0
   30.6845   -0.9905   23.4643 H   0  0  0  0  0  0
   32.9566   -0.0973   29.6837 H   0  0  0  0  0  0
   29.2353    2.0677   29.5622 H   0  0  0  0  0  0
   32.1396    1.1442   31.4052 H   0  0  0  0  0  0
   32.1032   -4.7279   20.9676 H   0  0  0  0  0  0
  1  6  1  0  0  0
  1  2  2  0  0  0
  1 19  1  0  0  0
  2  3  1  0  0  0
  2 20  1  0  0  0
  3  4  2  0  0  0
  3 18  1  0  0  0
  4  5  1  0  0  0
  4 21  1  0  0  0
  5  6  2  0  0  0
  5 22  1  0  0  0
  6  7  1  0  0  0
  7 15  1  0  0  0
  7  8  2  0  0  0
  8  9  1  0  0  0
  9 14  2  0  0  0
  9 10  1  0  0  0
 10 11  2  0  0  0
 10 23  1  0  0  0
 11 12  1  0  0  0
 11 17  1  0  0  0
 12 13  2  0  0  0
 12 24  1  0  0  0
 13 14  1  0  0  0
 13 16  1  0  0  0
 14 15  1  0  0  0
 17 25  1  0  0  0
 18 26  1  0  0  0
M  END
> <s_m_entry_id>
17621

> <s_m_entry_name>
ligand_docking-pose.548

> <s_m_Source_Path>
/home/csk/Desktop/cluster/DUD-E-result/esr1

> <s_m_Source_File>
ligand_docking-pose.sdf

> <i_m_Source_File_Index>
548

> <i_lp_mmshare_version>
53161

> <i_f3d_flags>
0

> <r_lp_tautomer_probability>
0.999999999997365

> <s_lp_Force_Field>
OPLS_2005

> <r_lp_Energy>
10.13309

> <b_lp_Chiralities_Consistent>
1

> <s_lp_Variant>
313832-1

> <s_i_glide_gridfile>
glide-grid_1sj0

> <i_i_glide_lignum>
382

> <i_i_glide_rotatable_bonds>
3

> <r_i_docking_score>
-7.6302888356401

> <r_i_glide_ligand_efficiency>
-0.423904935313339

> <r_i_glide_ligand_efficiency_sa>
-1.11094521011476

> <r_i_glide_ligand_efficiency_ln>
-1.96132640027348

> <r_i_glide_gscore>
-7.6302888356401

> <r_i_glide_lipo>
-3.67785596170396

> <r_i_glide_hbond>
-0.147880742297086

> <r_i_glide_metal>
0

> <r_i_glide_rewards>
-2.02981519513003

> <r_i_glide_evdw>
-30.7010803222656

> <r_i_glide_ecoul>
-2.91174840927124

> <r_i_glide_erotb>
0.19707934099495

> <r_i_glide_esite>
0

> <r_i_glide_emodel>
-48.4498333136256

> <r_i_glide_energy>
-33.6128287315369

> <r_i_glide_einternal>
2.64434838294983

> <i_i_glide_confnum>
1

> <i_i_glide_posenum>
318

> <r_i_glide_eff_state_penalty>
0

> <s_user_duplicate_titles>
313832

> <s_m_subgroup_title>
dock_pv

> <s_m_subgroupid>
dock_pv1

> <b_m_subgroup_collapsed>
0

$$$$
44513
                    3D
 Schrodinger Suite 2021-1.
 61 64  0  0  1  0            999 V2000
   31.7145   -0.7517   29.0628 C   0  0  0  0  0  0
   31.9517    0.0349   27.7537 C   0  0  0  0  0  0
   32.4059    1.4754   28.0674 C   0  0  0  0  0  0
   30.7715   -0.0062   26.7248 C   0  0  1  0  0  0
   30.4857   -1.3709   26.0468 C   0  0  2  0  0  0
   29.9562   -2.2896   27.0020 O   0  0  0  0  0  0
   28.7059   -1.8706   27.4065 C   0  0  0  0  0  0
   27.7555   -2.8610   27.6313 C   0  0  0  0  0  0
   26.4600   -2.4902   27.9743 C   0  0  0  0  0  0
   26.1173   -1.1450   28.0798 C   0  0  0  0  0  0
   27.0724   -0.1558   27.8619 C   0  0  0  0  0  0
   28.3847   -0.5035   27.5306 C   0  0  0  0  0  0
   29.4356    0.5377   27.2896 C   0  0  0  0  0  0
   29.2109    1.7350   27.4641 O   0  0  0  0  0  0
   25.5304   -3.4458   28.2640 O   0  0  0  0  0  0
   31.6213   -1.9252   25.2053 C   0  0  0  0  0  0
   31.6474   -1.5653   23.8593 C   0  0  0  0  0  0
   32.5653   -2.1421   23.0022 C   0  0  0  0  0  0
   33.5106   -3.0321   23.4924 C   0  0  0  0  0  0
   33.5322   -3.3419   24.8503 C   0  0  0  0  0  0
   32.5731   -2.8110   25.7124 C   0  0  0  0  0  0
   34.4584   -3.5757   22.6639 O   0  0  0  0  0  0
   34.0153   -4.1556   21.4429 C   0  0  0  0  0  0
   34.7716   -3.4658   20.2936 C   0  0  0  0  0  0
   34.2633   -3.7701   18.9555 N   0  0  0  0  0  0
   34.3326   -5.2002   18.6144 C   0  0  0  0  0  0
   33.9741   -5.4321   17.1319 C   0  0  0  0  0  0
   32.6208   -4.8044   16.7585 C   0  0  0  0  0  0
   32.5698   -3.3425   17.2312 C   0  0  0  0  0  0
   32.9292   -3.2048   18.7149 C   0  0  0  0  0  0
   31.0363    0.6580   25.9074 H   0  0  0  0  0  0
   29.6997   -1.2178   25.2959 H   0  0  0  0  0  0
   30.8694   -0.3580   29.6277 H   0  0  0  0  0  0
   31.5250   -1.8073   28.8726 H   0  0  0  0  0  0
   32.5891   -0.7050   29.7129 H   0  0  0  0  0  0
   32.8081   -0.4351   27.2673 H   0  0  0  0  0  0
   31.6494    2.0309   28.6239 H   0  0  0  0  0  0
   33.3168    1.4766   28.6669 H   0  0  0  0  0  0
   32.6229    2.0305   27.1536 H   0  0  0  0  0  0
   28.0230   -3.9031   27.5344 H   0  0  0  0  0  0
   25.1152   -0.8587   28.3479 H   0  0  0  0  0  0
   26.7782    0.8827   27.9330 H   0  0  0  0  0  0
   25.1424   -3.7417   27.4216 H   0  0  0  0  0  0
   30.9204   -0.8723   23.4643 H   0  0  0  0  0  0
   32.5525   -1.9005   21.9543 H   0  0  0  0  0  0
   34.2674   -4.0418   25.2109 H   0  0  0  0  0  0
   32.5572   -3.0969   26.7538 H   0  0  0  0  0  0
   34.2777   -5.2109   21.4633 H   0  0  0  0  0  0
   32.9325   -4.1272   21.3144 H   0  0  0  0  0  0
   34.7575   -2.3846   20.4392 H   0  0  0  0  0  0
   35.8260   -3.7413   20.3357 H   0  0  0  0  0  0
   35.3520   -5.5501   18.7846 H   0  0  0  0  0  0
   33.6880   -5.7869   19.2721 H   0  0  0  0  0  0
   34.7758   -5.0519   16.4978 H   0  0  0  0  0  0
   33.9390   -6.5047   16.9384 H   0  0  0  0  0  0
   31.8125   -5.3676   17.2296 H   0  0  0  0  0  0
   32.4608   -4.8615   15.6827 H   0  0  0  0  0  0
   31.5723   -2.9357   17.0636 H   0  0  0  0  0  0
   33.2607   -2.7189   16.6640 H   0  0  0  0  0  0
   32.1787   -3.6797   19.3488 H   0  0  0  0  0  0
   32.9354   -2.1444   18.9713 H   0  0  0  0  0  0
  1  2  1  0  0  0
  1 33  1  0  0  0
  1 34  1  0  0  0
  1 35  1  0  0  0
  2  3  1  0  0  0
  2  4  1  0  0  0
  2 36  1  0  0  0
  3 37  1  0  0  0
  3 38  1  0  0  0
  3 39  1  0  0  0
  4 31  1  0  0  0
  4 13  1  0  0  0
  4  5  1  0  0  0
  5 32  1  0  0  0
  5  6  1  0  0  0
  5 16  1  0  0  0
  6  7  1  0  0  0
  7 12  2  0  0  0
  7  8  1  0  0  0
  8  9  2  0  0  0
  8 40  1  0  0  0
  9 10  1  0  0  0
  9 15  1  0  0  0
 10 11  2  0  0  0
 10 41  1  0  0  0
 11 12  1  0  0  0
 11 42  1  0  0  0
 12 13  1  0  0  0
 13 14  2  0  0  0
 15 43  1  0  0  0
 16 21  1  0  0  0
 16 17  2  0  0  0
 17 18  1  0  0  0
 17 44  1  0  0  0
 18 19  2  0  0  0
 18 45  1  0  0  0
 19 20  1  0  0  0
 19 22  1  0  0  0
 20 21  2  0  0  0
 20 46  1  0  0  0
 21 47  1  0  0  0
 22 23  1  0  0  0
 23 24  1  0  0  0
 23 48  1  0  0  0
 23 49  1  0  0  0
 24 25  1  0  0  0
 24 50  1  0  0  0
 24 51  1  0  0  0
 25 30  1  0  0  0
 25 26  1  0  0  0
 26 27  1  0  0  0
 26 52  1  0  0  0
 26 53  1  0  0  0
 27 28  1  0  0  0
 27 54  1  0  0  0
 27 55  1  0  0  0
 28 29  1  0  0  0
 28 56  1  0  0  0
 28 57  1  0  0  0
 29 30  1  0  0  0
 29 58  1  0  0  0
 29 59  1  0  0  0
 30 60  1  0  0  0
 30 61  1  0  0  0
M  END
> <s_m_entry_id>
17622

> <s_m_entry_name>
ligand_docking-pose.549

> <s_m_Source_Path>
/home/csk/Desktop/cluster/DUD-E-result/esr1

> <s_m_Source_File>
ligand_docking-pose.sdf

> <i_m_Source_File_Index>
549

> <i_lp_mmshare_version>
53161

> <i_f3d_flags>
0

> <r_lp_tautomer_probability>
0.99995

> <s_lp_Force_Field>
OPLS_2005

> <r_lp_Energy>
38.559019

> <b_lp_Chiralities_Consistent>
1

> <s_lp_Variant>
44513-1

> <s_i_glide_gridfile>
glide-grid_1sj0

> <i_i_glide_lignum>
1462

> <i_i_glide_rotatable_bonds>
7

> <r_i_docking_score>
-7.6296892424657

> <r_i_glide_ligand_efficiency>
-0.254322974748857

> <r_i_glide_ligand_efficiency_sa>
-0.790240613254608

> <r_i_glide_ligand_efficiency_ln>
-1.73354852801086

> <r_i_glide_gscore>
-7.6296892424657

> <r_i_glide_lipo>
-4.00096062041254

> <r_i_glide_hbond>
-0.16

> <r_i_glide_metal>
0

> <r_i_glide_rewards>
-1.02792587717288

> <r_i_glide_evdw>
-41.3286895751953

> <r_i_glide_ecoul>
-5.62692785263062

> <r_i_glide_erotb>
0.469670911774074

> <r_i_glide_esite>
0

> <r_i_glide_emodel>
-39.1281170882913

> <r_i_glide_energy>
-46.9556174278259

> <r_i_glide_einternal>
14.736029624939

> <i_i_glide_confnum>
1

> <i_i_glide_posenum>
5

> <r_i_glide_eff_state_penalty>
0

> <s_user_duplicate_titles>
44513

> <s_m_subgroup_title>
dock_pv

> <s_m_subgroupid>
dock_pv1

> <b_m_subgroup_collapsed>
0

$$$$
14629
                    3D
 Schrodinger Suite 2021-1.
 48 51  0  0  1  0            999 V2000
   32.3839   -1.3441   24.4794 C   0  0  0  0  0  0
   32.6927   -1.3911   25.6607 C   0  0  0  0  0  0
   32.9912   -1.5365   27.1047 C   0  0  1  0  0  0
   32.4957   -0.4542   28.1888 C   0  0  1  0  0  0
   33.7396    0.2838   28.7454 C   0  0  0  0  0  0
   34.0354    1.3846   27.7134 C   0  0  0  0  0  0
   32.7159    1.6030   26.9443 C   0  0  0  0  0  0
   31.6689    0.7665   27.7052 C   0  0  1  0  0  0
   30.2406    0.3878   27.1379 C   0  0  2  0  0  0
   29.0804    1.1949   27.7903 C   0  0  0  0  0  0
   27.6580    0.7928   27.3067 C   0  0  0  0  0  0
   27.4074   -0.7171   27.4636 C   0  0  0  0  0  0
   26.3432   -1.2959   28.0687 C   0  0  0  0  0  0
   26.2380   -2.7542   28.2640 C   0  0  0  0  0  0
   25.2598   -3.3325   28.6638 O   0  0  0  0  0  0
   27.5213   -3.5396   28.2615 C   0  0  0  0  0  0
   28.2705   -3.0965   27.0640 C   0  0  0  0  0  0
   28.5129   -1.5717   26.8638 C   0  0  2  0  0  0
   29.8749   -1.1107   27.3791 C   0  0  2  0  0  0
   30.3559   -1.7190   28.7172 C   0  0  0  0  0  0
   31.6083   -1.0372   29.3075 C   0  0  0  0  0  0
   32.8599   -2.8860   27.4960 O   0  0  0  0  0  0
   28.4821   -1.3782   25.7890 H   0  0  0  0  0  0
   32.1014   -1.3190   23.4512 H   0  0  0  0  0  0
   34.0593   -1.4322   27.0661 H   0  0  0  0  0  0
   33.5150    0.7373   29.7135 H   0  0  0  0  0  0
   34.5895   -0.3723   28.9406 H   0  0  0  0  0  0
   34.8303    1.0746   27.0350 H   0  0  0  0  0  0
   34.3791    2.2946   28.2072 H   0  0  0  0  0  0
   32.8113    1.3140   25.8983 H   0  0  0  0  0  0
   32.4812    2.6580   26.9570 H   0  0  0  0  0  0
   31.4524    1.3954   28.5742 H   0  0  0  0  0  0
   30.2269    0.5697   26.0623 H   0  0  0  0  0  0
   29.1215    1.0596   28.8733 H   0  0  0  0  0  0
   29.2510    2.2603   27.6420 H   0  0  0  0  0  0
   27.5750    1.0866   26.2641 H   0  0  0  0  0  0
   26.9002    1.3658   27.8429 H   0  0  0  0  0  0
   25.5645   -0.6594   28.4560 H   0  0  0  0  0  0
   28.0800   -3.3434   29.1664 H   0  0  0  0  0  0
   27.3037   -4.6074   28.2318 H   0  0  0  0  0  0
   27.6598   -3.4472   26.2170 H   0  0  0  0  0  0
   29.2028   -3.6492   27.0223 H   0  0  0  0  0  0
   30.4690   -1.6456   26.6591 H   0  0  0  0  0  0
   29.5719   -1.6333   29.4575 H   0  0  0  0  0  0
   30.4598   -2.7812   28.5862 H   0  0  0  0  0  0
   32.2069   -1.7428   29.8639 H   0  0  0  0  0  0
   31.3216   -0.2814   30.0418 H   0  0  0  0  0  0
   33.2621   -3.4280   26.8130 H   0  0  0  0  0  0
  1  2  3  0  0  0
  1 24  1  0  0  0
  2  3  1  0  0  0
  3  4  1  0  0  0
  3 22  1  0  0  0
  3 25  1  0  0  0
  4  8  1  0  0  0
  4 21  1  0  0  0
  4  5  1  0  0  0
  5  6  1  0  0  0
  5 26  1  0  0  0
  5 27  1  0  0  0
  6  7  1  0  0  0
  6 28  1  0  0  0
  6 29  1  0  0  0
  7  8  1  0  0  0
  7 30  1  0  0  0
  7 31  1  0  0  0
  8  9  1  0  0  0
  8 32  1  0  0  0
  9 19  1  0  0  0
  9 10  1  0  0  0
  9 33  1  0  0  0
 10 11  1  0  0  0
 10 34  1  0  0  0
 10 35  1  0  0  0
 11 12  1  0  0  0
 11 36  1  0  0  0
 11 37  1  0  0  0
 12 18  1  0  0  0
 12 13  2  0  0  0
 13 14  1  0  0  0
 13 38  1  0  0  0
 14 15  2  0  0  0
 14 16  1  0  0  0
 16 17  1  0  0  0
 16 39  1  0  0  0
 16 40  1  0  0  0
 17 18  1  0  0  0
 17 41  1  0  0  0
 17 42  1  0  0  0
 18 23  1  0  0  0
 18 19  1  0  0  0
 19 20  1  0  0  0
 19 43  1  0  0  0
 20 21  1  0  0  0
 20 44  1  0  0  0
 20 45  1  0  0  0
 21 46  1  0  0  0
 21 47  1  0  0  0
 22 48  1  0  0  0
M  END
> <s_m_entry_id>
17623

> <s_m_entry_name>
ligand_docking-pose.550

> <s_m_Source_Path>
/home/csk/Desktop/cluster/DUD-E-result/esr1

> <s_m_Source_File>
ligand_docking-pose.sdf

> <i_m_Source_File_Index>
550

> <i_lp_mmshare_version>
53161

> <i_f3d_flags>
0

> <r_lp_tautomer_probability>
1

> <s_lp_Force_Field>
OPLS_2005

> <r_lp_Energy>
60.869043

> <b_lp_Chiralities_Consistent>
1

> <s_lp_Variant>
14629-4

> <s_i_glide_gridfile>
glide-grid_1sj0

> <i_i_glide_lignum>
1191

> <i_i_glide_rotatable_bonds>
3

> <r_i_docking_score>
-7.62835684507076

> <r_i_glide_ligand_efficiency>
-0.346743492957762

> <r_i_glide_ligand_efficiency_sa>
-0.971588903915404

> <r_i_glide_ligand_efficiency_ln>
-1.86464866401195

> <r_i_glide_gscore>
-7.62835684507076

> <r_i_glide_lipo>
-4.49653152073823

> <r_i_glide_hbond>
-0.0296776328005825

> <r_i_glide_metal>
0

> <r_i_glide_rewards>
-2.27441427272727

> <r_i_glide_evdw>
-23.8238296508789

> <r_i_glide_ecoul>
1.41183114051819

> <r_i_glide_erotb>
0.206062498661235

> <r_i_glide_esite>
-0.05437910599969

> <r_i_glide_emodel>
-16.087366233693

> <r_i_glide_energy>
-22.4119985103607

> <r_i_glide_einternal>
30.7077121734619

> <i_i_glide_confnum>
1

> <i_i_glide_posenum>
24

> <r_i_glide_eff_state_penalty>
0

> <s_user_duplicate_titles>
14629

> <s_m_subgroup_title>
dock_pv

> <s_m_subgroupid>
dock_pv1

> <b_m_subgroup_collapsed>
0

$$$$
339096
                    3D
 Schrodinger Suite 2021-1.
 38 40  0  0  1  0            999 V2000
   29.5227    1.6460   28.8374 C   0  0  0  0  0  0
   29.5166    1.0155   27.4351 C   0  0  2  0  0  0
   28.2029    1.2045   26.6642 C   0  0  0  0  0  0
   27.0538    0.4610   27.3332 C   0  0  0  0  0  0
   27.4425   -0.9795   27.5825 C   0  0  0  0  0  0
   26.4361   -1.9442   27.6764 C   0  0  0  0  0  0
   26.7351   -3.2872   27.8639 C   0  0  0  0  0  0
   28.0600   -3.6863   27.9308 C   0  0  0  0  0  0
   29.0770   -2.7392   27.8383 C   0  0  0  0  0  0
   28.7999   -1.3720   27.6845 C   0  0  0  0  0  0
   29.8549   -0.4099   27.5724 N   0  0  0  0  0  0
   31.5991   -0.8010   27.7370 S   0  0  0  0  0  0
   32.3478    0.4622   27.7234 O   0  0  0  0  0  0
   31.7626   -1.7405   28.8525 O   0  0  0  0  0  0
   32.0356   -1.6303   26.2234 C   0  0  0  0  0  0
   32.8600   -2.7516   26.2676 C   0  0  0  0  0  0
   33.2626   -3.3419   25.0769 C   0  0  0  0  0  0
   32.8207   -2.8438   23.8587 C   0  0  0  0  0  0
   31.9887   -1.7280   23.8166 C   0  0  0  0  0  0
   31.6007   -1.1100   25.0022 C   0  0  0  0  0  0
   33.2184   -3.4600   22.7050 O   0  0  0  0  0  0
   29.1832    2.6746   28.8098 H   0  0  0  0  0  0
   28.8618    1.1120   29.5178 H   0  0  0  0  0  0
   30.5203    1.6418   29.2791 H   0  0  0  0  0  0
   30.2958    1.5008   26.8481 H   0  0  0  0  0  0
   27.9479    2.2579   26.5892 H   0  0  0  0  0  0
   28.3461    0.8687   25.6369 H   0  0  0  0  0  0
   26.1559    0.5125   26.7180 H   0  0  0  0  0  0
   26.7958    0.9510   28.2639 H   0  0  0  0  0  0
   25.4017   -1.6523   27.5799 H   0  0  0  0  0  0
   25.9392   -4.0160   27.9137 H   0  0  0  0  0  0
   28.2991   -4.7318   28.0381 H   0  0  0  0  0  0
   30.0844   -3.1117   27.8515 H   0  0  0  0  0  0
   33.2203   -3.1392   27.2106 H   0  0  0  0  0  0
   33.9412   -4.1735   25.0933 H   0  0  0  0  0  0
   31.6605   -1.3372   22.8683 H   0  0  0  0  0  0
   30.9763   -0.2299   24.9700 H   0  0  0  0  0  0
   32.7676   -3.1441   21.9178 H   0  0  0  0  0  0
  1  2  1  0  0  0
  1 22  1  0  0  0
  1 23  1  0  0  0
  1 24  1  0  0  0
  2 11  1  0  0  0
  2  3  1  0  0  0
  2 25  1  0  0  0
  3  4  1  0  0  0
  3 26  1  0  0  0
  3 27  1  0  0  0
  4  5  1  0  0  0
  4 28  1  0  0  0
  4 29  1  0  0  0
  5 10  2  0  0  0
  5  6  1  0  0  0
  6  7  2  0  0  0
  6 30  1  0  0  0
  7  8  1  0  0  0
  7 31  1  0  0  0
  8  9  2  0  0  0
  8 32  1  0  0  0
  9 10  1  0  0  0
  9 33  1  0  0  0
 10 11  1  0  0  0
 11 12  1  0  0  0
 12 13  2  0  0  0
 12 14  2  0  0  0
 12 15  1  0  0  0
 15 20  1  0  0  0
 15 16  2  0  0  0
 16 17  1  0  0  0
 16 34  1  0  0  0
 17 18  2  0  0  0
 17 35  1  0  0  0
 18 19  1  0  0  0
 18 21  1  0  0  0
 19 20  2  0  0  0
 19 36  1  0  0  0
 20 37  1  0  0  0
 21 38  1  0  0  0
M  END
> <s_m_entry_id>
17624

> <s_m_entry_name>
ligand_docking-pose.551

> <s_m_Source_Path>
/home/csk/Desktop/cluster/DUD-E-result/esr1

> <s_m_Source_File>
ligand_docking-pose.sdf

> <i_m_Source_File_Index>
551

> <i_lp_mmshare_version>
53161

> <i_f3d_flags>
0

> <r_lp_tautomer_probability>
0.999999999997365

> <s_lp_Force_Field>
OPLS_2005

> <r_lp_Energy>
18.932131

> <b_lp_Chiralities_Consistent>
1

> <s_lp_Variant>
339096-1

> <s_i_glide_gridfile>
glide-grid_1sj0

> <i_i_glide_lignum>
924

> <i_i_glide_rotatable_bonds>
3

> <r_i_docking_score>
-7.6263333439518

> <r_i_glide_ligand_efficiency>
-0.363158730664371

> <r_i_glide_ligand_efficiency_sa>
-1.00192740087702

> <r_i_glide_ligand_efficiency_ln>
-1.88559550883454

> <r_i_glide_gscore>
-7.6263333439518

> <r_i_glide_lipo>
-4.1573825290213

> <r_i_glide_hbond>
0

> <r_i_glide_metal>
0

> <r_i_glide_rewards>
-1.70970747200727

> <r_i_glide_evdw>
-41.3193473815918

> <r_i_glide_ecoul>
-0.624555826187134

> <r_i_glide_erotb>
0.400407400084434

> <r_i_glide_esite>
0

> <r_i_glide_emodel>
-55.2454287981191

> <r_i_glide_energy>
-41.9439032077789

> <r_i_glide_einternal>
3.44130444526672

> <i_i_glide_confnum>
36

> <i_i_glide_posenum>
145

> <r_i_glide_eff_state_penalty>
0

> <s_user_duplicate_titles>
339096

> <s_m_subgroup_title>
dock_pv

> <s_m_subgroupid>
dock_pv1

> <b_m_subgroup_collapsed>
0

$$$$
323224
                    3D
 Schrodinger Suite 2021-1.
 30 32  0  0  1  0            999 V2000
   33.0563   -1.6953   28.6043 C   0  0  0  0  0  0
   32.7546   -0.9421   29.7343 C   0  0  0  0  0  0
   31.8017    0.0656   29.6911 C   0  0  0  0  0  0
   31.1222    0.3494   28.5035 C   0  0  0  0  0  0
   31.4285   -0.3941   27.3212 C   0  0  0  0  0  0
   32.4165   -1.4263   27.3701 C   0  0  0  0  0  0
   32.7468   -2.1423   26.1821 C   0  0  0  0  0  0
   32.1609   -1.8230   24.9489 C   0  0  0  0  0  0
   31.1787   -0.8278   24.9371 C   0  0  0  0  0  0
   30.7984   -0.1422   26.0823 C   0  0  0  0  0  0
   32.5556   -2.5100   23.6713 C   0  0  0  0  0  0
   33.8201   -3.0794   23.4702 C   0  0  0  0  0  0
   34.1429   -3.7157   22.2643 C   0  0  0  0  0  0
   33.1957   -3.8472   21.2575 C   0  0  0  0  0  0
   31.9454   -3.2676   21.4237 C   0  0  0  0  0  0
   31.6600   -2.5881   22.6011 C   0  0  0  0  0  0
   31.0071   -3.3406   20.4513 F   0  0  0  0  0  0
   33.4908   -4.5423   20.1172 O   0  0  0  0  0  0
   29.9340    1.6185   28.4851 Cl  0  0  0  0  0  0
   31.5425    0.7730   30.8377 O   0  0  0  0  0  0
   33.7978   -2.4787   28.6643 H   0  0  0  0  0  0
   33.2600   -1.1515   30.6645 H   0  0  0  0  0  0
   33.4928   -2.9204   26.2409 H   0  0  0  0  0  0
   30.6950   -0.5420   24.0165 H   0  0  0  0  0  0
   30.0406    0.6230   26.0057 H   0  0  0  0  0  0
   34.5658   -3.0283   24.2458 H   0  0  0  0  0  0
   35.1212   -4.1379   22.1047 H   0  0  0  0  0  0
   30.6863   -2.1420   22.6648 H   0  0  0  0  0  0
   32.7064   -5.0207   19.8067 H   0  0  0  0  0  0
   30.9059    1.4757   30.6910 H   0  0  0  0  0  0
  1  6  1  0  0  0
  1  2  2  0  0  0
  1 21  1  0  0  0
  2  3  1  0  0  0
  2 22  1  0  0  0
  3  4  2  0  0  0
  3 20  1  0  0  0
  4  5  1  0  0  0
  4 19  1  0  0  0
  5 10  2  0  0  0
  5  6  1  0  0  0
  6  7  2  0  0  0
  7  8  1  0  0  0
  7 23  1  0  0  0
  8  9  2  0  0  0
  8 11  1  0  0  0
  9 10  1  0  0  0
  9 24  1  0  0  0
 10 25  1  0  0  0
 11 16  1  0  0  0
 11 12  2  0  0  0
 12 13  1  0  0  0
 12 26  1  0  0  0
 13 14  2  0  0  0
 13 27  1  0  0  0
 14 15  1  0  0  0
 14 18  1  0  0  0
 15 16  2  0  0  0
 15 17  1  0  0  0
 16 28  1  0  0  0
 18 29  1  0  0  0
 20 30  1  0  0  0
M  END
> <s_m_entry_id>
17625

> <s_m_entry_name>
ligand_docking-pose.552

> <s_m_Source_Path>
/home/csk/Desktop/cluster/DUD-E-result/esr1

> <s_m_Source_File>
ligand_docking-pose.sdf

> <i_m_Source_File_Index>
552

> <i_lp_mmshare_version>
53161

> <i_f3d_flags>
0

> <r_lp_tautomer_probability>
0.999999999997365

> <s_lp_Force_Field>
OPLS_2005

> <r_lp_Energy>
18.782469

> <b_lp_Chiralities_Consistent>
1

> <s_lp_Variant>
323224-1

> <s_i_glide_gridfile>
glide-grid_1sj0

> <i_i_glide_lignum>
117

> <i_i_glide_rotatable_bonds>
3

> <r_i_docking_score>
-7.60190125714675

> <r_i_glide_ligand_efficiency>
-0.380095062857337

> <r_i_glide_ligand_efficiency_sa>
-1.03173673357044

> <r_i_glide_ligand_efficiency_ln>
-1.90250515717993

> <r_i_glide_gscore>
-7.60190125714675

> <r_i_glide_lipo>
-3.74230980048594

> <r_i_glide_hbond>
-0.16

> <r_i_glide_metal>
0

> <r_i_glide_rewards>
-2.11595060409157

> <r_i_glide_evdw>
-29.4228992462158

> <r_i_glide_ecoul>
-1.5388058423996

> <r_i_glide_erotb>
0.218324986101495

> <r_i_glide_esite>
-0.1

> <r_i_glide_emodel>
-43.0559556164236

> <r_i_glide_energy>
-30.9617050886154

> <r_i_glide_einternal>
1.60891497135162

> <i_i_glide_confnum>
3

> <i_i_glide_posenum>
273

> <r_i_glide_eff_state_penalty>
0

> <s_user_duplicate_titles>
323224

> <s_m_subgroup_title>
dock_pv

> <s_m_subgroupid>
dock_pv1

> <b_m_subgroup_collapsed>
0

$$$$
313157
                    3D
 Schrodinger Suite 2021-1.
 30 32  0  0  1  0            999 V2000
   26.4858   -1.3497   26.9916 C   0  0  0  0  0  0
   27.8477   -0.6806   27.1358 C   0  0  0  0  0  0
   29.0099   -1.4249   26.9292 C   0  0  0  0  0  0
   30.2683   -0.8258   27.0373 C   0  0  0  0  0  0
   30.3722    0.5155   27.4215 C   0  0  0  0  0  0
   29.2164    1.2595   27.6346 C   0  0  0  0  0  0
   27.9645    0.6743   27.4634 C   0  0  0  0  0  0
   26.8600    1.4579   27.6093 O   0  0  0  0  0  0
   31.5906    1.1292   27.5565 O   0  0  0  0  0  0
   31.4455   -1.6375   26.6698 C   0  0  0  0  0  0
   31.8292   -1.9764   25.3432 C   0  0  0  0  0  0
   31.3859   -1.7086   24.0408 C   0  0  0  0  0  0
   32.0607   -2.3125   22.9774 C   0  0  0  0  0  0
   33.1604   -3.1445   23.1869 C   0  0  0  0  0  0
   33.6301   -3.3992   24.4752 C   0  0  0  0  0  0
   32.9389   -2.8038   25.5313 C   0  0  0  0  0  0
   33.2074   -2.9157   26.8618 O   0  0  0  0  0  0
   32.2716   -2.1420   27.5611 N   0  0  0  0  0  0
   33.7726   -3.7154   22.1046 O   0  0  0  0  0  0
   26.5654   -2.3876   26.6637 H   0  0  0  0  0  0
   25.8677   -0.8240   26.2640 H   0  0  0  0  0  0
   25.9553   -1.3312   27.9441 H   0  0  0  0  0  0
   28.9367   -2.4702   26.6642 H   0  0  0  0  0  0
   29.2936    2.3001   27.9075 H   0  0  0  0  0  0
   26.0404    1.0305   27.3468 H   0  0  0  0  0  0
   32.3253    0.5354   27.3867 H   0  0  0  0  0  0
   30.5303   -1.0730   23.8624 H   0  0  0  0  0  0
   31.7196   -2.1425   21.9667 H   0  0  0  0  0  0
   34.4602   -4.0562   24.6638 H   0  0  0  0  0  0
   34.3958   -4.4127   22.3169 H   0  0  0  0  0  0
  1  2  1  0  0  0
  1 20  1  0  0  0
  1 21  1  0  0  0
  1 22  1  0  0  0
  2  7  1  0  0  0
  2  3  2  0  0  0
  3  4  1  0  0  0
  3 23  1  0  0  0
  4  5  2  0  0  0
  4 10  1  0  0  0
  5  6  1  0  0  0
  5  9  1  0  0  0
  6  7  2  0  0  0
  6 24  1  0  0  0
  7  8  1  0  0  0
  8 25  1  0  0  0
  9 26  1  0  0  0
 10 18  2  0  0  0
 10 11  1  0  0  0
 11 16  2  0  0  0
 11 12  1  0  0  0
 12 13  2  0  0  0
 12 27  1  0  0  0
 13 14  1  0  0  0
 13 28  1  0  0  0
 14 15  2  0  0  0
 14 19  1  0  0  0
 15 16  1  0  0  0
 15 29  1  0  0  0
 16 17  1  0  0  0
 17 18  1  0  0  0
 19 30  1  0  0  0
M  END
> <s_m_entry_id>
17626

> <s_m_entry_name>
ligand_docking-pose.553

> <s_m_Source_Path>
/home/csk/Desktop/cluster/DUD-E-result/esr1

> <s_m_Source_File>
ligand_docking-pose.sdf

> <i_m_Source_File_Index>
553

> <i_lp_mmshare_version>
53161

> <i_f3d_flags>
0

> <r_lp_tautomer_probability>
0.999999999898

> <s_lp_Force_Field>
OPLS_2005

> <r_lp_Energy>
30.837313

> <b_lp_Chiralities_Consistent>
1

> <s_lp_Variant>
313157-1

> <s_i_glide_gridfile>
glide-grid_1sj0

> <i_i_glide_lignum>
1023

> <i_i_glide_rotatable_bonds>
4

> <r_i_docking_score>
-7.58176118198137

> <r_i_glide_ligand_efficiency>
-0.399040062209546

> <r_i_glide_ligand_efficiency_sa>
-1.06479915886098

> <r_i_glide_ligand_efficiency_ln>
-1.92213930093135

> <r_i_glide_gscore>
-7.58176118198137

> <r_i_glide_lipo>
-3.58494632734148

> <r_i_glide_hbond>
-0.0744626004373168

> <r_i_glide_metal>
0

> <r_i_glide_rewards>
-2.11646076988263

> <r_i_glide_evdw>
-32.7326850891113

> <r_i_glide_ecoul>
-2.90572786331177

> <r_i_glide_erotb>
0.266601949632388

> <r_i_glide_esite>
0

> <r_i_glide_emodel>
-47.4848764079239

> <r_i_glide_energy>
-35.6384129524231

> <r_i_glide_einternal>
4.66288709640503

> <i_i_glide_confnum>
1

> <i_i_glide_posenum>
387

> <r_i_glide_eff_state_penalty>
0

> <s_user_duplicate_titles>
313157

> <s_m_subgroup_title>
dock_pv

> <s_m_subgroupid>
dock_pv1

> <b_m_subgroup_collapsed>
0

$$$$
313242
                    3D
 Schrodinger Suite 2021-1.
 26 28  0  0  1  0            999 V2000
   30.6505    0.5290   27.7380 C   0  0  0  0  0  0
   29.5766    1.3574   28.0479 C   0  0  0  0  0  0
   28.3124    1.0538   27.5500 C   0  0  0  0  0  0
   28.1026   -0.0628   26.7490 C   0  0  0  0  0  0
   29.1773   -0.8766   26.4218 C   0  0  0  0  0  0
   30.4476   -0.5882   26.9231 C   0  0  0  0  0  0
   31.5703   -1.4766   26.5484 C   0  0  0  0  0  0
   31.9065   -1.9312   25.2369 C   0  0  0  0  0  0
   31.4530   -1.7418   23.9220 C   0  0  0  0  0  0
   32.0648   -2.4716   22.8968 C   0  0  0  0  0  0
   33.1396   -3.3244   23.1542 C   0  0  0  0  0  0
   33.6399   -3.4793   24.4455 C   0  0  0  0  0  0
   32.9833   -2.7919   25.4648 C   0  0  0  0  0  0
   33.2600   -2.8431   26.7956 O   0  0  0  0  0  0
   32.3789   -1.9817   27.4567 N   0  0  0  0  0  0
   33.7045   -4.0314   22.1298 O   0  0  0  0  0  0
   27.2601    1.8578   27.8638 O   0  0  0  0  0  0
   31.6353    0.7582   28.1202 H   0  0  0  0  0  0
   29.7210    2.2274   28.6715 H   0  0  0  0  0  0
   27.1185   -0.3100   26.3812 H   0  0  0  0  0  0
   29.0148   -1.7417   25.7972 H   0  0  0  0  0  0
   30.6243   -1.0814   23.7110 H   0  0  0  0  0  0
   31.6973   -2.3675   21.8867 H   0  0  0  0  0  0
   34.4598   -4.1415   24.6637 H   0  0  0  0  0  0
   33.1681   -4.0432   21.3325 H   0  0  0  0  0  0
   26.4317    1.5763   27.4640 H   0  0  0  0  0  0
  1  6  1  0  0  0
  1  2  2  0  0  0
  1 18  1  0  0  0
  2  3  1  0  0  0
  2 19  1  0  0  0
  3  4  2  0  0  0
  3 17  1  0  0  0
  4  5  1  0  0  0
  4 20  1  0  0  0
  5  6  2  0  0  0
  5 21  1  0  0  0
  6  7  1  0  0  0
  7 15  2  0  0  0
  7  8  1  0  0  0
  8 13  2  0  0  0
  8  9  1  0  0  0
  9 10  2  0  0  0
  9 22  1  0  0  0
 10 11  1  0  0  0
 10 23  1  0  0  0
 11 12  2  0  0  0
 11 16  1  0  0  0
 12 13  1  0  0  0
 12 24  1  0  0  0
 13 14  1  0  0  0
 14 15  1  0  0  0
 16 25  1  0  0  0
 17 26  1  0  0  0
M  END
> <s_m_entry_id>
17627

> <s_m_entry_name>
ligand_docking-pose.554

> <s_m_Source_Path>
/home/csk/Desktop/cluster/DUD-E-result/esr1

> <s_m_Source_File>
ligand_docking-pose.sdf

> <i_m_Source_File_Index>
554

> <i_lp_mmshare_version>
53161

> <i_f3d_flags>
0

> <r_lp_tautomer_probability>
0.999999999997365

> <s_lp_Force_Field>
OPLS_2005

> <r_lp_Energy>
20.95282

> <b_lp_Chiralities_Consistent>
1

> <s_lp_Variant>
313242-1

> <s_i_glide_gridfile>
glide-grid_1sj0

> <i_i_glide_lignum>
195

> <i_i_glide_rotatable_bonds>
3

> <r_i_docking_score>
-7.55566346655129

> <r_i_glide_ligand_efficiency>
-0.444450792150076

> <r_i_glide_ligand_efficiency_sa>
-1.14280813872969

> <r_i_glide_ligand_efficiency_ln>
-1.97110434207037

> <r_i_glide_gscore>
-7.55566346655129

> <r_i_glide_lipo>
-3.56811291204248

> <r_i_glide_hbond>
-0.087101162205076

> <r_i_glide_metal>
0

> <r_i_glide_rewards>
-2.41563001438683

> <r_i_glide_evdw>
-28.3246097564697

> <r_i_glide_ecoul>
-2.65412306785583

> <r_i_glide_erotb>
0.32952957008496

> <r_i_glide_esite>
0

> <r_i_glide_emodel>
-43.7850415609299

> <r_i_glide_energy>
-30.9787328243256

> <r_i_glide_einternal>
1.82298564910889

> <i_i_glide_confnum>
4

> <i_i_glide_posenum>
323

> <r_i_glide_eff_state_penalty>
0

> <s_user_duplicate_titles>
313242

> <s_m_subgroup_title>
dock_pv

> <s_m_subgroupid>
dock_pv1

> <b_m_subgroup_collapsed>
0

$$$$
328932
                    3D
 Schrodinger Suite 2021-1.
 50 53  0  0  1  0            999 V2000
   28.7423    2.2580   28.4547 C   0  0  0  0  0  0
   29.6653    1.4323   29.3192 C   0  0  0  0  0  0
   30.0594    0.2015   28.5683 C   0  0  0  0  0  0
   31.2692   -0.1983   28.1515 C   0  0  0  0  0  0
   31.1746   -1.3612   27.2050 C   0  0  2  0  0  0
   29.7547   -1.8057   27.4985 C   0  0  0  0  0  0
   29.0680   -0.7849   28.1292 C   0  0  0  0  0  0
   27.6720   -0.8457   28.2636 C   0  0  0  0  0  0
   26.9650   -1.9648   27.8591 C   0  0  0  0  0  0
   27.6661   -3.0332   27.3388 C   0  0  0  0  0  0
   29.0451   -2.9420   27.1681 C   0  0  0  0  0  0
   26.9896   -4.1420   26.9453 O   0  0  0  0  0  0
   32.3290   -2.3853   27.3445 C   0  0  0  0  0  0
   32.8598   -2.5421   28.4413 O   0  0  0  0  0  0
   32.8751   -3.0693   26.3230 N   0  0  0  0  0  0
   32.8112   -2.9415   24.9296 C   0  0  0  0  0  0
   33.9591   -3.3421   24.2438 C   0  0  0  0  0  0
   33.9954   -3.3406   22.8514 C   0  0  0  0  0  0
   32.8693   -2.9551   22.1407 C   0  0  0  0  0  0
   31.7273   -2.5403   22.8151 C   0  0  0  0  0  0
   31.6948   -2.5172   24.2079 C   0  0  0  0  0  0
   32.8906   -2.9942   20.7732 O   0  0  0  0  0  0
   32.4793    0.5914   28.2883 C   0  0  0  0  0  0
   32.6756    1.6062   27.3636 C   0  0  0  0  0  0
   33.8768    2.2800   27.3386 C   0  0  0  0  0  0
   34.8564    1.9394   28.2557 C   0  0  0  0  0  0
   34.6781    0.9228   29.1827 C   0  0  0  0  0  0
   33.4689    0.2493   29.2105 C   0  0  0  0  0  0
   35.9949    2.6580   28.2636 O   0  0  0  0  0  0
   28.3595    3.0581   29.0642 H   0  0  0  0  0  0
   29.3015    2.6577   27.6090 H   0  0  0  0  0  0
   27.8758    1.7499   28.0468 H   0  0  0  0  0  0
   29.2061    1.1687   30.2655 H   0  0  0  0  0  0
   30.5546    2.0114   29.5686 H   0  0  0  0  0  0
   31.2795   -0.9271   26.2168 H   0  0  0  0  0  0
   27.0755   -0.0594   28.6640 H   0  0  0  0  0  0
   25.8910   -2.0065   27.9615 H   0  0  0  0  0  0
   29.5532   -3.7420   26.6929 H   0  0  0  0  0  0
   26.1154   -3.9393   26.5722 H   0  0  0  0  0  0
   33.6196   -3.6727   26.6322 H   0  0  0  0  0  0
   34.8313   -3.6709   24.7880 H   0  0  0  0  0  0
   34.8780   -3.6597   22.3168 H   0  0  0  0  0  0
   30.8582   -2.2354   22.2625 H   0  0  0  0  0  0
   30.7791   -2.2248   24.6909 H   0  0  0  0  0  0
   32.0253   -3.1550   20.3881 H   0  0  0  0  0  0
   31.8976    1.8580   26.6640 H   0  0  0  0  0  0
   34.0466    3.0580   26.6138 H   0  0  0  0  0  0
   35.4684    0.6573   29.8642 H   0  0  0  0  0  0
   33.3154   -0.5525   29.9187 H   0  0  0  0  0  0
   36.7253    2.1578   28.6645 H   0  0  0  0  0  0
  1  2  1  0  0  0
  1 30  1  0  0  0
  1 31  1  0  0  0
  1 32  1  0  0  0
  2  3  1  0  0  0
  2 33  1  0  0  0
  2 34  1  0  0  0
  3  7  1  0  0  0
  3  4  2  0  0  0
  4  5  1  0  0  0
  4 23  1  0  0  0
  5  6  1  0  0  0
  5 13  1  0  0  0
  5 35  1  0  0  0
  6 11  2  0  0  0
  6  7  1  0  0  0
  7  8  2  0  0  0
  8  9  1  0  0  0
  8 36  1  0  0  0
  9 10  2  0  0  0
  9 37  1  0  0  0
 10 11  1  0  0  0
 10 12  1  0  0  0
 11 38  1  0  0  0
 12 39  1  0  0  0
 13 14  2  0  0  0
 13 15  1  0  0  0
 15 16  1  0  0  0
 15 40  1  0  0  0
 16 21  1  0  0  0
 16 17  2  0  0  0
 17 18  1  0  0  0
 17 41  1  0  0  0
 18 19  2  0  0  0
 18 42  1  0  0  0
 19 20  1  0  0  0
 19 22  1  0  0  0
 20 21  2  0  0  0
 20 43  1  0  0  0
 21 44  1  0  0  0
 22 45  1  0  0  0
 23 28  1  0  0  0
 23 24  2  0  0  0
 24 25  1  0  0  0
 24 46  1  0  0  0
 25 26  2  0  0  0
 25 47  1  0  0  0
 26 27  1  0  0  0
 26 29  1  0  0  0
 27 28  2  0  0  0
 27 48  1  0  0  0
 28 49  1  0  0  0
 29 50  1  0  0  0
M  END
> <s_m_entry_id>
17628

> <s_m_entry_name>
ligand_docking-pose.555

> <s_m_Source_Path>
/home/csk/Desktop/cluster/DUD-E-result/esr1

> <s_m_Source_File>
ligand_docking-pose.sdf

> <i_m_Source_File_Index>
555

> <i_lp_mmshare_version>
53161

> <i_f3d_flags>
0

> <r_lp_tautomer_probability>
0.999999999997365

> <s_lp_Force_Field>
OPLS_2005

> <r_lp_Energy>
41.122841

> <b_lp_Chiralities_Consistent>
1

> <s_lp_Variant>
328932-2

> <s_i_glide_gridfile>
glide-grid_1sj0

> <i_i_glide_lignum>
1133

> <i_i_glide_rotatable_bonds>
8

> <r_i_docking_score>
-7.5512938203055

> <r_i_glide_ligand_efficiency>
-0.2603894420795

> <r_i_glide_ligand_efficiency_sa>
-0.799998863233854

> <r_i_glide_ligand_efficiency_ln>
-1.72905480056039

> <r_i_glide_gscore>
-7.5512938203055

> <r_i_glide_lipo>
-4.86771542285895

> <r_i_glide_hbond>
-0.456

> <r_i_glide_metal>
0

> <r_i_glide_rewards>
-0.241065467160287

> <r_i_glide_evdw>
-15.8284902572632

> <r_i_glide_ecoul>
-11.4269180297852

> <r_i_glide_erotb>
0.518949287044663

> <r_i_glide_esite>
0

> <r_i_glide_emodel>
-42.5271617144449

> <r_i_glide_energy>
-27.2554082870483

> <r_i_glide_einternal>
13.6918878555298

> <i_i_glide_confnum>
19

> <i_i_glide_posenum>
342

> <r_i_glide_eff_state_penalty>
0

> <s_user_duplicate_titles>
328932

> <s_m_subgroup_title>
dock_pv

> <s_m_subgroupid>
dock_pv1

> <b_m_subgroup_collapsed>
0

$$$$
330280
                    3D
 Schrodinger Suite 2021-1.
 29 31  0  0  1  0            999 V2000
   31.6600   -2.6269   22.5274 C   0  0  0  0  0  0
   31.8885   -3.2445   21.3079 C   0  0  0  0  0  0
   33.0989   -3.8740   21.0927 C   0  0  0  0  0  0
   34.0745   -3.8658   22.0776 C   0  0  0  0  0  0
   33.8059   -3.2987   23.3263 C   0  0  0  0  0  0
   32.5730   -2.6850   23.5831 C   0  0  0  0  0  0
   32.2141   -2.1154   24.9268 C   0  0  0  0  0  0
   32.8633   -2.4897   26.1064 C   0  0  0  0  0  0
   32.5050   -1.8936   27.3151 C   0  0  0  0  0  0
   31.4626   -0.9281   27.3469 C   0  0  0  0  0  0
   30.7965   -0.6547   26.1148 C   0  0  0  0  0  0
   31.1783   -1.2315   24.9452 N   0  0  0  0  0  0
   29.7127    0.2510   26.0907 C   0  0  0  0  0  0
   29.3498    0.9358   27.2432 C   0  0  0  0  0  0
   30.0278    0.7182   28.4376 C   0  0  0  0  0  0
   31.0602   -0.2257   28.5216 C   0  0  0  0  0  0
   31.8481   -0.5149   30.0423 Cl  0  0  0  0  0  0
   29.6601    1.4580   29.5278 O   0  0  0  0  0  0
   33.3023   -4.5420   19.9217 O   0  0  0  0  0  0
   30.7120   -2.1420   22.6642 H   0  0  0  0  0  0
   31.1281   -3.2380   20.5400 H   0  0  0  0  0  0
   35.0178   -4.3446   21.8649 H   0  0  0  0  0  0
   34.5647   -3.3418   24.0910 H   0  0  0  0  0  0
   33.6567   -3.2209   26.0948 H   0  0  0  0  0  0
   33.0290   -2.1568   28.2225 H   0  0  0  0  0  0
   29.1929    0.4335   25.1606 H   0  0  0  0  0  0
   28.5419    1.6517   27.1966 H   0  0  0  0  0  0
   28.9421    2.0660   29.3427 H   0  0  0  0  0  0
   32.5380   -5.1128   19.7340 H   0  0  0  0  0  0
  1  6  1  0  0  0
  1  2  2  0  0  0
  1 20  1  0  0  0
  2  3  1  0  0  0
  2 21  1  0  0  0
  3  4  2  0  0  0
  3 19  1  0  0  0
  4  5  1  0  0  0
  4 22  1  0  0  0
  5  6  2  0  0  0
  5 23  1  0  0  0
  6  7  1  0  0  0
  7 12  1  0  0  0
  7  8  2  0  0  0
  8  9  1  0  0  0
  8 24  1  0  0  0
  9 10  2  0  0  0
  9 25  1  0  0  0
 10 16  1  0  0  0
 10 11  1  0  0  0
 11 12  2  0  0  0
 11 13  1  0  0  0
 13 14  2  0  0  0
 13 26  1  0  0  0
 14 15  1  0  0  0
 14 27  1  0  0  0
 15 16  2  0  0  0
 15 18  1  0  0  0
 16 17  1  0  0  0
 18 28  1  0  0  0
 19 29  1  0  0  0
M  END
> <s_m_entry_id>
17629

> <s_m_entry_name>
ligand_docking-pose.556

> <s_m_Source_Path>
/home/csk/Desktop/cluster/DUD-E-result/esr1

> <s_m_Source_File>
ligand_docking-pose.sdf

> <i_m_Source_File_Index>
556

> <i_lp_mmshare_version>
53161

> <i_f3d_flags>
0

> <r_lp_tautomer_probability>
0.999999999997365

> <s_lp_Force_Field>
OPLS_2005

> <r_lp_Energy>
15.49115

> <b_lp_Chiralities_Consistent>
1

> <s_lp_Variant>
330280-1

> <s_i_glide_gridfile>
glide-grid_1sj0

> <i_i_glide_lignum>
330

> <i_i_glide_rotatable_bonds>
3

> <r_i_docking_score>
-7.54885208989584

> <r_i_glide_ligand_efficiency>
-0.39730800473136

> <r_i_glide_ligand_efficiency_sa>
-1.06017733383505

> <r_i_glide_ligand_efficiency_ln>
-1.91379613926519

> <r_i_glide_gscore>
-7.54885208989584

> <r_i_glide_lipo>
-3.50270539664503

> <r_i_glide_hbond>
-0.16

> <r_i_glide_metal>
0

> <r_i_glide_rewards>
-2.13767726269679

> <r_i_glide_evdw>
-28.7790431976318

> <r_i_glide_ecoul>
-3.68077564239502

> <r_i_glide_erotb>
0.242599075686829

> <r_i_glide_esite>
0

> <r_i_glide_emodel>
-46.01027190853

> <r_i_glide_energy>
-32.4598188400269

> <r_i_glide_einternal>
1.9374657869339

> <i_i_glide_confnum>
1

> <i_i_glide_posenum>
274

> <r_i_glide_eff_state_penalty>
0

> <s_user_duplicate_titles>
330280

> <s_m_subgroup_title>
dock_pv

> <s_m_subgroupid>
dock_pv1

> <b_m_subgroup_collapsed>
0

$$$$
308634
                    3D
 Schrodinger Suite 2021-1.
 31 33  0  0  1  0            999 V2000
   31.6600   -2.5420   22.6640 C   0  0  0  0  0  0
   31.8740   -3.1672   21.4395 C   0  0  0  0  0  0
   33.0550   -3.8667   21.2332 C   0  0  0  0  0  0
   34.0158   -3.9255   22.2315 C   0  0  0  0  0  0
   33.7702   -3.3420   23.4733 C   0  0  0  0  0  0
   32.5762   -2.6608   23.7028 C   0  0  0  0  0  0
   32.2782   -2.0990   25.0507 C   0  0  0  0  0  0
   32.8600   -2.3312   26.2852 C   0  0  0  0  0  0
   32.2277   -1.4586   27.2160 C   0  0  0  0  0  0
   31.2127   -0.8141   26.4775 C   0  0  0  0  0  0
   31.2500   -1.2017   25.1651 O   0  0  0  0  0  0
   30.3120    0.0951   27.0541 C   0  0  0  0  0  0
   30.5077    0.3839   28.4109 C   0  0  0  0  0  0
   31.5234   -0.2181   29.1585 C   0  0  0  0  0  0
   32.3890   -1.1513   28.5732 C   0  0  0  0  0  0
   33.6600   -1.9101   29.4640 Cl  0  0  0  0  0  0
   31.6600    0.1225   30.4795 O   0  0  0  0  0  0
   29.1661    0.7467   26.3010 C   0  0  0  0  0  0
   27.8731    0.4739   26.9496 C   0  0  0  0  0  0
   26.8600    0.2580   27.4640 N   0  0  0  0  0  0
   33.2600   -4.5420   20.0632 O   0  0  0  0  0  0
   30.7466   -2.0057   22.8331 H   0  0  0  0  0  0
   31.1258   -3.1177   20.6618 H   0  0  0  0  0  0
   34.9155   -4.4824   22.0404 H   0  0  0  0  0  0
   34.4964   -3.4338   24.2646 H   0  0  0  0  0  0
   33.6600   -3.0232   26.4786 H   0  0  0  0  0  0
   29.8457    1.0879   28.8953 H   0  0  0  0  0  0
   31.0818    0.8388   30.7475 H   0  0  0  0  0  0
   29.3114    1.8264   26.2640 H   0  0  0  0  0  0
   29.1163    0.3775   25.2762 H   0  0  0  0  0  0
   32.5025   -5.1198   19.8640 H   0  0  0  0  0  0
  1  6  1  0  0  0
  1  2  2  0  0  0
  1 22  1  0  0  0
  2  3  1  0  0  0
  2 23  1  0  0  0
  3  4  2  0  0  0
  3 21  1  0  0  0
  4  5  1  0  0  0
  4 24  1  0  0  0
  5  6  2  0  0  0
  5 25  1  0  0  0
  6  7  1  0  0  0
  7 11  1  0  0  0
  7  8  2  0  0  0
  8  9  1  0  0  0
  8 26  1  0  0  0
  9 15  2  0  0  0
  9 10  1  0  0  0
 10 11  1  0  0  0
 10 12  2  0  0  0
 12 13  1  0  0  0
 12 18  1  0  0  0
 13 14  2  0  0  0
 13 27  1  0  0  0
 14 15  1  0  0  0
 14 17  1  0  0  0
 15 16  1  0  0  0
 17 28  1  0  0  0
 18 19  1  0  0  0
 18 29  1  0  0  0
 18 30  1  0  0  0
 19 20  3  0  0  0
 21 31  1  0  0  0
M  END
> <s_m_entry_id>
17630

> <s_m_entry_name>
ligand_docking-pose.557

> <s_m_Source_Path>
/home/csk/Desktop/cluster/DUD-E-result/esr1

> <s_m_Source_File>
ligand_docking-pose.sdf

> <i_m_Source_File_Index>
557

> <i_lp_mmshare_version>
53161

> <i_f3d_flags>
0

> <r_lp_tautomer_probability>
0.999999999997365

> <s_lp_Force_Field>
OPLS_2005

> <r_lp_Energy>
8.969322

> <b_lp_Chiralities_Consistent>
1

> <s_lp_Variant>
308634-1

> <s_i_glide_gridfile>
glide-grid_1sj0

> <i_i_glide_lignum>
289

> <i_i_glide_rotatable_bonds>
4

> <r_i_docking_score>
-7.52444841356789

> <r_i_glide_ligand_efficiency>
-0.358307067312757

> <r_i_glide_ligand_efficiency_sa>
-0.98854202957417

> <r_i_glide_ligand_efficiency_ln>
-1.860404665675

> <r_i_glide_gscore>
-7.52444841356789

> <r_i_glide_lipo>
-3.46821994372347

> <r_i_glide_hbond>
-0.16

> <r_i_glide_metal>
0

> <r_i_glide_rewards>
-2.35957733332105

> <r_i_glide_evdw>
-31.6090812683105

> <r_i_glide_ecoul>
-2.43484234809875

> <r_i_glide_erotb>
0.409029279106968

> <r_i_glide_esite>
0

> <r_i_glide_emodel>
-47.5541506791237

> <r_i_glide_energy>
-34.0439236164093

> <r_i_glide_einternal>
3.50012016296387

> <i_i_glide_confnum>
6

> <i_i_glide_posenum>
188

> <r_i_glide_eff_state_penalty>
0

> <s_user_duplicate_titles>
308634

> <s_m_subgroup_title>
dock_pv

> <s_m_subgroupid>
dock_pv1

> <b_m_subgroup_collapsed>
0

$$$$
323140
                    3D
 Schrodinger Suite 2021-1.
 30 32  0  0  1  0            999 V2000
   29.8139    0.4797   26.3619 C   0  0  0  0  0  0
   29.5501    1.1022   27.5759 C   0  0  0  0  0  0
   30.2981    0.7855   28.7017 C   0  0  0  0  0  0
   31.2823   -0.1997   28.6524 C   0  0  0  0  0  0
   31.5813   -0.8497   27.4269 C   0  0  0  0  0  0
   30.8640   -0.4656   26.2565 C   0  0  0  0  0  0
   31.2289   -1.0232   25.0113 C   0  0  0  0  0  0
   32.2341   -1.9940   24.9020 C   0  0  0  0  0  0
   32.8599   -2.4229   26.0769 C   0  0  0  0  0  0
   32.5734   -1.8568   27.3174 C   0  0  0  0  0  0
   33.2587   -2.2705   28.4099 F   0  0  0  0  0  0
   32.5971   -2.5797   23.5699 C   0  0  0  0  0  0
   33.8574   -3.1329   23.3007 C   0  0  0  0  0  0
   34.1332   -3.7409   22.0711 C   0  0  0  0  0  0
   33.1381   -3.8516   21.1065 C   0  0  0  0  0  0
   31.8984   -3.2636   21.3322 C   0  0  0  0  0  0
   31.6600   -2.6094   22.5354 C   0  0  0  0  0  0
   30.9229   -3.3111   20.3952 F   0  0  0  0  0  0
   33.3769   -4.5420   19.9502 O   0  0  0  0  0  0
   30.0614    1.4580   29.8656 O   0  0  0  0  0  0
   29.2446    0.7431   25.4823 H   0  0  0  0  0  0
   28.7740    1.8513   27.6386 H   0  0  0  0  0  0
   31.8424   -0.4621   29.5384 H   0  0  0  0  0  0
   30.7061   -0.6624   24.1391 H   0  0  0  0  0  0
   33.6122   -3.1957   26.0364 H   0  0  0  0  0  0
   34.6348   -3.1019   24.0466 H   0  0  0  0  0  0
   35.1063   -4.1612   21.8640 H   0  0  0  0  0  0
   30.7012   -2.1421   22.6639 H   0  0  0  0  0  0
   32.5967   -5.0658   19.7071 H   0  0  0  0  0  0
   30.6560    1.2035   30.5742 H   0  0  0  0  0  0
  1  6  1  0  0  0
  1  2  2  0  0  0
  1 21  1  0  0  0
  2  3  1  0  0  0
  2 22  1  0  0  0
  3  4  2  0  0  0
  3 20  1  0  0  0
  4  5  1  0  0  0
  4 23  1  0  0  0
  5 10  2  0  0  0
  5  6  1  0  0  0
  6  7  2  0  0  0
  7  8  1  0  0  0
  7 24  1  0  0  0
  8  9  2  0  0  0
  8 12  1  0  0  0
  9 10  1  0  0  0
  9 25  1  0  0  0
 10 11  1  0  0  0
 12 17  1  0  0  0
 12 13  2  0  0  0
 13 14  1  0  0  0
 13 26  1  0  0  0
 14 15  2  0  0  0
 14 27  1  0  0  0
 15 16  1  0  0  0
 15 19  1  0  0  0
 16 17  2  0  0  0
 16 18  1  0  0  0
 17 28  1  0  0  0
 19 29  1  0  0  0
 20 30  1  0  0  0
M  END
> <s_m_entry_id>
17631

> <s_m_entry_name>
ligand_docking-pose.558

> <s_m_Source_Path>
/home/csk/Desktop/cluster/DUD-E-result/esr1

> <s_m_Source_File>
ligand_docking-pose.sdf

> <i_m_Source_File_Index>
558

> <i_lp_mmshare_version>
53161

> <i_f3d_flags>
0

> <r_lp_tautomer_probability>
0.999999999997365

> <s_lp_Force_Field>
OPLS_2005

> <r_lp_Energy>
16.754309

> <b_lp_Chiralities_Consistent>
1

> <s_lp_Variant>
323140-1

> <s_i_glide_gridfile>
glide-grid_1sj0

> <i_i_glide_lignum>
133

> <i_i_glide_rotatable_bonds>
3

> <r_i_docking_score>
-7.50656440125352

> <r_i_glide_ligand_efficiency>
-0.375328220062676

> <r_i_glide_ligand_efficiency_sa>
-1.01879753152599

> <r_i_glide_ligand_efficiency_ln>
-1.87864548656981

> <r_i_glide_gscore>
-7.50656440125352

> <r_i_glide_lipo>
-3.48596885856108

> <r_i_glide_hbond>
-0.16

> <r_i_glide_metal>
0

> <r_i_glide_rewards>
-2.32715801497273

> <r_i_glide_evdw>
-27.6618099212646

> <r_i_glide_ecoul>
-1.94734132289886

> <r_i_glide_erotb>
0.241754166778343

> <r_i_glide_esite>
-0.1

> <r_i_glide_emodel>
-41.1639860660609

> <r_i_glide_energy>
-29.6091512441635

> <r_i_glide_einternal>
2.37647151947021

> <i_i_glide_confnum>
4

> <i_i_glide_posenum>
110

> <r_i_glide_eff_state_penalty>
0

> <s_user_duplicate_titles>
323140

> <s_m_subgroup_title>
dock_pv

> <s_m_subgroupid>
dock_pv1

> <b_m_subgroup_collapsed>
0

$$$$
308954
                    3D
 Schrodinger Suite 2021-1.
 80 81  0  0  1  0            999 V2000
   41.5128   -2.5434   20.5497 C   0  0  0  0  0  0
   40.1453   -3.1909   20.8242 C   0  0  0  0  0  0
   39.3418   -3.5286   19.5572 C   0  0  0  0  0  0
   38.8211   -2.3007   18.7793 C   0  0  0  0  0  0
   37.9624   -2.6675   17.5495 C   0  0  0  0  0  0
   36.1593   -2.6780   17.7802 S   0  0  0  0  0  0
   35.9179   -4.0800   18.9136 C   0  0  0  0  0  0
   34.4896   -4.6484   18.9873 C   0  0  0  0  0  0
   33.3904   -3.6224   19.3241 C   0  0  0  0  0  0
   33.5678   -2.8657   20.6543 C   0  0  0  0  0  0
   33.5658   -3.7668   21.9103 C   0  0  0  0  0  0
   33.4104   -3.0131   23.2504 C   0  0  0  0  0  0
   32.0574   -2.2909   23.3681 C   0  0  0  0  0  0
   31.7501   -1.7187   24.7562 C   0  0  0  0  0  0
   30.3808   -1.0097   24.7849 C   0  0  0  0  0  0
   30.2000   -0.0773   25.9870 C   0  0  0  0  0  0
   30.1182   -0.7871   27.3456 C   0  0  0  0  0  0
   31.1135   -0.8223   28.2853 C   0  0  0  0  0  0
   30.9793   -1.5614   29.6120 C   0  0  0  0  0  0
   31.4132   -0.7704   30.8718 C   0  0  0  0  0  0
   32.4189   -0.1370   28.1654 C   0  0  0  0  0  0
   33.6256   -0.7756   28.5017 C   0  0  0  0  0  0
   34.8346   -0.0790   28.4667 C   0  0  0  0  0  0
   34.8611    1.2234   27.9806 C   0  0  0  0  0  0
   33.6703    1.8329   27.6192 C   0  0  0  0  0  0
   32.4582    1.1971   27.7855 C   0  0  0  0  0  0
   33.6601    3.0579   27.0638 O   0  0  0  0  0  0
   28.8373   -1.4999   27.5462 C   0  0  0  0  0  0
   27.6351   -0.7908   27.6400 C   0  0  0  0  0  0
   26.4439   -1.4722   27.8636 C   0  0  0  0  0  0
   26.4567   -2.8599   27.9898 C   0  0  0  0  0  0
   27.6377   -3.5769   27.8628 C   0  0  0  0  0  0
   28.8269   -2.8955   27.6347 C   0  0  0  0  0  0
   25.2939   -3.5218   28.2640 O   0  0  0  0  0  0
   42.0395   -2.3400   21.4803 H   0  0  0  0  0  0
   42.1420   -3.1999   19.9507 H   0  0  0  0  0  0
   41.4132   -1.5974   20.0167 H   0  0  0  0  0  0
   39.5480   -2.5411   21.4605 H   0  0  0  0  0  0
   40.3056   -4.1079   21.3985 H   0  0  0  0  0  0
   38.5002   -4.1421   19.8624 H   0  0  0  0  0  0
   39.9412   -4.1558   18.8968 H   0  0  0  0  0  0
   39.6682   -1.6980   18.4462 H   0  0  0  0  0  0
   38.2486   -1.6574   19.4511 H   0  0  0  0  0  0
   38.2877   -3.6101   17.1055 H   0  0  0  0  0  0
   38.1333   -1.9140   16.7807 H   0  0  0  0  0  0
   36.2144   -3.7402   19.9066 H   0  0  0  0  0  0
   36.6096   -4.8764   18.6374 H   0  0  0  0  0  0
   34.4554   -5.4564   19.7210 H   0  0  0  0  0  0
   34.2505   -5.1202   18.0334 H   0  0  0  0  0  0
   32.4308   -4.1410   19.3329 H   0  0  0  0  0  0
   33.3118   -2.8953   18.5143 H   0  0  0  0  0  0
   32.7484   -2.1523   20.7080 H   0  0  0  0  0  0
   34.4780   -2.2651   20.6320 H   0  0  0  0  0  0
   34.4895   -4.3450   21.9314 H   0  0  0  0  0  0
   32.7639   -4.5018   21.8270 H   0  0  0  0  0  0
   34.2142   -2.2861   23.3869 H   0  0  0  0  0  0
   33.5098   -3.7335   24.0633 H   0  0  0  0  0  0
   31.2600   -2.9653   23.0662 H   0  0  0  0  0  0
   32.0354   -1.4631   22.6644 H   0  0  0  0  0  0
   32.5384   -1.0154   25.0294 H   0  0  0  0  0  0
   31.7711   -2.5105   25.5073 H   0  0  0  0  0  0
   29.5786   -1.7420   24.7719 H   0  0  0  0  0  0
   30.2514   -0.4200   23.8768 H   0  0  0  0  0  0
   29.2843    0.5015   25.8563 H   0  0  0  0  0  0
   30.9867    0.6577   25.9089 H   0  0  0  0  0  0
   29.9722   -1.9160   29.7705 H   0  0  0  0  0  0
   31.5828   -2.4531   29.4640 H   0  0  0  0  0  0
   31.2525   -1.3419   31.7833 H   0  0  0  0  0  0
   32.4729   -0.5169   30.8662 H   0  0  0  0  0  0
   30.8602    0.1639   30.9665 H   0  0  0  0  0  0
   33.6356   -1.8043   28.8297 H   0  0  0  0  0  0
   35.7583   -0.5603   28.7524 H   0  0  0  0  0  0
   35.7993    1.7476   27.8683 H   0  0  0  0  0  0
   31.5465    1.7412   27.5928 H   0  0  0  0  0  0
   32.7861    3.3363   26.7971 H   0  0  0  0  0  0
   27.6231    0.2865   27.5633 H   0  0  0  0  0  0
   25.5189   -0.9239   27.9579 H   0  0  0  0  0  0
   27.6370   -4.6525   27.9532 H   0  0  0  0  0  0
   29.7495   -3.4435   27.5374 H   0  0  0  0  0  0
   24.8752   -3.7415   27.4093 H   0  0  0  0  0  0
  1  2  1  0  0  0
  1 35  1  0  0  0
  1 36  1  0  0  0
  1 37  1  0  0  0
  2  3  1  0  0  0
  2 38  1  0  0  0
  2 39  1  0  0  0
  3  4  1  0  0  0
  3 40  1  0  0  0
  3 41  1  0  0  0
  4  5  1  0  0  0
  4 42  1  0  0  0
  4 43  1  0  0  0
  5  6  1  0  0  0
  5 44  1  0  0  0
  5 45  1  0  0  0
  6  7  1  0  0  0
  7  8  1  0  0  0
  7 46  1  0  0  0
  7 47  1  0  0  0
  8  9  1  0  0  0
  8 48  1  0  0  0
  8 49  1  0  0  0
  9 10  1  0  0  0
  9 50  1  0  0  0
  9 51  1  0  0  0
 10 11  1  0  0  0
 10 52  1  0  0  0
 10 53  1  0  0  0
 11 12  1  0  0  0
 11 54  1  0  0  0
 11 55  1  0  0  0
 12 13  1  0  0  0
 12 56  1  0  0  0
 12 57  1  0  0  0
 13 14  1  0  0  0
 13 58  1  0  0  0
 13 59  1  0  0  0
 14 15  1  0  0  0
 14 60  1  0  0  0
 14 61  1  0  0  0
 15 16  1  0  0  0
 15 62  1  0  0  0
 15 63  1  0  0  0
 16 17  1  0  0  0
 16 64  1  0  0  0
 16 65  1  0  0  0
 17 18  2  0  0  0
 17 28  1  0  0  0
 18 19  1  0  0  0
 18 21  1  0  0  0
 19 20  1  0  0  0
 19 66  1  0  0  0
 19 67  1  0  0  0
 20 68  1  0  0  0
 20 69  1  0  0  0
 20 70  1  0  0  0
 21 26  1  0  0  0
 21 22  2  0  0  0
 22 23  1  0  0  0
 22 71  1  0  0  0
 23 24  2  0  0  0
 23 72  1  0  0  0
 24 25  1  0  0  0
 24 73  1  0  0  0
 25 26  2  0  0  0
 25 27  1  0  0  0
 26 74  1  0  0  0
 27 75  1  0  0  0
 28 33  1  0  0  0
 28 29  2  0  0  0
 29 30  1  0  0  0
 29 76  1  0  0  0
 30 31  2  0  0  0
 30 77  1  0  0  0
 31 32  1  0  0  0
 31 34  1  0  0  0
 32 33  2  0  0  0
 32 78  1  0  0  0
 33 79  1  0  0  0
 34 80  1  0  0  0
M  END
> <s_m_entry_id>
17632

> <s_m_entry_name>
ligand_docking-pose.559

> <s_m_Source_Path>
/home/csk/Desktop/cluster/DUD-E-result/esr1

> <s_m_Source_File>
ligand_docking-pose.sdf

> <i_m_Source_File_Index>
559

> <i_lp_mmshare_version>
53161

> <i_f3d_flags>
0

> <r_lp_tautomer_probability>
1

> <s_lp_Force_Field>
OPLS_2005

> <r_lp_Energy>
22.833459

> <b_lp_Chiralities_Consistent>
1

> <s_lp_Variant>
308954-1

> <s_i_glide_gridfile>
glide-grid_1sj0

> <i_i_glide_lignum>
1449

> <i_i_glide_rotatable_bonds>
20

> <r_i_docking_score>
-7.48958253457801

> <r_i_glide_ligand_efficiency>
-0.220281839252295

> <r_i_glide_ligand_efficiency_sa>
-0.713627645210007

> <r_i_glide_ligand_efficiency_ln>
-1.65465885756264

> <r_i_glide_gscore>
-7.48958253457801

> <r_i_glide_lipo>
-4.60172128005509

> <r_i_glide_hbond>
-0.16

> <r_i_glide_metal>
0

> <r_i_glide_rewards>
-1.01753359090909

> <r_i_glide_evdw>
-44.3341827392578

> <r_i_glide_ecoul>
-3.53284859657288

> <r_i_glide_erotb>
1.03630876283499

> <r_i_glide_esite>
0

> <r_i_glide_emodel>
-62.7039306251941

> <r_i_glide_energy>
-47.8670313358307

> <r_i_glide_einternal>
10.9819869995117

> <i_i_glide_confnum>
3

> <i_i_glide_posenum>
84

> <r_i_glide_eff_state_penalty>
0

> <s_user_duplicate_titles>
308954

> <s_m_subgroup_title>
dock_pv

> <s_m_subgroupid>
dock_pv1

> <b_m_subgroup_collapsed>
0

$$$$
313878
                    3D
 Schrodinger Suite 2021-1.
 32 34  0  0  1  0            999 V2000
   28.1775    1.1700   27.5355 C   0  0  0  0  0  0
   29.5114    1.0933   26.7749 C   0  0  0  0  0  0
   30.5745    0.2195   27.4330 C   0  0  0  0  0  0
   30.9028    0.3857   28.7875 C   0  0  0  0  0  0
   31.8975   -0.3758   29.4126 C   0  0  0  0  0  0
   32.6116   -1.3547   28.7154 C   0  0  0  0  0  0
   32.3196   -1.5351   27.3572 C   0  0  0  0  0  0
   31.3285   -0.7491   26.7477 C   0  0  0  0  0  0
   31.2891   -1.0971   25.4300 O   0  0  0  0  0  0
   32.2609   -2.0574   25.3152 C   0  0  0  0  0  0
   32.8677   -2.3802   26.4380 N   0  0  0  0  0  0
   32.5567   -2.6071   23.9573 C   0  0  0  0  0  0
   33.7210   -3.3419   23.7062 C   0  0  0  0  0  0
   33.9652   -3.8445   22.4274 C   0  0  0  0  0  0
   33.0314   -3.6773   21.4158 C   0  0  0  0  0  0
   31.8735   -2.9468   21.6541 C   0  0  0  0  0  0
   31.6605   -2.3863   22.9125 C   0  0  0  0  0  0
   33.2599   -4.2376   20.1880 O   0  0  0  0  0  0
   32.1902   -0.1478   30.7283 O   0  0  0  0  0  0
   27.4424    1.7444   26.9708 H   0  0  0  0  0  0
   27.7580    0.1768   27.7033 H   0  0  0  0  0  0
   28.2952    1.6596   28.5025 H   0  0  0  0  0  0
   29.9216    2.0966   26.6620 H   0  0  0  0  0  0
   29.3168    0.7152   25.7710 H   0  0  0  0  0  0
   30.3893    1.1361   29.3744 H   0  0  0  0  0  0
   33.3782   -1.9448   29.1941 H   0  0  0  0  0  0
   34.4486   -3.5076   24.4904 H   0  0  0  0  0  0
   34.8604   -4.4095   22.2229 H   0  0  0  0  0  0
   31.1517   -2.8023   20.8619 H   0  0  0  0  0  0
   30.7764   -1.7912   23.0799 H   0  0  0  0  0  0
   32.5021   -4.7557   19.8774 H   0  0  0  0  0  0
   32.9392   -0.6675   31.0296 H   0  0  0  0  0  0
  1  2  1  0  0  0
  1 20  1  0  0  0
  1 21  1  0  0  0
  1 22  1  0  0  0
  2  3  1  0  0  0
  2 23  1  0  0  0
  2 24  1  0  0  0
  3  8  1  0  0  0
  3  4  2  0  0  0
  4  5  1  0  0  0
  4 25  1  0  0  0
  5  6  2  0  0  0
  5 19  1  0  0  0
  6  7  1  0  0  0
  6 26  1  0  0  0
  7 11  1  0  0  0
  7  8  2  0  0  0
  8  9  1  0  0  0
  9 10  1  0  0  0
 10 11  2  0  0  0
 10 12  1  0  0  0
 12 17  1  0  0  0
 12 13  2  0  0  0
 13 14  1  0  0  0
 13 27  1  0  0  0
 14 15  2  0  0  0
 14 28  1  0  0  0
 15 16  1  0  0  0
 15 18  1  0  0  0
 16 17  2  0  0  0
 16 29  1  0  0  0
 17 30  1  0  0  0
 18 31  1  0  0  0
 19 32  1  0  0  0
M  END
> <s_m_entry_id>
17633

> <s_m_entry_name>
ligand_docking-pose.560

> <s_m_Source_Path>
/home/csk/Desktop/cluster/DUD-E-result/esr1

> <s_m_Source_File>
ligand_docking-pose.sdf

> <i_m_Source_File_Index>
560

> <i_lp_mmshare_version>
53161

> <i_f3d_flags>
0

> <r_lp_tautomer_probability>
0.999999999997365

> <s_lp_Force_Field>
OPLS_2005

> <r_lp_Energy>
10.411948

> <b_lp_Chiralities_Consistent>
1

> <s_lp_Variant>
313878-1

> <s_i_glide_gridfile>
glide-grid_1sj0

> <i_i_glide_lignum>
1159

> <i_i_glide_rotatable_bonds>
4

> <r_i_docking_score>
-7.48784738077118

> <r_i_glide_ligand_efficiency>
-0.394097230566904

> <r_i_glide_ligand_efficiency_sa>
-1.05160969876935

> <r_i_glide_ligand_efficiency_ln>
-1.89833013524107

> <r_i_glide_gscore>
-7.48784738077118

> <r_i_glide_lipo>
-3.32556829254567

> <r_i_glide_hbond>
-0.16

> <r_i_glide_metal>
0

> <r_i_glide_rewards>
-2.19956738756324

> <r_i_glide_evdw>
-30.9207572937012

> <r_i_glide_ecoul>
-3.51218724250793

> <r_i_glide_erotb>
0.270154250398971

> <r_i_glide_esite>
0

> <r_i_glide_emodel>
-48.3350576837693

> <r_i_glide_energy>
-34.4329445362091

> <r_i_glide_einternal>
3.94708013534546

> <i_i_glide_confnum>
1

> <i_i_glide_posenum>
208

> <r_i_glide_eff_state_penalty>
0

> <s_user_duplicate_titles>
313878

> <s_m_subgroup_title>
dock_pv

> <s_m_subgroupid>
dock_pv1

> <b_m_subgroup_collapsed>
0

$$$$
300904
                    3D
 Schrodinger Suite 2021-1.
 42 44  0  0  1  0            999 V2000
   29.3406   -1.7371   26.7426 C   0  0  0  0  0  0
   30.3884   -1.0679   27.6043 C   0  0  0  0  0  0
   30.4876   -1.3358   28.9232 C   0  0  0  0  0  0
   31.4495   -0.6316   29.8781 C   0  0  0  0  0  0
   32.4652    0.2733   29.1296 C   0  0  1  0  0  0
   33.6476   -0.5922   28.5906 C   0  0  0  0  0  0
   33.2514   -1.4390   27.5136 O   0  0  0  0  0  0
   32.5981   -0.8081   26.3990 C   0  0  2  0  0  0
   31.3333   -0.0626   26.9186 C   0  0  2  0  0  0
   31.7762    1.0532   27.9416 C   0  0  0  0  0  0
   32.7777    2.0578   27.2824 C   0  0  0  0  0  0
   30.5165    1.8465   28.3979 C   0  0  0  0  0  0
   32.4611   -1.7810   25.2165 C   0  0  0  0  0  0
   31.7015   -1.4900   24.0743 C   0  0  0  0  0  0
   31.7795   -2.3313   22.9582 C   0  0  0  0  0  0
   32.6310   -3.4268   22.9575 C   0  0  0  0  0  0
   33.3888   -3.7044   24.0785 C   0  0  0  0  0  0
   33.2715   -2.9180   25.2100 C   0  0  0  0  0  0
   32.7441   -4.2435   21.8642 O   0  0  0  0  0  0
   33.0045    1.1571   30.0947 O   0  0  0  0  0  0
   33.2599   -0.0634   25.9687 H   0  0  0  0  0  0
   30.8106    0.4117   26.0880 H   0  0  0  0  0  0
   29.8233   -2.1417   25.8641 H   0  0  0  0  0  0
   28.8279   -2.5484   27.2607 H   0  0  0  0  0  0
   28.5932   -1.0116   26.4218 H   0  0  0  0  0  0
   29.8002   -2.0553   29.3420 H   0  0  0  0  0  0
   30.8600   -0.0354   30.5743 H   0  0  0  0  0  0
   31.9762   -1.3420   30.5029 H   0  0  0  0  0  0
   34.5019    0.0058   28.2735 H   0  0  0  0  0  0
   34.0302   -1.2445   29.3767 H   0  0  0  0  0  0
   32.8609    2.9765   27.8637 H   0  0  0  0  0  0
   33.7953    1.6887   27.1810 H   0  0  0  0  0  0
   32.4610    2.3301   26.2780 H   0  0  0  0  0  0
   30.7953    2.6579   29.0644 H   0  0  0  0  0  0
   30.0020    2.2802   27.5414 H   0  0  0  0  0  0
   29.7752    1.2492   28.9258 H   0  0  0  0  0  0
   31.0817   -0.6072   24.0313 H   0  0  0  0  0  0
   31.2189   -2.1422   22.0628 H   0  0  0  0  0  0
   34.0592   -4.5420   24.0843 H   0  0  0  0  0  0
   33.8829   -3.1610   26.0601 H   0  0  0  0  0  0
   32.0017   -4.2490   21.2516 H   0  0  0  0  0  0
   33.4441    0.6375   30.7714 H   0  0  0  0  0  0
  1  2  1  0  0  0
  1 23  1  0  0  0
  1 24  1  0  0  0
  1 25  1  0  0  0
  2  9  1  0  0  0
  2  3  2  0  0  0
  3  4  1  0  0  0
  3 26  1  0  0  0
  4  5  1  0  0  0
  4 27  1  0  0  0
  4 28  1  0  0  0
  5 10  1  0  0  0
  5  6  1  0  0  0
  5 20  1  0  0  0
  6  7  1  0  0  0
  6 29  1  0  0  0
  6 30  1  0  0  0
  7  8  1  0  0  0
  8 21  1  0  0  0
  8  9  1  0  0  0
  8 13  1  0  0  0
  9 22  1  0  0  0
  9 10  1  0  0  0
 10 11  1  0  0  0
 10 12  1  0  0  0
 11 31  1  0  0  0
 11 32  1  0  0  0
 11 33  1  0  0  0
 12 34  1  0  0  0
 12 35  1  0  0  0
 12 36  1  0  0  0
 13 18  1  0  0  0
 13 14  2  0  0  0
 14 15  1  0  0  0
 14 37  1  0  0  0
 15 16  2  0  0  0
 15 38  1  0  0  0
 16 17  1  0  0  0
 16 19  1  0  0  0
 17 18  2  0  0  0
 17 39  1  0  0  0
 18 40  1  0  0  0
 19 41  1  0  0  0
 20 42  1  0  0  0
M  END
> <s_m_entry_id>
17634

> <s_m_entry_name>
ligand_docking-pose.561

> <s_m_Source_Path>
/home/csk/Desktop/cluster/DUD-E-result/esr1

> <s_m_Source_File>
ligand_docking-pose.sdf

> <i_m_Source_File_Index>
561

> <i_lp_mmshare_version>
53161

> <i_f3d_flags>
0

> <r_lp_tautomer_probability>
0.999999999997365

> <s_lp_Force_Field>
OPLS_2005

> <r_lp_Energy>
33.454429

> <b_lp_Chiralities_Consistent>
1

> <s_lp_Variant>
300904-1

> <s_i_glide_gridfile>
glide-grid_1sj0

> <i_i_glide_lignum>
941

> <i_i_glide_rotatable_bonds>
3

> <r_i_docking_score>
-7.46041720438823

> <r_i_glide_ligand_efficiency>
-0.373020860219411

> <r_i_glide_ligand_efficiency_sa>
-1.01253439332586

> <r_i_glide_ligand_efficiency_ln>
-1.86709636523084

> <r_i_glide_gscore>
-7.46041720438823

> <r_i_glide_lipo>
-4.18250540102541

> <r_i_glide_hbond>
0

> <r_i_glide_metal>
0

> <r_i_glide_rewards>
-2.14714992248611

> <r_i_glide_evdw>
-24.7605628967285

> <r_i_glide_ecoul>
-0.875191032886505

> <r_i_glide_erotb>
0.23854491889269

> <r_i_glide_esite>
0

> <r_i_glide_emodel>
-29.3545780366493

> <r_i_glide_energy>
-25.635753929615

> <r_i_glide_einternal>
1.14245283603668

> <i_i_glide_confnum>
1

> <i_i_glide_posenum>
228

> <r_i_glide_eff_state_penalty>
0

> <s_user_duplicate_titles>
300904

> <s_m_subgroup_title>
dock_pv

> <s_m_subgroupid>
dock_pv1

> <b_m_subgroup_collapsed>
0

$$$$
313218
                    3D
 Schrodinger Suite 2021-1.
 35 37  0  0  1  0            999 V2000
   26.9117   -3.1345   27.8700 C   0  0  0  0  0  0
   26.1282   -1.8144   27.7737 C   0  0  0  0  0  0
   26.6585   -0.8066   26.7371 C   0  0  0  0  0  0
   28.0604   -0.2626   27.0214 C   0  0  0  0  0  0
   29.1610   -1.0547   26.6958 C   0  0  0  0  0  0
   30.4597   -0.6194   26.9574 C   0  0  0  0  0  0
   30.6730    0.6251   27.5513 C   0  0  0  0  0  0
   29.5846    1.4394   27.8533 C   0  0  0  0  0  0
   28.2880    1.0061   27.5779 C   0  0  0  0  0  0
   27.2600    1.8557   27.8626 O   0  0  0  0  0  0
   31.5785   -1.5031   26.5817 C   0  0  0  0  0  0
   31.9090   -1.9438   25.2662 C   0  0  0  0  0  0
   31.4505   -1.7420   23.9553 C   0  0  0  0  0  0
   32.0684   -2.4520   22.9195 C   0  0  0  0  0  0
   33.1455   -3.3045   23.1652 C   0  0  0  0  0  0
   33.6425   -3.4777   24.4551 C   0  0  0  0  0  0
   32.9855   -2.8057   25.4836 C   0  0  0  0  0  0
   33.2598   -2.8752   26.8145 O   0  0  0  0  0  0
   32.3848   -2.0157   27.4858 N   0  0  0  0  0  0
   33.7144   -3.9949   22.1313 O   0  0  0  0  0  0
   26.4058   -3.8339   28.5359 H   0  0  0  0  0  0
   27.9170   -2.9836   28.2636 H   0  0  0  0  0  0
   26.9961   -3.6177   26.8954 H   0  0  0  0  0  0
   25.1104   -2.0657   27.4786 H   0  0  0  0  0  0
   26.0603   -1.3411   28.7537 H   0  0  0  0  0  0
   26.6544   -1.2791   25.7527 H   0  0  0  0  0  0
   25.9458    0.0143   26.6639 H   0  0  0  0  0  0
   29.0054   -2.0317   26.2640 H   0  0  0  0  0  0
   31.6765    0.9673   27.7602 H   0  0  0  0  0  0
   29.7468    2.4112   28.2959 H   0  0  0  0  0  0
   26.4033    1.5110   27.5955 H   0  0  0  0  0  0
   30.6188   -1.0824   23.7547 H   0  0  0  0  0  0
   31.7011   -2.3350   21.9108 H   0  0  0  0  0  0
   34.4600   -4.1422   24.6640 H   0  0  0  0  0  0
   33.1793   -3.9952   21.3332 H   0  0  0  0  0  0
  1  2  1  0  0  0
  1 21  1  0  0  0
  1 22  1  0  0  0
  1 23  1  0  0  0
  2  3  1  0  0  0
  2 24  1  0  0  0
  2 25  1  0  0  0
  3  4  1  0  0  0
  3 26  1  0  0  0
  3 27  1  0  0  0
  4  9  1  0  0  0
  4  5  2  0  0  0
  5  6  1  0  0  0
  5 28  1  0  0  0
  6  7  2  0  0  0
  6 11  1  0  0  0
  7  8  1  0  0  0
  7 29  1  0  0  0
  8  9  2  0  0  0
  8 30  1  0  0  0
  9 10  1  0  0  0
 10 31  1  0  0  0
 11 19  2  0  0  0
 11 12  1  0  0  0
 12 17  2  0  0  0
 12 13  1  0  0  0
 13 14  2  0  0  0
 13 32  1  0  0  0
 14 15  1  0  0  0
 14 33  1  0  0  0
 15 16  2  0  0  0
 15 20  1  0  0  0
 16 17  1  0  0  0
 16 34  1  0  0  0
 17 18  1  0  0  0
 18 19  1  0  0  0
 20 35  1  0  0  0
M  END
> <s_m_entry_id>
17635

> <s_m_entry_name>
ligand_docking-pose.562

> <s_m_Source_Path>
/home/csk/Desktop/cluster/DUD-E-result/esr1

> <s_m_Source_File>
ligand_docking-pose.sdf

> <i_m_Source_File_Index>
562

> <i_lp_mmshare_version>
53161

> <i_f3d_flags>
0

> <r_lp_tautomer_probability>
0.999999999997365

> <s_lp_Force_Field>
OPLS_2005

> <r_lp_Energy>
21.222251

> <b_lp_Chiralities_Consistent>
1

> <s_lp_Variant>
313218-1

> <s_i_glide_gridfile>
glide-grid_1sj0

> <i_i_glide_lignum>
1272

> <i_i_glide_rotatable_bonds>
5

> <r_i_docking_score>
-7.45952224713329

> <r_i_glide_ligand_efficiency>
-0.372976112356665

> <r_i_glide_ligand_efficiency_sa>
-1.01241292893904

> <r_i_glide_ligand_efficiency_ln>
-1.8668723869476

> <r_i_glide_gscore>
-7.45952224713329

> <r_i_glide_lipo>
-3.61035182597631

> <r_i_glide_hbond>
0

> <r_i_glide_metal>
0

> <r_i_glide_rewards>
-2.17889947205795

> <r_i_glide_evdw>
-34.9668502807617

> <r_i_glide_ecoul>
-2.76427459716797

> <r_i_glide_erotb>
0.492712754514241

> <r_i_glide_esite>
0

> <r_i_glide_emodel>
-51.4523376269415

> <r_i_glide_energy>
-37.7311248779297

> <r_i_glide_einternal>
3.80385661125183

> <i_i_glide_confnum>
6

> <i_i_glide_posenum>
205

> <r_i_glide_eff_state_penalty>
0

> <s_user_duplicate_titles>
313218

> <s_m_subgroup_title>
dock_pv

> <s_m_subgroupid>
dock_pv1

> <b_m_subgroup_collapsed>
0

$$$$
301010
                    3D
 Schrodinger Suite 2021-1.
 42 44  0  0  1  0            999 V2000
   33.1425   -3.1189   27.0684 C   0  0  0  0  0  0
   32.8599   -2.5525   25.6968 C   0  0  0  0  0  0
   33.2393   -3.3420   24.6092 C   0  0  0  0  0  0
   32.8173   -3.0322   23.3276 C   0  0  0  0  0  0
   32.0126   -1.9250   23.1308 C   0  0  0  0  0  0
   31.6869   -1.0795   24.1937 C   0  0  0  0  0  0
   32.1480   -1.3472   25.4891 C   0  0  0  0  0  0
   31.9360   -0.2663   26.5763 C   0  0  1  0  0  0
   30.5758   -0.2906   27.3495 C   0  0  2  0  0  0
   30.5329    0.8343   28.4159 C   0  0  0  0  0  0
   31.7523    0.6616   29.3747 C   0  0  1  0  0  0
   31.7679   -0.7311   30.0570 C   0  0  0  0  0  0
   30.9484   -1.7420   29.3182 C   0  0  0  0  0  0
   30.3664   -1.5889   28.1146 C   0  0  0  0  0  0
   29.4786   -2.6577   27.5103 C   0  0  0  0  0  0
   33.0168    0.8093   28.4831 C   0  0  0  0  0  0
   33.0586   -0.1928   27.4641 O   0  0  0  0  0  0
   31.6834    1.6880   30.5112 C   0  0  0  0  0  0
   32.7287    1.5171   31.4603 O   0  0  0  0  0  0
   33.1538   -3.8219   22.2630 O   0  0  0  0  0  0
   31.9636    0.6757   26.0307 H   0  0  0  0  0  0
   29.7555   -0.1448   26.6451 H   0  0  0  0  0  0
   33.6600   -4.0752   27.0407 H   0  0  0  0  0  0
   33.6600   -2.4444   27.7448 H   0  0  0  0  0  0
   32.1668   -3.3420   27.4640 H   0  0  0  0  0  0
   33.8208   -4.2350   24.7637 H   0  0  0  0  0  0
   31.6600   -1.7420   22.1325 H   0  0  0  0  0  0
   31.1007   -0.1942   24.0030 H   0  0  0  0  0  0
   29.5912    0.8060   28.9690 H   0  0  0  0  0  0
   30.5578    1.8108   27.9281 H   0  0  0  0  0  0
   32.7765   -1.0847   30.2788 H   0  0  0  0  0  0
   31.2519   -0.6944   31.0178 H   0  0  0  0  0  0
   30.8600   -2.6502   29.8637 H   0  0  0  0  0  0
   29.9876   -3.1074   26.6640 H   0  0  0  0  0  0
   29.2599   -3.4555   28.2214 H   0  0  0  0  0  0
   28.5310   -2.2369   27.1734 H   0  0  0  0  0  0
   33.0760    1.8045   28.0384 H   0  0  0  0  0  0
   33.9214    0.7052   29.0842 H   0  0  0  0  0  0
   30.7349    1.6053   31.0444 H   0  0  0  0  0  0
   31.6868    2.6580   30.0526 H   0  0  0  0  0  0
   32.6410    0.6510   31.8632 H   0  0  0  0  0  0
   33.6028   -4.6364   22.4962 H   0  0  0  0  0  0
  1  2  1  0  0  0
  1 23  1  0  0  0
  1 24  1  0  0  0
  1 25  1  0  0  0
  2  7  1  0  0  0
  2  3  2  0  0  0
  3  4  1  0  0  0
  3 26  1  0  0  0
  4  5  2  0  0  0
  4 20  1  0  0  0
  5  6  1  0  0  0
  5 27  1  0  0  0
  6  7  2  0  0  0
  6 28  1  0  0  0
  7  8  1  0  0  0
  8 21  1  0  0  0
  8 17  1  0  0  0
  8  9  1  0  0  0
  9 22  1  0  0  0
  9 14  1  0  0  0
  9 10  1  0  0  0
 10 11  1  0  0  0
 10 29  1  0  0  0
 10 30  1  0  0  0
 11 12  1  0  0  0
 11 16  1  0  0  0
 11 18  1  0  0  0
 12 13  1  0  0  0
 12 31  1  0  0  0
 12 32  1  0  0  0
 13 14  2  0  0  0
 13 33  1  0  0  0
 14 15  1  0  0  0
 15 34  1  0  0  0
 15 35  1  0  0  0
 15 36  1  0  0  0
 16 17  1  0  0  0
 16 37  1  0  0  0
 16 38  1  0  0  0
 18 19  1  0  0  0
 18 39  1  0  0  0
 18 40  1  0  0  0
 19 41  1  0  0  0
 20 42  1  0  0  0
M  END
> <s_m_entry_id>
17636

> <s_m_entry_name>
ligand_docking-pose.563

> <s_m_Source_Path>
/home/csk/Desktop/cluster/DUD-E-result/esr1

> <s_m_Source_File>
ligand_docking-pose.sdf

> <i_m_Source_File_Index>
563

> <i_lp_mmshare_version>
53161

> <i_f3d_flags>
0

> <r_lp_tautomer_probability>
0.999999999997365

> <s_lp_Force_Field>
OPLS_2005

> <r_lp_Energy>
28.019176

> <b_lp_Chiralities_Consistent>
1

> <s_lp_Variant>
301010-1

> <s_i_glide_gridfile>
glide-grid_1sj0

> <i_i_glide_lignum>
996

> <i_i_glide_rotatable_bonds>
4

> <r_i_docking_score>
-7.45122082081923

> <r_i_glide_ligand_efficiency>
-0.372561041040961

> <r_i_glide_ligand_efficiency_sa>
-1.01128625204868

> <r_i_glide_ligand_efficiency_ln>
-1.86479481374055

> <r_i_glide_gscore>
-7.45122082081923

> <r_i_glide_lipo>
-4.37923028199183

> <r_i_glide_hbond>
0

> <r_i_glide_metal>
0

> <r_i_glide_rewards>
-2.41570775686466

> <r_i_glide_evdw>
-24.3690910339355

> <r_i_glide_ecoul>
0.567212879657745

> <r_i_glide_erotb>
0.47708983778538

> <r_i_glide_esite>
0

> <r_i_glide_emodel>
-24.5658134062628

> <r_i_glide_energy>
-23.8018781542778

> <r_i_glide_einternal>
2.50162649154663

> <i_i_glide_confnum>
4

> <i_i_glide_posenum>
363

> <r_i_glide_eff_state_penalty>
0

> <s_user_duplicate_titles>
301010

> <s_m_subgroup_title>
dock_pv

> <s_m_subgroupid>
dock_pv1

> <b_m_subgroup_collapsed>
0

$$$$
394991
                    3D
 Schrodinger Suite 2021-1.
 30 32  0  0  1  0            999 V2000
   33.0085   -3.0345   25.2589 C   0  0  0  0  0  0
   33.4086   -3.7286   24.1292 C   0  0  0  0  0  0
   32.8914   -3.4104   22.8869 C   0  0  0  0  0  0
   31.9967   -2.3618   22.7635 C   0  0  0  0  0  0
   31.6385   -1.6131   23.8877 C   0  0  0  0  0  0
   32.1287   -1.9536   25.1568 C   0  0  0  0  0  0
   31.7990   -1.1683   26.3836 C   0  0  0  0  0  0
   32.8117   -0.9154   27.3073 C   0  0  0  0  0  0
   32.6121   -0.1815   28.4559 C   0  0  0  0  0  0
   31.3619    0.3531   28.7568 C   0  0  0  0  0  0
   30.2869    0.1283   27.8735 C   0  0  0  0  0  0
   30.5151   -0.6677   26.7063 C   0  0  0  0  0  0
   28.9968   -0.9396   25.8664 S   0  0  0  0  0  0
   28.1307    0.0745   26.9672 C   0  0  0  0  0  0
   28.9284    0.5729   27.9611 C   0  0  0  0  0  0
   31.1407    1.0576   30.0005 C   0  0  0  0  0  0
   31.7323    0.7255   31.0645 N   0  0  0  0  0  0
   31.2594    1.4595   32.1412 O   0  0  0  0  0  0
   33.2600   -4.1419   21.7930 O   0  0  0  0  0  0
   33.4009   -3.3409   26.2167 H   0  0  0  0  0  0
   34.0897   -4.5437   24.2324 H   0  0  0  0  0  0
   31.5942   -2.1417   21.7886 H   0  0  0  0  0  0
   30.9711   -0.7730   23.7689 H   0  0  0  0  0  0
   33.7951   -1.3178   27.1456 H   0  0  0  0  0  0
   33.4502   -0.0445   29.1274 H   0  0  0  0  0  0
   27.0704    0.2339   26.8258 H   0  0  0  0  0  0
   28.5530    1.2131   28.7428 H   0  0  0  0  0  0
   30.4054    1.8577   29.9499 H   0  0  0  0  0  0
   30.6043    2.0383   31.7450 H   0  0  0  0  0  0
   32.6337   -4.1065   21.0641 H   0  0  0  0  0  0
  1  6  1  0  0  0
  1  2  2  0  0  0
  1 20  1  0  0  0
  2  3  1  0  0  0
  2 21  1  0  0  0
  3  4  2  0  0  0
  3 19  1  0  0  0
  4  5  1  0  0  0
  4 22  1  0  0  0
  5  6  2  0  0  0
  5 23  1  0  0  0
  6  7  1  0  0  0
  7 12  1  0  0  0
  7  8  2  0  0  0
  8  9  1  0  0  0
  8 24  1  0  0  0
  9 10  2  0  0  0
  9 25  1  0  0  0
 10 11  1  0  0  0
 10 16  1  0  0  0
 11 15  1  0  0  0
 11 12  2  0  0  0
 12 13  1  0  0  0
 13 14  1  0  0  0
 14 15  2  0  0  0
 14 26  1  0  0  0
 15 27  1  0  0  0
 16 17  2  0  0  0
 16 28  1  0  0  0
 17 18  1  0  0  0
 18 29  1  0  0  0
 19 30  1  0  0  0
M  END
> <s_m_entry_id>
17637

> <s_m_entry_name>
ligand_docking-pose.564

> <s_m_Source_Path>
/home/csk/Desktop/cluster/DUD-E-result/esr1

> <s_m_Source_File>
ligand_docking-pose.sdf

> <i_m_Source_File_Index>
564

> <i_lp_mmshare_version>
53161

> <i_f3d_flags>
0

> <r_lp_tautomer_probability>
0.999999999997365

> <s_lp_Force_Field>
OPLS_2005

> <r_lp_Energy>
19.394822

> <b_lp_Chiralities_Consistent>
1

> <s_lp_Variant>
394991-1

> <s_i_glide_gridfile>
glide-grid_1sj0

> <i_i_glide_lignum>
333

> <i_i_glide_rotatable_bonds>
4

> <r_i_docking_score>
-7.44673338051948

> <r_i_glide_ligand_efficiency>
-0.391933335816815

> <r_i_glide_ligand_efficiency_sa>
-1.04583555845621

> <r_i_glide_ligand_efficiency_ln>
-1.88790685312951

> <r_i_glide_gscore>
-7.44673338051948

> <r_i_glide_lipo>
-3.72557529160988

> <r_i_glide_hbond>
0

> <r_i_glide_metal>
0

> <r_i_glide_rewards>
-2.86176961517799

> <r_i_glide_evdw>
-27.9723834991455

> <r_i_glide_ecoul>
-1.33149254322052

> <r_i_glide_erotb>
0.738954582708748

> <r_i_glide_esite>
0

> <r_i_glide_emodel>
-38.9566798019773

> <r_i_glide_energy>
-29.303876042366

> <r_i_glide_einternal>
1.35639655590057

> <i_i_glide_confnum>
17

> <i_i_glide_posenum>
224

> <r_i_glide_eff_state_penalty>
0

> <s_user_duplicate_titles>
394991

> <s_m_subgroup_title>
dock_pv

> <s_m_subgroupid>
dock_pv1

> <b_m_subgroup_collapsed>
0

$$$$
313642
                    3D
 Schrodinger Suite 2021-1.
 30 32  0  0  1  0            999 V2000
   33.7495   -3.5471   23.5268 C   0  0  0  0  0  0
   33.9834   -4.0864   22.2623 C   0  0  0  0  0  0
   33.0552   -3.9131   21.2440 C   0  0  0  0  0  0
   31.9229   -3.1289   21.4686 C   0  0  0  0  0  0
   31.7261   -2.5435   22.7210 C   0  0  0  0  0  0
   32.6096   -2.7865   23.7746 C   0  0  0  0  0  0
   32.3340   -2.2541   25.1377 C   0  0  0  0  0  0
   32.9813   -2.5383   26.2519 N   0  0  0  0  0  0
   32.3909   -1.7279   27.1810 C   0  0  0  0  0  0
   32.6725   -1.5245   28.5388 C   0  0  0  0  0  0
   31.8826   -0.6058   29.2366 C   0  0  0  0  0  0
   30.8312    0.0787   28.6140 C   0  0  0  0  0  0
   30.5192   -0.1070   27.2562 C   0  0  0  0  0  0
   31.3418   -1.0157   26.5787 C   0  0  0  0  0  0
   31.3061   -1.3639   25.2666 O   0  0  0  0  0  0
   29.4208    0.5637   26.5234 C   0  0  0  0  0  0
   28.5074    1.4339   26.9877 C   0  0  0  0  0  0
   28.4519    1.8594   28.2642 F   0  0  0  0  0  0
   32.1478   -0.3647   30.5569 O   0  0  0  0  0  0
   31.0078   -2.9424   20.4891 F   0  0  0  0  0  0
   33.2603   -4.5415   20.0455 O   0  0  0  0  0  0
   34.4596   -3.7332   24.3200 H   0  0  0  0  0  0
   34.8598   -4.6853   22.0745 H   0  0  0  0  0  0
   30.8555   -1.9414   22.8999 H   0  0  0  0  0  0
   33.4815   -2.0559   29.0168 H   0  0  0  0  0  0
   30.2630    0.7704   29.2154 H   0  0  0  0  0  0
   29.3469    0.3123   25.4746 H   0  0  0  0  0  0
   27.7366    1.8647   26.3660 H   0  0  0  0  0  0
   32.9306   -0.8238   30.8695 H   0  0  0  0  0  0
   32.5310   -5.1587   19.8636 H   0  0  0  0  0  0
  1  6  1  0  0  0
  1  2  2  0  0  0
  1 22  1  0  0  0
  2  3  1  0  0  0
  2 23  1  0  0  0
  3  4  2  0  0  0
  3 21  1  0  0  0
  4  5  1  0  0  0
  4 20  1  0  0  0
  5  6  2  0  0  0
  5 24  1  0  0  0
  6  7  1  0  0  0
  7 15  1  0  0  0
  7  8  2  0  0  0
  8  9  1  0  0  0
  9 14  2  0  0  0
  9 10  1  0  0  0
 10 11  2  0  0  0
 10 25  1  0  0  0
 11 12  1  0  0  0
 11 19  1  0  0  0
 12 13  2  0  0  0
 12 26  1  0  0  0
 13 14  1  0  0  0
 13 16  1  0  0  0
 14 15  1  0  0  0
 16 17  2  0  0  0
 16 27  1  0  0  0
 17 18  1  0  0  0
 17 28  1  0  0  0
 19 29  1  0  0  0
 21 30  1  0  0  0
M  END
> <s_m_entry_id>
17638

> <s_m_entry_name>
ligand_docking-pose.565

> <s_m_Source_Path>
/home/csk/Desktop/cluster/DUD-E-result/esr1

> <s_m_Source_File>
ligand_docking-pose.sdf

> <i_m_Source_File_Index>
565

> <i_lp_mmshare_version>
53161

> <i_f3d_flags>
0

> <r_lp_tautomer_probability>
0.999999999997365

> <s_lp_Force_Field>
OPLS_2005

> <r_lp_Energy>
16.200825

> <b_lp_Chiralities_Consistent>
1

> <s_lp_Variant>
313642-1

> <s_i_glide_gridfile>
glide-grid_1sj0

> <i_i_glide_lignum>
383

> <i_i_glide_rotatable_bonds>
4

> <r_i_docking_score>
-7.44531294662791

> <r_i_glide_ligand_efficiency>
-0.354538711744186

> <r_i_glide_ligand_efficiency_sa>
-0.97814542230139

> <r_i_glide_ligand_efficiency_ln>
-1.84083858138236

> <r_i_glide_gscore>
-7.44531294662791

> <r_i_glide_lipo>
-3.28939640250618

> <r_i_glide_hbond>
-0.16

> <r_i_glide_metal>
0

> <r_i_glide_rewards>
-2.19787642647348

> <r_i_glide_evdw>
-29.5488986968994

> <r_i_glide_ecoul>
-4.64105129241943

> <r_i_glide_erotb>
0.435248057067509

> <r_i_glide_esite>
-0.059685546007871

> <r_i_glide_emodel>
-48.2596280408962

> <r_i_glide_energy>
-34.1899499893188

> <r_i_glide_einternal>
2.40782475471497

> <i_i_glide_confnum>
5

> <i_i_glide_posenum>
362

> <r_i_glide_eff_state_penalty>
0

> <s_user_duplicate_titles>
313642

> <s_m_subgroup_title>
dock_pv

> <s_m_subgroupid>
dock_pv1

> <b_m_subgroup_collapsed>
0

$$$$
394992
                    3D
 Schrodinger Suite 2021-1.
 30 32  0  0  1  0            999 V2000
   31.7508   -1.7671   23.5835 C   0  0  0  0  0  0
   32.0177   -2.5420   22.4496 C   0  0  0  0  0  0
   32.8600   -3.6377   22.5404 C   0  0  0  0  0  0
   33.4482   -3.9419   23.7535 C   0  0  0  0  0  0
   33.1357   -3.2212   24.8966 C   0  0  0  0  0  0
   32.2722   -2.1213   24.8383 C   0  0  0  0  0  0
   31.9418   -1.3645   26.0911 C   0  0  0  0  0  0
   32.8600   -1.3034   27.1452 C   0  0  0  0  0  0
   32.6403   -0.6066   28.3247 C   0  0  0  0  0  0
   31.4510    0.0863   28.5449 C   0  0  0  0  0  0
   30.5014    0.0115   27.5178 C   0  0  0  0  0  0
   30.7125   -0.7036   26.3071 C   0  0  0  0  0  0
   29.4926   -0.5419   25.5886 C   0  0  0  0  0  0
   28.6647    0.2382   26.3778 C   0  0  0  0  0  0
   29.2628    0.5882   27.5441 O   0  0  0  0  0  0
   31.1794    0.8282   29.7670 C   0  0  0  0  0  0
   31.8559    0.6680   30.8250 N   0  0  0  0  0  0
   31.3713    1.4580   31.8640 O   0  0  0  0  0  0
   33.1077   -4.4381   21.4576 O   0  0  0  0  0  0
   31.1246   -0.8964   23.4746 H   0  0  0  0  0  0
   31.5858   -2.2853   21.4952 H   0  0  0  0  0  0
   34.0600   -4.8200   23.8399 H   0  0  0  0  0  0
   33.5539   -3.5566   25.8329 H   0  0  0  0  0  0
   33.8075   -1.7950   27.0527 H   0  0  0  0  0  0
   33.4203   -0.6071   29.0754 H   0  0  0  0  0  0
   29.2600   -0.9577   24.6259 H   0  0  0  0  0  0
   27.6600    0.6110   26.2640 H   0  0  0  0  0  0
   30.3397    1.5184   29.7013 H   0  0  0  0  0  0
   30.6384    1.9310   31.4634 H   0  0  0  0  0  0
   32.3363   -4.6636   20.9205 H   0  0  0  0  0  0
  1  6  1  0  0  0
  1  2  2  0  0  0
  1 20  1  0  0  0
  2  3  1  0  0  0
  2 21  1  0  0  0
  3  4  2  0  0  0
  3 19  1  0  0  0
  4  5  1  0  0  0
  4 22  1  0  0  0
  5  6  2  0  0  0
  5 23  1  0  0  0
  6  7  1  0  0  0
  7 12  1  0  0  0
  7  8  2  0  0  0
  8  9  1  0  0  0
  8 24  1  0  0  0
  9 10  2  0  0  0
  9 25  1  0  0  0
 10 11  1  0  0  0
 10 16  1  0  0  0
 11 15  1  0  0  0
 11 12  2  0  0  0
 12 13  1  0  0  0
 13 14  2  0  0  0
 13 26  1  0  0  0
 14 15  1  0  0  0
 14 27  1  0  0  0
 16 17  2  0  0  0
 16 28  1  0  0  0
 17 18  1  0  0  0
 18 29  1  0  0  0
 19 30  1  0  0  0
M  END
> <s_m_entry_id>
17639

> <s_m_entry_name>
ligand_docking-pose.566

> <s_m_Source_Path>
/home/csk/Desktop/cluster/DUD-E-result/esr1

> <s_m_Source_File>
ligand_docking-pose.sdf

> <i_m_Source_File_Index>
566

> <i_lp_mmshare_version>
53161

> <i_f3d_flags>
0

> <r_lp_tautomer_probability>
0.999999999997365

> <s_lp_Force_Field>
OPLS_2005

> <r_lp_Energy>
16.952308

> <b_lp_Chiralities_Consistent>
1

> <s_lp_Variant>
394992-1

> <s_i_glide_gridfile>
glide-grid_1sj0

> <i_i_glide_lignum>
331

> <i_i_glide_rotatable_bonds>
4

> <r_i_docking_score>
-7.44055864068194

> <r_i_glide_ligand_efficiency>
-0.391608349509576

> <r_i_glide_ligand_efficiency_sa>
-1.04496836445902

> <r_i_glide_ligand_efficiency_ln>
-1.88634142395944

> <r_i_glide_gscore>
-7.44055864068194

> <r_i_glide_lipo>
-3.53464706994932

> <r_i_glide_hbond>
-0.0901449751653058

> <r_i_glide_metal>
0

> <r_i_glide_rewards>
-2.90574639530013

> <r_i_glide_evdw>
-28.0877838134766

> <r_i_glide_ecoul>
-2.18137884140015

> <r_i_glide_erotb>
0.82157581661667

> <r_i_glide_esite>
0

> <r_i_glide_emodel>
-41.3221351091696

> <r_i_glide_energy>
-30.2691626548767

> <r_i_glide_einternal>
3.59009122848511

> <i_i_glide_confnum>
1

> <i_i_glide_posenum>
107

> <r_i_glide_eff_state_penalty>
0

> <s_user_duplicate_titles>
394992

> <s_m_subgroup_title>
dock_pv

> <s_m_subgroupid>
dock_pv1

> <b_m_subgroup_collapsed>
0

$$$$
322996
                    3D
 Schrodinger Suite 2021-1.
 30 32  0  0  1  0            999 V2000
   30.3938    0.6356   26.8298 C   0  0  0  0  0  0
   30.2520    1.1731   28.1058 C   0  0  0  0  0  0
   31.0038    0.6834   29.1657 C   0  0  0  0  0  0
   31.8870   -0.3836   28.9825 C   0  0  0  0  0  0
   32.0249   -0.9771   27.6934 C   0  0  0  0  0  0
   31.3015   -0.4275   26.5909 C   0  0  0  0  0  0
   31.5196   -0.9501   25.2861 C   0  0  0  0  0  0
   32.3956   -2.0227   25.0632 C   0  0  0  0  0  0
   33.0132   -2.6054   26.1710 C   0  0  0  0  0  0
   32.8584   -2.0958   27.4547 C   0  0  0  0  0  0
   32.6593   -2.5691   23.6939 C   0  0  0  0  0  0
   33.9015   -3.1169   23.3499 C   0  0  0  0  0  0
   34.1072   -3.7228   22.1097 C   0  0  0  0  0  0
   33.0617   -3.8343   21.2021 C   0  0  0  0  0  0
   31.8317   -3.2432   21.4966 C   0  0  0  0  0  0
   31.6600   -2.5899   22.7163 C   0  0  0  0  0  0
   30.5044   -3.3107   20.3884 Cl  0  0  0  0  0  0
   33.2615   -4.5421   20.0469 O   0  0  0  0  0  0
   32.8321   -0.9418   30.3248 Cl  0  0  0  0  0  0
   30.8634    1.2629   30.4001 O   0  0  0  0  0  0
   29.8157    1.0399   26.0109 H   0  0  0  0  0  0
   29.5658    1.9912   28.2705 H   0  0  0  0  0  0
   30.9992   -0.4917   24.4577 H   0  0  0  0  0  0
   33.6557   -3.4634   26.0382 H   0  0  0  0  0  0
   33.3919   -2.5579   28.2728 H   0  0  0  0  0  0
   34.7172   -3.0955   24.0551 H   0  0  0  0  0  0
   35.0666   -4.1515   21.8625 H   0  0  0  0  0  0
   30.7153   -2.1355   22.9227 H   0  0  0  0  0  0
   32.5033   -5.1207   19.8640 H   0  0  0  0  0  0
   31.4635    0.8814   31.0457 H   0  0  0  0  0  0
  1  6  1  0  0  0
  1  2  2  0  0  0
  1 21  1  0  0  0
  2  3  1  0  0  0
  2 22  1  0  0  0
  3  4  2  0  0  0
  3 20  1  0  0  0
  4  5  1  0  0  0
  4 19  1  0  0  0
  5 10  2  0  0  0
  5  6  1  0  0  0
  6  7  2  0  0  0
  7  8  1  0  0  0
  7 23  1  0  0  0
  8  9  2  0  0  0
  8 11  1  0  0  0
  9 10  1  0  0  0
  9 24  1  0  0  0
 10 25  1  0  0  0
 11 16  1  0  0  0
 11 12  2  0  0  0
 12 13  1  0  0  0
 12 26  1  0  0  0
 13 14  2  0  0  0
 13 27  1  0  0  0
 14 15  1  0  0  0
 14 18  1  0  0  0
 15 16  2  0  0  0
 15 17  1  0  0  0
 16 28  1  0  0  0
 18 29  1  0  0  0
 20 30  1  0  0  0
M  END
> <s_m_entry_id>
17640

> <s_m_entry_name>
ligand_docking-pose.567

> <s_m_Source_Path>
/home/csk/Desktop/cluster/DUD-E-result/esr1

> <s_m_Source_File>
ligand_docking-pose.sdf

> <i_m_Source_File_Index>
567

> <i_lp_mmshare_version>
53161

> <i_f3d_flags>
0

> <r_lp_tautomer_probability>
0.999999999997365

> <s_lp_Force_Field>
OPLS_2005

> <r_lp_Energy>
18.855052

> <b_lp_Chiralities_Consistent>
1

> <s_lp_Variant>
322996-1

> <s_i_glide_gridfile>
glide-grid_1sj0

> <i_i_glide_lignum>
115

> <i_i_glide_rotatable_bonds>
3

> <r_i_docking_score>
-7.43256218569501

> <r_i_glide_ligand_efficiency>
-0.371628109284751

> <r_i_glide_ligand_efficiency_sa>
-1.00875388565707

> <r_i_glide_ligand_efficiency_ln>
-1.86012517277193

> <r_i_glide_gscore>
-7.43256218569501

> <r_i_glide_lipo>
-3.60090078478216

> <r_i_glide_hbond>
-0.16

> <r_i_glide_metal>
0

> <r_i_glide_rewards>
-1.99720999179917

> <r_i_glide_evdw>
-29.5490303039551

> <r_i_glide_ecoul>
-2.63442635536194

> <r_i_glide_erotb>
0.198164059388362

> <r_i_glide_esite>
0

> <r_i_glide_emodel>
-44.4198046762137

> <r_i_glide_energy>
-32.183456659317

> <r_i_glide_einternal>
2.56479358673096

> <i_i_glide_confnum>
1

> <i_i_glide_posenum>
326

> <r_i_glide_eff_state_penalty>
0

> <s_user_duplicate_titles>
322996

> <s_m_subgroup_title>
dock_pv

> <s_m_subgroupid>
dock_pv1

> <b_m_subgroup_collapsed>
0

$$$$
323085
                    3D
 Schrodinger Suite 2021-1.
 30 32  0  0  1  0            999 V2000
   31.6601   -2.8796   22.2121 C   0  0  0  0  0  0
   32.0368   -3.4956   21.0308 C   0  0  0  0  0  0
   33.3365   -3.9476   20.8739 C   0  0  0  0  0  0
   34.2805   -3.7162   21.8654 C   0  0  0  0  0  0
   33.8941   -3.1035   23.0574 C   0  0  0  0  0  0
   32.5647   -2.7088   23.2686 C   0  0  0  0  0  0
   32.1271   -2.1383   24.5843 C   0  0  0  0  0  0
   31.0844   -1.2166   24.6679 C   0  0  0  0  0  0
   30.6818   -0.6501   25.9022 C   0  0  0  0  0  0
   29.6000    0.2580   25.9304 C   0  0  0  0  0  0
   29.2703    0.9318   27.0940 C   0  0  0  0  0  0
   29.9792    0.7002   28.2615 C   0  0  0  0  0  0
   30.9948   -0.2654   28.3160 C   0  0  0  0  0  0
   31.3739   -0.9820   27.1151 C   0  0  0  0  0  0
   32.3925   -1.9969   27.0146 C   0  0  0  0  0  0
   32.7325   -2.5378   25.7751 C   0  0  0  0  0  0
   33.2600   -2.6454   28.3624 Cl  0  0  0  0  0  0
   31.7658   -0.4975   29.8568 Cl  0  0  0  0  0  0
   29.6608    1.4581   29.3603 O   0  0  0  0  0  0
   33.6606   -4.6579   19.7534 O   0  0  0  0  0  0
   30.6417   -2.5421   22.2639 H   0  0  0  0  0  0
   31.3047   -3.6619   20.2531 H   0  0  0  0  0  0
   35.2949   -4.0549   21.7272 H   0  0  0  0  0  0
   34.6373   -2.9513   23.8244 H   0  0  0  0  0  0
   30.5675   -0.9046   23.7734 H   0  0  0  0  0  0
   29.0527    0.4676   25.0229 H   0  0  0  0  0  0
   28.4714    1.6585   27.0733 H   0  0  0  0  0  0
   33.5025   -3.2946   25.7468 H   0  0  0  0  0  0
   28.9526    2.0822   29.1937 H   0  0  0  0  0  0
   32.8982   -5.1763   19.4637 H   0  0  0  0  0  0
  1  6  1  0  0  0
  1  2  2  0  0  0
  1 21  1  0  0  0
  2  3  1  0  0  0
  2 22  1  0  0  0
  3  4  2  0  0  0
  3 20  1  0  0  0
  4  5  1  0  0  0
  4 23  1  0  0  0
  5  6  2  0  0  0
  5 24  1  0  0  0
  6  7  1  0  0  0
  7 16  1  0  0  0
  7  8  2  0  0  0
  8  9  1  0  0  0
  8 25  1  0  0  0
  9 14  2  0  0  0
  9 10  1  0  0  0
 10 11  2  0  0  0
 10 26  1  0  0  0
 11 12  1  0  0  0
 11 27  1  0  0  0
 12 13  2  0  0  0
 12 19  1  0  0  0
 13 14  1  0  0  0
 13 18  1  0  0  0
 14 15  1  0  0  0
 15 16  2  0  0  0
 15 17  1  0  0  0
 16 28  1  0  0  0
 19 29  1  0  0  0
 20 30  1  0  0  0
M  END
> <s_m_entry_id>
17641

> <s_m_entry_name>
ligand_docking-pose.568

> <s_m_Source_Path>
/home/csk/Desktop/cluster/DUD-E-result/esr1

> <s_m_Source_File>
ligand_docking-pose.sdf

> <i_m_Source_File_Index>
568

> <i_lp_mmshare_version>
53161

> <i_f3d_flags>
0

> <r_lp_tautomer_probability>
0.999999999997365

> <s_lp_Force_Field>
OPLS_2005

> <r_lp_Energy>
24.41465

> <b_lp_Chiralities_Consistent>
1

> <s_lp_Variant>
323085-1

> <s_i_glide_gridfile>
glide-grid_1sj0

> <i_i_glide_lignum>
229

> <i_i_glide_rotatable_bonds>
3

> <r_i_docking_score>
-7.42504899980444

> <r_i_glide_ligand_efficiency>
-0.371252449990222

> <r_i_glide_ligand_efficiency_sa>
-1.00773418945118

> <r_i_glide_ligand_efficiency_ln>
-1.85824487014498

> <r_i_glide_gscore>
-7.42504899980444

> <r_i_glide_lipo>
-3.60974100697334

> <r_i_glide_hbond>
-0.124653354295983

> <r_i_glide_metal>
0

> <r_i_glide_rewards>
-1.99331329345113

> <r_i_glide_evdw>
-32.0439796447754

> <r_i_glide_ecoul>
-1.95537614822388

> <r_i_glide_erotb>
0.198164059388362

> <r_i_glide_esite>
0

> <r_i_glide_emodel>
-47.7212778109211

> <r_i_glide_energy>
-33.9993557929993

> <r_i_glide_einternal>
0.871584177017212

> <i_i_glide_confnum>
2

> <i_i_glide_posenum>
23

> <r_i_glide_eff_state_penalty>
0

> <s_user_duplicate_titles>
323085

> <s_m_subgroup_title>
dock_pv

> <s_m_subgroupid>
dock_pv1

> <b_m_subgroup_collapsed>
0

$$$$
322832
                    3D
 Schrodinger Suite 2021-1.
 33 35  0  0  1  0            999 V2000
   31.9218   -0.3503   29.5012 C   0  0  0  0  0  0
   31.0788   -0.1464   28.2422 C   0  0  0  0  0  0
   31.4212   -0.8516   27.0428 C   0  0  0  0  0  0
   32.4898   -1.7848   26.9609 C   0  0  0  0  0  0
   32.8232   -2.3895   25.7513 C   0  0  0  0  0  0
   32.1464   -2.0908   24.5650 C   0  0  0  0  0  0
   31.0536   -1.2178   24.6393 C   0  0  0  0  0  0
   30.6638   -0.6054   25.8575 C   0  0  0  0  0  0
   29.5430    0.2565   25.9155 C   0  0  0  0  0  0
   29.2238    0.9195   27.0936 C   0  0  0  0  0  0
   29.9918    0.7398   28.2386 C   0  0  0  0  0  0
   29.6599    1.4582   29.3567 O   0  0  0  0  0  0
   32.5726   -2.7025   23.2614 C   0  0  0  0  0  0
   31.6605   -2.8926   22.2128 C   0  0  0  0  0  0
   32.0316   -3.5273   21.0372 C   0  0  0  0  0  0
   33.3322   -3.9794   20.8812 C   0  0  0  0  0  0
   34.2777   -3.7396   21.8670 C   0  0  0  0  0  0
   33.8980   -3.1079   23.0484 C   0  0  0  0  0  0
   33.6601   -4.6930   19.7625 O   0  0  0  0  0  0
   32.9715   -0.1331   29.2967 H   0  0  0  0  0  0
   31.8451   -1.3817   29.8405 H   0  0  0  0  0  0
   31.6158    0.2845   30.3342 H   0  0  0  0  0  0
   33.0670   -2.0228   27.8418 H   0  0  0  0  0  0
   33.6464   -3.0879   25.7501 H   0  0  0  0  0  0
   30.4886   -0.9715   23.7552 H   0  0  0  0  0  0
   28.9449    0.4169   25.0304 H   0  0  0  0  0  0
   28.3797    1.5931   27.1043 H   0  0  0  0  0  0
   28.8884    2.0105   29.2187 H   0  0  0  0  0  0
   30.6459   -2.5451   22.2639 H   0  0  0  0  0  0
   31.2991   -3.6956   20.2599 H   0  0  0  0  0  0
   35.2938   -4.0742   21.7239 H   0  0  0  0  0  0
   34.6505   -2.9475   23.8046 H   0  0  0  0  0  0
   32.8943   -5.2014   19.4650 H   0  0  0  0  0  0
  1  2  1  0  0  0
  1 20  1  0  0  0
  1 21  1  0  0  0
  1 22  1  0  0  0
  2 11  1  0  0  0
  2  3  2  0  0  0
  3  8  1  0  0  0
  3  4  1  0  0  0
  4  5  2  0  0  0
  4 23  1  0  0  0
  5  6  1  0  0  0
  5 24  1  0  0  0
  6  7  2  0  0  0
  6 13  1  0  0  0
  7  8  1  0  0  0
  7 25  1  0  0  0
  8  9  2  0  0  0
  9 10  1  0  0  0
  9 26  1  0  0  0
 10 11  2  0  0  0
 10 27  1  0  0  0
 11 12  1  0  0  0
 12 28  1  0  0  0
 13 18  1  0  0  0
 13 14  2  0  0  0
 14 15  1  0  0  0
 14 29  1  0  0  0
 15 16  2  0  0  0
 15 30  1  0  0  0
 16 17  1  0  0  0
 16 19  1  0  0  0
 17 18  2  0  0  0
 17 31  1  0  0  0
 18 32  1  0  0  0
 19 33  1  0  0  0
M  END
> <s_m_entry_id>
17642

> <s_m_entry_name>
ligand_docking-pose.569

> <s_m_Source_Path>
/home/csk/Desktop/cluster/DUD-E-result/esr1

> <s_m_Source_File>
ligand_docking-pose.sdf

> <i_m_Source_File_Index>
569

> <i_lp_mmshare_version>
53161

> <i_f3d_flags>
0

> <r_lp_tautomer_probability>
0.999999999997365

> <s_lp_Force_Field>
OPLS_2005

> <r_lp_Energy>
17.170245

> <b_lp_Chiralities_Consistent>
1

> <s_lp_Variant>
322832-1

> <s_i_glide_gridfile>
glide-grid_1sj0

> <i_i_glide_lignum>
873

> <i_i_glide_rotatable_bonds>
3

> <r_i_docking_score>
-7.42395147624879

> <r_i_glide_ligand_efficiency>
-0.39073428822362

> <r_i_glide_ligand_efficiency_sa>
-1.04263601788478

> <r_i_glide_ligand_efficiency_ln>
-1.88213115108645

> <r_i_glide_gscore>
-7.42395147624879

> <r_i_glide_lipo>
-3.50334238981919

> <r_i_glide_hbond>
-0.130785935278857

> <r_i_glide_metal>
0

> <r_i_glide_rewards>
-2.34401403325089

> <r_i_glide_evdw>
-29.4221210479736

> <r_i_glide_ecoul>
-1.6942902803421

> <r_i_glide_erotb>
0.27944047655014

> <r_i_glide_esite>
0

> <r_i_glide_emodel>
-43.7076498181816

> <r_i_glide_energy>
-31.1164113283157

> <r_i_glide_einternal>
1.18120539188385

> <i_i_glide_confnum>
3

> <i_i_glide_posenum>
276

> <r_i_glide_eff_state_penalty>
0

> <s_user_duplicate_titles>
322832

> <s_m_subgroup_title>
dock_pv

> <s_m_subgroupid>
dock_pv1

> <b_m_subgroup_collapsed>
0

$$$$
323181
                    3D
 Schrodinger Suite 2021-1.
 32 34  0  0  1  0            999 V2000
   33.9044   -3.1116   23.0462 C   0  0  0  0  0  0
   34.2812   -3.7395   21.8628 C   0  0  0  0  0  0
   33.3325   -3.9753   20.8790 C   0  0  0  0  0  0
   32.0331   -3.5204   21.0402 C   0  0  0  0  0  0
   31.6605   -2.8928   22.2187 C   0  0  0  0  0  0
   32.5766   -2.7151   23.2670 C   0  0  0  0  0  0
   32.1723   -2.1260   24.5859 C   0  0  0  0  0  0
   32.8595   -2.4699   25.7550 C   0  0  0  0  0  0
   32.5824   -1.8653   26.9761 C   0  0  0  0  0  0
   31.5608   -0.8857   27.0924 C   0  0  0  0  0  0
   30.7649   -0.6212   25.9345 C   0  0  0  0  0  0
   31.1040   -1.2282   24.6966 C   0  0  0  0  0  0
   29.6619    0.2578   26.0393 C   0  0  0  0  0  0
   29.3980    0.9142   27.2329 C   0  0  0  0  0  0
   30.2117    0.7267   28.3424 C   0  0  0  0  0  0
   31.2980   -0.1630   28.3064 C   0  0  0  0  0  0
   32.1804   -0.2970   29.4888 N   0  3  0  0  0  0
   31.6596   -0.4395   30.5905 O   0  5  0  0  0  0
   33.3923   -0.2118   29.3229 O   0  0  0  0  0  0
   29.9247    1.4578   29.4643 O   0  0  0  0  0  0
   33.6599   -4.6844   19.7588 O   0  0  0  0  0  0
   34.6613   -2.9454   23.7966 H   0  0  0  0  0  0
   35.2948   -4.0766   21.7173 H   0  0  0  0  0  0
   31.2994   -3.6850   20.2637 H   0  0  0  0  0  0
   30.6457   -2.5427   22.2640 H   0  0  0  0  0  0
   33.6525   -3.2023   25.7265 H   0  0  0  0  0  0
   33.1707   -2.1455   27.8370 H   0  0  0  0  0  0
   30.5224   -0.9625   23.8273 H   0  0  0  0  0  0
   29.0387    0.4368   25.1747 H   0  0  0  0  0  0
   28.5647    1.5996   27.2904 H   0  0  0  0  0  0
   30.4719    1.2084   30.2147 H   0  0  0  0  0  0
   32.8972   -5.1986   19.4638 H   0  0  0  0  0  0
  1  6  1  0  0  0
  1  2  2  0  0  0
  1 22  1  0  0  0
  2  3  1  0  0  0
  2 23  1  0  0  0
  3  4  2  0  0  0
  3 21  1  0  0  0
  4  5  1  0  0  0
  4 24  1  0  0  0
  5  6  2  0  0  0
  5 25  1  0  0  0
  6  7  1  0  0  0
  7 12  1  0  0  0
  7  8  2  0  0  0
  8  9  1  0  0  0
  8 26  1  0  0  0
  9 10  2  0  0  0
  9 27  1  0  0  0
 10 16  1  0  0  0
 10 11  1  0  0  0
 11 12  2  0  0  0
 11 13  1  0  0  0
 12 28  1  0  0  0
 13 14  2  0  0  0
 13 29  1  0  0  0
 14 15  1  0  0  0
 14 30  1  0  0  0
 15 16  2  0  0  0
 15 20  1  0  0  0
 16 17  1  0  0  0
 17 18  1  0  0  0
 17 19  2  0  0  0
 20 31  1  0  0  0
 21 32  1  0  0  0
M  CHG  2  17   1  18  -1
M  END
> <s_m_entry_id>
17643

> <s_m_entry_name>
ligand_docking-pose.570

> <s_m_Source_Path>
/home/csk/Desktop/cluster/DUD-E-result/esr1

> <s_m_Source_File>
ligand_docking-pose.sdf

> <i_m_Source_File_Index>
570

> <i_lp_mmshare_version>
53161

> <i_f3d_flags>
0

> <r_lp_tautomer_probability>
0.999999999997365

> <s_lp_Force_Field>
OPLS_2005

> <r_lp_Energy>
23.855881

> <b_lp_Chiralities_Consistent>
1

> <s_lp_Variant>
323181-1

> <s_i_glide_gridfile>
glide-grid_1sj0

> <i_i_glide_lignum>
299

> <i_i_glide_rotatable_bonds>
4

> <r_i_docking_score>
-7.4214577443198

> <r_i_glide_ligand_efficiency>
-0.353402749729514

> <r_i_glide_ligand_efficiency_sa>
-0.975011389238842

> <r_i_glide_ligand_efficiency_ln>
-1.83494043081565

> <r_i_glide_gscore>
-7.4214577443198

> <r_i_glide_lipo>
-3.22966134342698

> <r_i_glide_hbond>
-0.129165447254312

> <r_i_glide_metal>
0

> <r_i_glide_rewards>
-2.34940396925025

> <r_i_glide_evdw>
-33.4524116516113

> <r_i_glide_ecoul>
-1.79384291172028

> <r_i_glide_erotb>
0.22847003495035

> <r_i_glide_esite>
0

> <r_i_glide_emodel>
-49.1634807878281

> <r_i_glide_energy>
-35.2462545633316

> <r_i_glide_einternal>
1.6356029510498

> <i_i_glide_confnum>
3

> <i_i_glide_posenum>
338

> <r_i_glide_eff_state_penalty>
0

> <s_user_duplicate_titles>
323181

> <s_m_subgroup_title>
dock_pv

> <s_m_subgroupid>
dock_pv1

> <b_m_subgroup_collapsed>
0

$$$$
322994
                    3D
 Schrodinger Suite 2021-1.
 30 32  0  0  1  0            999 V2000
   34.4259   -3.7420   21.8640 C   0  0  0  0  0  0
   34.0600   -3.2910   23.1338 C   0  0  0  0  0  0
   32.7632   -2.8436   23.4019 C   0  0  0  0  0  0
   31.8540   -2.8573   22.3427 C   0  0  0  0  0  0
   32.1973   -3.3170   21.0779 C   0  0  0  0  0  0
   33.4895   -3.7672   20.8348 C   0  0  0  0  0  0
   31.2524   -3.3420   20.0922 O   0  0  0  0  0  0
   32.3719   -2.3456   24.7564 C   0  0  0  0  0  0
   32.9560   -2.8766   25.9104 C   0  0  0  0  0  0
   32.6943   -2.3499   27.1727 C   0  0  0  0  0  0
   31.7914   -1.2726   27.3240 C   0  0  0  0  0  0
   31.5550   -0.6572   28.5800 C   0  0  0  0  0  0
   30.6693    0.4147   28.6793 C   0  0  0  0  0  0
   29.9584    0.8501   27.5680 C   0  0  0  0  0  0
   30.1606    0.2580   26.3250 C   0  0  0  0  0  0
   31.1123   -0.7795   26.1710 C   0  0  0  0  0  0
   31.4271   -1.3213   24.9008 C   0  0  0  0  0  0
   30.4995    1.0580   29.8747 O   0  0  0  0  0  0
   35.4321   -4.0812   21.6759 H   0  0  0  0  0  0
   34.8053   -3.2743   23.9133 H   0  0  0  0  0  0
   30.8600   -2.5060   22.4988 H   0  0  0  0  0  0
   33.7663   -4.1338   19.8572 H   0  0  0  0  0  0
   31.1569   -4.2650   19.7996 H   0  0  0  0  0  0
   33.6590   -3.6926   25.8310 H   0  0  0  0  0  0
   33.1980   -2.7499   28.0412 H   0  0  0  0  0  0
   32.0911   -1.0104   29.4486 H   0  0  0  0  0  0
   29.2606    1.6691   27.6644 H   0  0  0  0  0  0
   29.6199    0.6210   25.4640 H   0  0  0  0  0  0
   30.9437   -0.8959   24.0336 H   0  0  0  0  0  0
   31.0682    0.7132   30.5658 H   0  0  0  0  0  0
  1  6  1  0  0  0
  1  2  2  0  0  0
  1 19  1  0  0  0
  2  3  1  0  0  0
  2 20  1  0  0  0
  3  4  2  0  0  0
  3  8  1  0  0  0
  4  5  1  0  0  0
  4 21  1  0  0  0
  5  6  2  0  0  0
  5  7  1  0  0  0
  6 22  1  0  0  0
  7 23  1  0  0  0
  8 17  1  0  0  0
  8  9  2  0  0  0
  9 10  1  0  0  0
  9 24  1  0  0  0
 10 11  2  0  0  0
 10 25  1  0  0  0
 11 16  1  0  0  0
 11 12  1  0  0  0
 12 13  2  0  0  0
 12 26  1  0  0  0
 13 14  1  0  0  0
 13 18  1  0  0  0
 14 15  2  0  0  0
 14 27  1  0  0  0
 15 16  1  0  0  0
 15 28  1  0  0  0
 16 17  2  0  0  0
 17 29  1  0  0  0
 18 30  1  0  0  0
M  END
> <s_m_entry_id>
17644

> <s_m_entry_name>
ligand_docking-pose.571

> <s_m_Source_Path>
/home/csk/Desktop/cluster/DUD-E-result/esr1

> <s_m_Source_File>
ligand_docking-pose.sdf

> <i_m_Source_File_Index>
571

> <i_lp_mmshare_version>
53161

> <i_f3d_flags>
0

> <r_lp_tautomer_probability>
0.999999999997365

> <s_lp_Force_Field>
OPLS_2005

> <r_lp_Energy>
16.570143

> <b_lp_Chiralities_Consistent>
1

> <s_lp_Variant>
322994-1

> <s_i_glide_gridfile>
glide-grid_1sj0

> <i_i_glide_lignum>
634

> <i_i_glide_rotatable_bonds>
3

> <r_i_docking_score>
-7.41655246485158

> <r_i_glide_ligand_efficiency>
-0.412030692491754

> <r_i_glide_ligand_efficiency_sa>
-1.07982589045733

> <r_i_glide_ligand_efficiency_ln>
-1.9063865682755

> <r_i_glide_gscore>
-7.41655246485158

> <r_i_glide_lipo>
-3.27282522471119

> <r_i_glide_hbond>
-0.16

> <r_i_glide_metal>
0

> <r_i_glide_rewards>
-2.36084525624451

> <r_i_glide_evdw>
-28.6441535949707

> <r_i_glide_ecoul>
-3.32701897621155

> <r_i_glide_erotb>
0.308378542284384

> <r_i_glide_esite>
0

> <r_i_glide_emodel>
-43.650772747342

> <r_i_glide_energy>
-31.9711725711823

> <r_i_glide_einternal>
2.60857319831848

> <i_i_glide_confnum>
4

> <i_i_glide_posenum>
355

> <r_i_glide_eff_state_penalty>
0

> <s_user_duplicate_titles>
322994

> <s_m_subgroup_title>
dock_pv

> <s_m_subgroupid>
dock_pv1

> <b_m_subgroup_collapsed>
0

$$$$
313676
                    3D
 Schrodinger Suite 2021-1.
 28 30  0  0  1  0            999 V2000
   28.5497    1.3676   26.6636 C   0  0  0  0  0  0
   29.5238    0.7871   27.1173 C   0  0  0  0  0  0
   30.6576    0.0694   27.6806 C   0  0  0  0  0  0
   31.0372    0.2521   29.0161 C   0  0  0  0  0  0
   32.1192   -0.4371   29.5721 C   0  0  0  0  0  0
   32.8646   -1.3546   28.8257 C   0  0  0  0  0  0
   32.5060   -1.5526   27.4837 C   0  0  0  0  0  0
   31.4301   -0.8360   26.9369 C   0  0  0  0  0  0
   31.3341   -1.1829   25.6221 O   0  0  0  0  0  0
   32.3579   -2.0779   25.4417 C   0  0  0  0  0  0
   33.0493   -2.3616   26.5270 N   0  0  0  0  0  0
   32.5962   -2.6077   24.0627 C   0  0  0  0  0  0
   33.7410   -3.3418   23.7472 C   0  0  0  0  0  0
   33.9389   -3.8158   22.4489 C   0  0  0  0  0  0
   32.9545   -3.6370   21.4863 C   0  0  0  0  0  0
   31.7981   -2.9403   21.7984 C   0  0  0  0  0  0
   31.6599   -2.3684   23.0617 C   0  0  0  0  0  0
   33.1207   -4.1421   20.2256 O   0  0  0  0  0  0
   32.4599   -0.2003   30.8750 O   0  0  0  0  0  0
   27.6868    1.8582   26.2730 H   0  0  0  0  0  0
   30.4902    0.9452   29.6410 H   0  0  0  0  0  0
   33.6982   -1.8902   29.2567 H   0  0  0  0  0  0
   34.4806   -3.5336   24.5096 H   0  0  0  0  0  0
   34.8317   -4.3655   22.1900 H   0  0  0  0  0  0
   31.0368   -2.7884   21.0473 H   0  0  0  0  0  0
   30.7887   -1.7664   23.2759 H   0  0  0  0  0  0
   32.3663   -4.6919   19.9590 H   0  0  0  0  0  0
   33.2422   -0.6884   31.1456 H   0  0  0  0  0  0
  1  2  3  0  0  0
  1 20  1  0  0  0
  2  3  1  0  0  0
  3  8  1  0  0  0
  3  4  2  0  0  0
  4  5  1  0  0  0
  4 21  1  0  0  0
  5  6  2  0  0  0
  5 19  1  0  0  0
  6  7  1  0  0  0
  6 22  1  0  0  0
  7 11  1  0  0  0
  7  8  2  0  0  0
  8  9  1  0  0  0
  9 10  1  0  0  0
 10 11  2  0  0  0
 10 12  1  0  0  0
 12 17  1  0  0  0
 12 13  2  0  0  0
 13 14  1  0  0  0
 13 23  1  0  0  0
 14 15  2  0  0  0
 14 24  1  0  0  0
 15 16  1  0  0  0
 15 18  1  0  0  0
 16 17  2  0  0  0
 16 25  1  0  0  0
 17 26  1  0  0  0
 18 27  1  0  0  0
 19 28  1  0  0  0
M  END
> <s_m_entry_id>
17645

> <s_m_entry_name>
ligand_docking-pose.572

> <s_m_Source_Path>
/home/csk/Desktop/cluster/DUD-E-result/esr1

> <s_m_Source_File>
ligand_docking-pose.sdf

> <i_m_Source_File_Index>
572

> <i_lp_mmshare_version>
53161

> <i_f3d_flags>
0

> <r_lp_tautomer_probability>
0.999999999997365

> <s_lp_Force_Field>
OPLS_2005

> <r_lp_Energy>
10.452821

> <b_lp_Chiralities_Consistent>
1

> <s_lp_Variant>
313676-1

> <s_i_glide_gridfile>
glide-grid_1sj0

> <i_i_glide_lignum>
1158

> <i_i_glide_rotatable_bonds>
4

> <r_i_docking_score>
-7.40642195413661

> <r_i_glide_ligand_efficiency>
-0.389811681796664

> <r_i_glide_ligand_efficiency_sa>
-1.04017413337638

> <r_i_glide_ligand_efficiency_ln>
-1.8776870407314

> <r_i_glide_gscore>
-7.40642195413661

> <r_i_glide_lipo>
-3.3583906529192

> <r_i_glide_hbond>
-0.16

> <r_i_glide_metal>
0

> <r_i_glide_rewards>
-2.24629118742161

> <r_i_glide_evdw>
-30.4357585906982

> <r_i_glide_ecoul>
-4.50155305862427

> <r_i_glide_erotb>
0.555280774532749

> <r_i_glide_esite>
0

> <r_i_glide_emodel>
-49.2753984147579

> <r_i_glide_energy>
-34.9373116493225

> <r_i_glide_einternal>
2.65926694869995

> <i_i_glide_confnum>
1

> <i_i_glide_posenum>
84

> <r_i_glide_eff_state_penalty>
0

> <s_user_duplicate_titles>
313676

> <s_m_subgroup_title>
dock_pv

> <s_m_subgroupid>
dock_pv1

> <b_m_subgroup_collapsed>
0

$$$$
338790
                    3D
 Schrodinger Suite 2021-1.
 49 50  0  0  1  0            999 V2000
   32.8183    0.1240   29.1321 C   0  0  0  0  0  0
   31.6350   -0.7503   29.5808 C   0  0  0  0  0  0
   31.0134   -1.7079   28.5310 C   0  0  0  0  0  0
   30.2022   -1.1068   27.4587 N   0  0  0  0  0  0
   28.7876   -1.0712   27.5834 C   0  0  0  0  0  0
   28.0159   -2.2600   27.6800 C   0  0  0  0  0  0
   26.6224   -2.2069   27.6417 C   0  0  0  0  0  0
   25.9642   -0.9977   27.5183 C   0  0  0  0  0  0
   26.6942    0.1731   27.4640 C   0  0  0  0  0  0
   28.0905    0.1645   27.4961 C   0  0  0  0  0  0
   28.7556    1.5431   27.4188 C   0  0  0  0  0  0
   29.4493    1.9947   28.7015 C   0  0  0  0  0  0
   28.5970   -3.6578   27.7544 C   0  0  0  0  0  0
   30.9558   -0.5421   25.9229 S   0  0  0  0  0  0
   29.8356   -0.1420   25.0640 O   0  0  0  0  0  0
   32.0117    0.4116   26.2701 O   0  0  0  0  0  0
   31.7890   -1.8305   25.0007 C   0  0  0  0  0  0
   32.9059   -2.5148   25.4813 C   0  0  0  0  0  0
   33.6482   -3.3182   24.6113 C   0  0  0  0  0  0
   33.2784   -3.4378   23.2689 C   0  0  0  0  0  0
   32.1310   -2.8067   22.7958 C   0  0  0  0  0  0
   31.4162   -1.9905   23.6647 C   0  0  0  0  0  0
   31.6610   -2.9851   21.3569 C   0  0  0  0  0  0
   34.0600   -4.1420   22.4009 O   0  0  0  0  0  0
   33.3574    0.5095   29.9983 H   0  0  0  0  0  0
   33.5320   -0.4443   28.5347 H   0  0  0  0  0  0
   32.5099    0.9930   28.5574 H   0  0  0  0  0  0
   30.8600   -0.1474   30.0477 H   0  0  0  0  0  0
   32.0067   -1.3420   30.4091 H   0  0  0  0  0  0
   30.4600   -2.4681   29.0779 H   0  0  0  0  0  0
   31.8393   -2.2163   28.0421 H   0  0  0  0  0  0
   26.0387   -3.1169   27.6714 H   0  0  0  0  0  0
   24.8880   -0.9630   27.4587 H   0  0  0  0  0  0
   26.1479    1.1002   27.3961 H   0  0  0  0  0  0
   29.4431    1.6381   26.5854 H   0  0  0  0  0  0
   27.9801    2.2653   27.1797 H   0  0  0  0  0  0
   29.6600    3.0580   28.6640 H   0  0  0  0  0  0
   28.8600    1.7969   29.5941 H   0  0  0  0  0  0
   30.4078    1.5084   28.8046 H   0  0  0  0  0  0
   29.6411   -3.6883   27.4640 H   0  0  0  0  0  0
   28.4778   -4.0730   28.7537 H   0  0  0  0  0  0
   28.0600   -4.3157   27.0673 H   0  0  0  0  0  0
   33.2571   -2.3674   26.4905 H   0  0  0  0  0  0
   34.5340   -3.8144   24.9719 H   0  0  0  0  0  0
   30.5587   -1.4648   23.2813 H   0  0  0  0  0  0
   32.3717   -2.5420   20.6590 H   0  0  0  0  0  0
   31.5845   -4.0471   21.1174 H   0  0  0  0  0  0
   30.6767   -2.5512   21.1817 H   0  0  0  0  0  0
   33.6390   -4.2776   21.5477 H   0  0  0  0  0  0
  1  2  1  0  0  0
  1 25  1  0  0  0
  1 26  1  0  0  0
  1 27  1  0  0  0
  2  3  1  0  0  0
  2 28  1  0  0  0
  2 29  1  0  0  0
  3  4  1  0  0  0
  3 30  1  0  0  0
  3 31  1  0  0  0
  4  5  1  0  0  0
  4 14  1  0  0  0
  5 10  1  0  0  0
  5  6  2  0  0  0
  6  7  1  0  0  0
  6 13  1  0  0  0
  7  8  2  0  0  0
  7 32  1  0  0  0
  8  9  1  0  0  0
  8 33  1  0  0  0
  9 10  2  0  0  0
  9 34  1  0  0  0
 10 11  1  0  0  0
 11 12  1  0  0  0
 11 35  1  0  0  0
 11 36  1  0  0  0
 12 37  1  0  0  0
 12 38  1  0  0  0
 12 39  1  0  0  0
 13 40  1  0  0  0
 13 41  1  0  0  0
 13 42  1  0  0  0
 14 15  2  0  0  0
 14 16  2  0  0  0
 14 17  1  0  0  0
 17 22  1  0  0  0
 17 18  2  0  0  0
 18 19  1  0  0  0
 18 43  1  0  0  0
 19 20  2  0  0  0
 19 44  1  0  0  0
 20 21  1  0  0  0
 20 24  1  0  0  0
 21 22  2  0  0  0
 21 23  1  0  0  0
 22 45  1  0  0  0
 23 46  1  0  0  0
 23 47  1  0  0  0
 23 48  1  0  0  0
 24 49  1  0  0  0
M  END
> <s_m_entry_id>
17646

> <s_m_entry_name>
ligand_docking-pose.573

> <s_m_Source_Path>
/home/csk/Desktop/cluster/DUD-E-result/esr1

> <s_m_Source_File>
ligand_docking-pose.sdf

> <i_m_Source_File_Index>
573

> <i_lp_mmshare_version>
53161

> <i_f3d_flags>
0

> <r_lp_tautomer_probability>
0.999999999997365

> <s_lp_Force_Field>
OPLS_2005

> <r_lp_Energy>
10.899675

> <b_lp_Chiralities_Consistent>
1

> <s_lp_Variant>
338790-1

> <s_i_glide_gridfile>
glide-grid_1sj0

> <i_i_glide_lignum>
1530

> <i_i_glide_rotatable_bonds>
7

> <r_i_docking_score>
-7.4042507589912

> <r_i_glide_ligand_efficiency>
-0.3085104482913

> <r_i_glide_ligand_efficiency_sa>
-0.889898122024231

> <r_i_glide_ligand_efficiency_ln>
-1.77217696555494

> <r_i_glide_gscore>
-7.4042507589912

> <r_i_glide_lipo>
-4.33845773768199

> <r_i_glide_hbond>
0

> <r_i_glide_metal>
0

> <r_i_glide_rewards>
-1.52642046012795

> <r_i_glide_evdw>
-37.826831817627

> <r_i_glide_ecoul>
-1.85545790195465

> <r_i_glide_erotb>
0.630287714993289

> <r_i_glide_esite>
0

> <r_i_glide_emodel>
-45.134109781526

> <r_i_glide_energy>
-39.6822897195816

> <r_i_glide_einternal>
9.37225341796875

> <i_i_glide_confnum>
14

> <i_i_glide_posenum>
181

> <r_i_glide_eff_state_penalty>
0

> <s_user_duplicate_titles>
338790

> <s_m_subgroup_title>
dock_pv

> <s_m_subgroupid>
dock_pv1

> <b_m_subgroup_collapsed>
0

$$$$
354340
                    3D
 Schrodinger Suite 2021-1.
 47 50  0  0  1  0            999 V2000
   27.0801   -3.8165   28.2310 C   0  0  0  0  0  0
   26.7051   -2.4099   27.7422 C   0  0  0  0  0  0
   27.5490   -1.9115   26.5513 C   0  0  0  0  0  0
   29.0696   -1.8571   26.8547 C   0  0  0  0  0  0
   29.9217   -0.7608   26.1290 C   0  0  1  0  0  0
   29.3878    0.6653   26.4314 C   0  0  0  0  0  0
   29.4916    1.0290   27.9270 C   0  0  0  0  0  0
   30.8948    0.7714   28.5014 C   0  0  0  0  0  0
   31.1981    1.2555   29.5926 O   0  0  0  0  0  0
   31.7779   -0.1767   27.7669 C   0  0  0  0  0  0
   31.3540   -0.8546   26.6592 C   0  0  0  0  0  0
   32.0485   -1.8081   25.7504 C   0  0  0  0  0  0
   33.2079   -2.5418   25.9468 C   0  0  0  0  0  0
   33.8167   -3.2549   24.9223 C   0  0  0  0  0  0
   33.1989   -3.2639   23.6842 C   0  0  0  0  0  0
   31.9539   -2.6326   23.4549 C   0  0  0  0  0  0
   31.3807   -1.8776   24.5267 C   0  0  0  0  0  0
   30.1315   -1.0403   24.6264 C   0  0  0  0  0  0
   31.6600   -3.0683   22.1016 C   0  0  0  0  0  0
   32.6537   -3.7110   21.5541 N   0  0  0  0  0  0
   33.5907   -3.8364   22.4941 N   0  0  0  0  0  0
   30.5189   -2.9420   21.4640 F   0  0  0  0  0  0
   33.2151   -0.2376   28.2992 C   0  0  0  0  0  0
   33.4184   -1.2380   29.4472 C   0  0  0  0  0  0
   34.4337   -4.3564   22.2959 H   0  0  0  0  0  0
   26.3918   -4.1419   29.0107 H   0  0  0  0  0  0
   28.0878   -3.8476   28.6458 H   0  0  0  0  0  0
   27.0329   -4.5416   27.4174 H   0  0  0  0  0  0
   25.6521   -2.4101   27.4620 H   0  0  0  0  0  0
   26.7802   -1.6977   28.5663 H   0  0  0  0  0  0
   27.3586   -2.5414   25.6821 H   0  0  0  0  0  0
   27.1622   -0.9346   26.2730 H   0  0  0  0  0  0
   29.1947   -1.7264   27.9305 H   0  0  0  0  0  0
   29.4991   -2.8421   26.6665 H   0  0  0  0  0  0
   29.9558    1.3900   25.8641 H   0  0  0  0  0  0
   28.3665    0.8014   26.0819 H   0  0  0  0  0  0
   28.8101    0.3904   28.4876 H   0  0  0  0  0  0
   29.2029    2.0611   28.1255 H   0  0  0  0  0  0
   33.6600   -2.5443   26.9190 H   0  0  0  0  0  0
   34.7564   -3.7420   25.0636 H   0  0  0  0  0  0
   29.2600   -1.5340   24.2641 H   0  0  0  0  0  0
   30.2423   -0.1419   24.0320 H   0  0  0  0  0  0
   33.8981   -0.4592   27.4831 H   0  0  0  0  0  0
   33.5400    0.7519   28.6291 H   0  0  0  0  0  0
   34.4694   -1.2907   29.7296 H   0  0  0  0  0  0
   32.8538   -0.9428   30.3325 H   0  0  0  0  0  0
   33.1008   -2.2421   29.1666 H   0  0  0  0  0  0
  1  2  1  0  0  0
  1 26  1  0  0  0
  1 27  1  0  0  0
  1 28  1  0  0  0
  2  3  1  0  0  0
  2 29  1  0  0  0
  2 30  1  0  0  0
  3  4  1  0  0  0
  3 31  1  0  0  0
  3 32  1  0  0  0
  4  5  1  0  0  0
  4 33  1  0  0  0
  4 34  1  0  0  0
  5 11  1  0  0  0
  5 18  1  0  0  0
  5  6  1  0  0  0
  6  7  1  0  0  0
  6 35  1  0  0  0
  6 36  1  0  0  0
  7  8  1  0  0  0
  7 37  1  0  0  0
  7 38  1  0  0  0
  8  9  2  0  0  0
  8 10  1  0  0  0
 10 11  2  0  0  0
 10 23  1  0  0  0
 11 12  1  0  0  0
 12 17  1  0  0  0
 12 13  2  0  0  0
 13 14  1  0  0  0
 13 39  1  0  0  0
 14 15  2  0  0  0
 14 40  1  0  0  0
 15 21  1  0  0  0
 15 16  1  0  0  0
 16 17  2  0  0  0
 16 19  1  0  0  0
 17 18  1  0  0  0
 18 41  1  0  0  0
 18 42  1  0  0  0
 19 20  2  0  0  0
 19 22  1  0  0  0
 20 21  1  0  0  0
 21 25  1  0  0  0
 23 24  1  0  0  0
 23 43  1  0  0  0
 23 44  1  0  0  0
 24 45  1  0  0  0
 24 46  1  0  0  0
 24 47  1  0  0  0
M  END
> <s_m_entry_id>
17647

> <s_m_entry_name>
ligand_docking-pose.574

> <s_m_Source_Path>
/home/csk/Desktop/cluster/DUD-E-result/esr1

> <s_m_Source_File>
ligand_docking-pose.sdf

> <i_m_Source_File_Index>
574

> <i_lp_mmshare_version>
53161

> <i_f3d_flags>
0

> <r_lp_tautomer_probability>
1

> <s_lp_Force_Field>
OPLS_2005

> <r_lp_Energy>
38.204897

> <b_lp_Chiralities_Consistent>
1

> <s_lp_Variant>
354340-1

> <s_i_glide_gridfile>
glide-grid_1sj0

> <i_i_glide_lignum>
1306

> <i_i_glide_rotatable_bonds>
4

> <r_i_docking_score>
-7.40291211988025

> <r_i_glide_ligand_efficiency>
-0.308454671661677

> <r_i_glide_ligand_efficiency_sa>
-0.889737234384189

> <r_i_glide_ligand_efficiency_ln>
-1.77185656778954

> <r_i_glide_gscore>
-7.40291211988025

> <r_i_glide_lipo>
-4.16683328282813

> <r_i_glide_hbond>
0

> <r_i_glide_metal>
0

> <r_i_glide_rewards>
-2.34282182780553

> <r_i_glide_evdw>
-27.2142848968506

> <r_i_glide_ecoul>
0.972638309001923

> <r_i_glide_erotb>
0.352054870813121

> <r_i_glide_esite>
-0.0304933815674786

> <r_i_glide_emodel>
-35.1896797599674

> <r_i_glide_energy>
-26.2416465878487

> <r_i_glide_einternal>
1.69579660892487

> <i_i_glide_confnum>
2

> <i_i_glide_posenum>
143

> <r_i_glide_eff_state_penalty>
0

> <s_user_duplicate_titles>
354340

> <s_m_subgroup_title>
dock_pv

> <s_m_subgroupid>
dock_pv1

> <b_m_subgroup_collapsed>
0

$$$$
42613
                    3D
 Schrodinger Suite 2021-1.
 28 30  0  0  1  0            999 V2000
   32.8926   -1.7419   28.6823 C   0  0  0  0  0  0
   32.3806   -0.8075   29.5846 C   0  0  0  0  0  0
   31.4599    0.1566   29.1841 C   0  0  0  0  0  0
   31.0208    0.2152   27.8629 C   0  0  0  0  0  0
   31.5454   -0.7109   26.9474 C   0  0  0  0  0  0
   32.4890   -1.7015   27.3384 C   0  0  0  0  0  0
   32.8945   -2.5112   26.2428 C   0  0  0  0  0  0
   32.3471   -2.1275   25.0330 C   0  0  0  0  0  0
   31.1802   -0.8311   25.2391 S   0  0  0  0  0  0
   32.6259   -2.6792   23.6691 C   0  0  0  0  0  0
   33.8440   -3.2956   23.3731 C   0  0  0  0  0  0
   34.0671   -3.8558   22.1127 C   0  0  0  0  0  0
   33.0534   -3.8823   21.1639 C   0  0  0  0  0  0
   31.8305   -3.2768   21.4462 C   0  0  0  0  0  0
   31.6600   -2.6282   22.6640 C   0  0  0  0  0  0
   30.7810   -3.3420   20.5647 O   0  0  0  0  0  0
   33.2600   -4.5420   19.9837 O   0  0  0  0  0  0
   30.9871    1.0580   30.1016 O   0  0  0  0  0  0
   33.6107   -2.4758   29.0175 H   0  0  0  0  0  0
   32.7067   -0.8321   30.6151 H   0  0  0  0  0  0
   30.3066    0.9603   27.5454 H   0  0  0  0  0  0
   33.6041   -3.3168   26.3401 H   0  0  0  0  0  0
   34.6209   -3.3420   24.1205 H   0  0  0  0  0  0
   35.0102   -4.3208   21.8681 H   0  0  0  0  0  0
   30.7230   -2.1420   22.8445 H   0  0  0  0  0  0
   30.7536   -4.2187   20.1509 H   0  0  0  0  0  0
   32.5796   -5.2231   19.8523 H   0  0  0  0  0  0
   30.3732    1.6966   29.7341 H   0  0  0  0  0  0
  1  6  1  0  0  0
  1  2  2  0  0  0
  1 19  1  0  0  0
  2  3  1  0  0  0
  2 20  1  0  0  0
  3  4  2  0  0  0
  3 18  1  0  0  0
  4  5  1  0  0  0
  4 21  1  0  0  0
  5  9  1  0  0  0
  5  6  2  0  0  0
  6  7  1  0  0  0
  7  8  2  0  0  0
  7 22  1  0  0  0
  8  9  1  0  0  0
  8 10  1  0  0  0
 10 15  1  0  0  0
 10 11  2  0  0  0
 11 12  1  0  0  0
 11 23  1  0  0  0
 12 13  2  0  0  0
 12 24  1  0  0  0
 13 14  1  0  0  0
 13 17  1  0  0  0
 14 15  2  0  0  0
 14 16  1  0  0  0
 15 25  1  0  0  0
 16 26  1  0  0  0
 17 27  1  0  0  0
 18 28  1  0  0  0
M  END
> <s_m_entry_id>
17648

> <s_m_entry_name>
ligand_docking-pose.575

> <s_m_Source_Path>
/home/csk/Desktop/cluster/DUD-E-result/esr1

> <s_m_Source_File>
ligand_docking-pose.sdf

> <i_m_Source_File_Index>
575

> <i_lp_mmshare_version>
53161

> <i_f3d_flags>
0

> <r_lp_tautomer_probability>
0.999999999999776

> <s_lp_Force_Field>
OPLS_2005

> <r_lp_Energy>
11.223364

> <b_lp_Chiralities_Consistent>
1

> <s_lp_Variant>
42613-1

> <s_i_glide_gridfile>
glide-grid_1sj0

> <i_i_glide_lignum>
146

> <i_i_glide_rotatable_bonds>
4

> <r_i_docking_score>
-7.3973181601001

> <r_i_glide_ligand_efficiency>
-0.410962120005561

> <r_i_glide_ligand_efficiency_sa>
-1.07702543831275

> <r_i_glide_ligand_efficiency_ln>
-1.90144248941916

> <r_i_glide_gscore>
-7.3973181601001

> <r_i_glide_lipo>
-3.15855432590229

> <r_i_glide_hbond>
0

> <r_i_glide_metal>
0

> <r_i_glide_rewards>
-2.110388430187

> <r_i_glide_evdw>
-27.9426078796387

> <r_i_glide_ecoul>
-6.63987731933594

> <r_i_glide_erotb>
0.26473658787152

> <r_i_glide_esite>
0

> <r_i_glide_emodel>
-47.3852827489287

> <r_i_glide_energy>
-34.5824851989746

> <r_i_glide_einternal>
4.95491981506348

> <i_i_glide_confnum>
1

> <i_i_glide_posenum>
106

> <r_i_glide_eff_state_penalty>
0

> <s_user_duplicate_titles>
42613

> <s_m_subgroup_title>
dock_pv

> <s_m_subgroupid>
dock_pv1

> <b_m_subgroup_collapsed>
0

$$$$
312925
                    3D
 Schrodinger Suite 2021-1.
 26 28  0  0  1  0            999 V2000
   30.6605    0.5245   27.5676 C   0  0  0  0  0  0
   29.5884    1.3654   27.8524 C   0  0  0  0  0  0
   28.2861    0.9473   27.5866 C   0  0  0  0  0  0
   28.0412   -0.3259   27.0603 C   0  0  0  0  0  0
   29.1165   -1.1574   26.7576 C   0  0  0  0  0  0
   30.4244   -0.7308   27.0016 C   0  0  0  0  0  0
   31.5469   -1.6044   26.6163 C   0  0  0  0  0  0
   31.8973   -1.9899   25.2915 C   0  0  0  0  0  0
   31.4514   -1.7416   23.9836 C   0  0  0  0  0  0
   32.0867   -2.4065   22.9308 C   0  0  0  0  0  0
   33.1707   -3.2564   23.1566 C   0  0  0  0  0  0
   33.6556   -3.4692   24.4448 C   0  0  0  0  0  0
   32.9841   -2.8415   25.4883 C   0  0  0  0  0  0
   33.2584   -2.9493   26.8174 O   0  0  0  0  0  0
   32.3529   -2.1397   27.5110 N   0  0  0  0  0  0
   33.7565   -3.9029   22.1052 O   0  0  0  0  0  0
   26.4284   -0.8897   26.7778 Cl  0  0  0  0  0  0
   27.2598    1.7991   27.8538 O   0  0  0  0  0  0
   31.6709    0.8583   27.7593 H   0  0  0  0  0  0
   29.7696    2.3453   28.2689 H   0  0  0  0  0  0
   28.9346   -2.1360   26.3360 H   0  0  0  0  0  0
   30.6167   -1.0817   23.7969 H   0  0  0  0  0  0
   31.7290   -2.2564   21.9222 H   0  0  0  0  0  0
   34.4601   -4.1411   24.6495 H   0  0  0  0  0  0
   33.2317   -3.8684   21.3012 H   0  0  0  0  0  0
   26.4062    1.4499   27.5781 H   0  0  0  0  0  0
  1  6  1  0  0  0
  1  2  2  0  0  0
  1 19  1  0  0  0
  2  3  1  0  0  0
  2 20  1  0  0  0
  3  4  2  0  0  0
  3 18  1  0  0  0
  4  5  1  0  0  0
  4 17  1  0  0  0
  5  6  2  0  0  0
  5 21  1  0  0  0
  6  7  1  0  0  0
  7 15  2  0  0  0
  7  8  1  0  0  0
  8 13  2  0  0  0
  8  9  1  0  0  0
  9 10  2  0  0  0
  9 22  1  0  0  0
 10 11  1  0  0  0
 10 23  1  0  0  0
 11 12  2  0  0  0
 11 16  1  0  0  0
 12 13  1  0  0  0
 12 24  1  0  0  0
 13 14  1  0  0  0
 14 15  1  0  0  0
 16 25  1  0  0  0
 18 26  1  0  0  0
M  END
> <s_m_entry_id>
17649

> <s_m_entry_name>
ligand_docking-pose.576

> <s_m_Source_Path>
/home/csk/Desktop/cluster/DUD-E-result/esr1

> <s_m_Source_File>
ligand_docking-pose.sdf

> <i_m_Source_File_Index>
576

> <i_lp_mmshare_version>
53161

> <i_f3d_flags>
0

> <r_lp_tautomer_probability>
0.999999999997365

> <s_lp_Force_Field>
OPLS_2005

> <r_lp_Energy>
21.270262

> <b_lp_Chiralities_Consistent>
1

> <s_lp_Variant>
312925-1

> <s_i_glide_gridfile>
glide-grid_1sj0

> <i_i_glide_lignum>
192

> <i_i_glide_rotatable_bonds>
3

> <r_i_docking_score>
-7.39583588601936

> <r_i_glide_ligand_efficiency>
-0.41087977144552

> <r_i_glide_ligand_efficiency_sa>
-1.0768096240329

> <r_i_glide_ligand_efficiency_ln>
-1.90106147850993

> <r_i_glide_gscore>
-7.39583588601936

> <r_i_glide_lipo>
-3.5906430562834

> <r_i_glide_hbond>
-0.0270589626532535

> <r_i_glide_metal>
0

> <r_i_glide_rewards>
-2.19833191493095

> <r_i_glide_evdw>
-30.8815498352051

> <r_i_glide_ecoul>
-1.9641455411911

> <r_i_glide_erotb>
0.258897370787162

> <r_i_glide_esite>
0

> <r_i_glide_emodel>
-45.1194630530664

> <r_i_glide_energy>
-32.8456953763962

> <r_i_glide_einternal>
3.23684525489807

> <i_i_glide_confnum>
1

> <i_i_glide_posenum>
380

> <r_i_glide_eff_state_penalty>
0

> <s_user_duplicate_titles>
312925

> <s_m_subgroup_title>
dock_pv

> <s_m_subgroupid>
dock_pv1

> <b_m_subgroup_collapsed>
0

$$$$
42678
                    3D
 Schrodinger Suite 2021-1.
 33 35  0  0  1  0            999 V2000
   31.0107   -2.6338   19.0371 C   0  0  0  0  0  0
   30.6578   -3.1552   20.4426 C   0  0  0  0  0  0
   31.8239   -3.1796   21.4379 C   0  0  0  0  0  0
   31.6604   -2.5421   22.6716 C   0  0  0  0  0  0
   32.6367   -2.5896   23.6636 C   0  0  0  0  0  0
   33.8495   -3.2167   23.3734 C   0  0  0  0  0  0
   34.0596   -3.8019   22.1259 C   0  0  0  0  0  0
   33.0417   -3.8281   21.1789 C   0  0  0  0  0  0
   33.2600   -4.5420   20.0334 O   0  0  0  0  0  0
   32.3514   -1.9751   24.9932 C   0  0  0  0  0  0
   31.6603   -0.8107   25.2791 C   0  0  0  0  0  0
   31.6344   -0.4910   26.6641 C   0  0  0  0  0  0
   31.0799    0.6207   27.3228 C   0  0  0  0  0  0
   31.2258    0.7460   28.7060 C   0  0  0  0  0  0
   31.9096   -0.2133   29.4484 C   0  0  0  0  0  0
   32.4478   -1.3420   28.8341 C   0  0  0  0  0  0
   32.2994   -1.4782   27.4459 C   0  0  0  0  0  0
   32.8600   -2.8072   26.4482 S   0  0  0  0  0  0
   32.0597   -0.0406   30.7983 O   0  0  0  0  0  0
   30.1048   -2.3741   18.4917 H   0  0  0  0  0  0
   31.5396   -3.3855   18.4515 H   0  0  0  0  0  0
   31.6344   -1.7421   19.0641 H   0  0  0  0  0  0
   29.8525   -2.5420   20.8443 H   0  0  0  0  0  0
   30.2105   -4.1420   20.3729 H   0  0  0  0  0  0
   30.7434   -2.0328   22.8977 H   0  0  0  0  0  0
   34.6306   -3.2558   24.1164 H   0  0  0  0  0  0
   34.9931   -4.2911   21.8946 H   0  0  0  0  0  0
   32.5051   -5.1321   19.8639 H   0  0  0  0  0  0
   31.2250   -0.1762   24.5234 H   0  0  0  0  0  0
   30.5580    1.3822   26.7633 H   0  0  0  0  0  0
   30.8122    1.6081   29.2100 H   0  0  0  0  0  0
   32.9733   -2.0913   29.4078 H   0  0  0  0  0  0
   32.6164   -0.7092   31.2036 H   0  0  0  0  0  0
  1  2  1  0  0  0
  1 20  1  0  0  0
  1 21  1  0  0  0
  1 22  1  0  0  0
  2  3  1  0  0  0
  2 23  1  0  0  0
  2 24  1  0  0  0
  3  8  1  0  0  0
  3  4  2  0  0  0
  4  5  1  0  0  0
  4 25  1  0  0  0
  5  6  2  0  0  0
  5 10  1  0  0  0
  6  7  1  0  0  0
  6 26  1  0  0  0
  7  8  2  0  0  0
  7 27  1  0  0  0
  8  9  1  0  0  0
  9 28  1  0  0  0
 10 18  1  0  0  0
 10 11  2  0  0  0
 11 12  1  0  0  0
 11 29  1  0  0  0
 12 17  2  0  0  0
 12 13  1  0  0  0
 13 14  2  0  0  0
 13 30  1  0  0  0
 14 15  1  0  0  0
 14 31  1  0  0  0
 15 16  2  0  0  0
 15 19  1  0  0  0
 16 17  1  0  0  0
 16 32  1  0  0  0
 17 18  1  0  0  0
 19 33  1  0  0  0
M  END
> <s_m_entry_id>
17650

> <s_m_entry_name>
ligand_docking-pose.577

> <s_m_Source_Path>
/home/csk/Desktop/cluster/DUD-E-result/esr1

> <s_m_Source_File>
ligand_docking-pose.sdf

> <i_m_Source_File_Index>
577

> <i_lp_mmshare_version>
53161

> <i_f3d_flags>
0

> <r_lp_tautomer_probability>
0.999999999997365

> <s_lp_Force_Field>
OPLS_2005

> <r_lp_Energy>
11.363294

> <b_lp_Chiralities_Consistent>
1

> <s_lp_Variant>
42678-1

> <s_i_glide_gridfile>
glide-grid_1sj0

> <i_i_glide_lignum>
1165

> <i_i_glide_rotatable_bonds>
4

> <r_i_docking_score>
-7.39569773457067

> <r_i_glide_ligand_efficiency>
-0.38924724918793

> <r_i_glide_ligand_efficiency_sa>
-1.03866800047412

> <r_i_glide_ligand_efficiency_ln>
-1.87496822073631

> <r_i_glide_gscore>
-7.39569773457067

> <r_i_glide_lipo>
-3.25441661269748

> <r_i_glide_hbond>
-0.16

> <r_i_glide_metal>
0

> <r_i_glide_rewards>
-2.09291705120207

> <r_i_glide_evdw>
-29.5726566314697

> <r_i_glide_ecoul>
-4.36287975311279

> <r_i_glide_erotb>
0.244700723869286

> <r_i_glide_esite>
0

> <r_i_glide_emodel>
-45.9897688177183

> <r_i_glide_energy>
-33.9355363845825

> <r_i_glide_einternal>
4.68120813369751

> <i_i_glide_confnum>
2

> <i_i_glide_posenum>
119

> <r_i_glide_eff_state_penalty>
0

> <s_user_duplicate_titles>
42678

> <s_m_subgroup_title>
dock_pv

> <s_m_subgroupid>
dock_pv1

> <b_m_subgroup_collapsed>
0

$$$$
119774
                    3D
 Schrodinger Suite 2021-1.
 38 39  0  0  1  0            999 V2000
   32.4592   -4.1769   21.8638 C   0  0  0  0  0  0
   32.9788   -4.1419   23.1888 O   0  0  0  0  0  0
   32.6302   -3.1095   24.0349 C   0  0  0  0  0  0
   33.1002   -3.1849   25.3450 C   0  0  0  0  0  0
   32.8743   -2.1423   26.2404 C   0  0  0  0  0  0
   32.1798   -1.0071   25.8263 C   0  0  0  0  0  0
   31.6183   -0.9764   24.5508 C   0  0  0  0  0  0
   31.8509   -2.0125   23.6542 C   0  0  0  0  0  0
   32.1041    0.1839   26.6924 C   0  0  0  0  0  0
   31.0361    0.5671   27.4192 C   0  0  0  0  0  0
   29.7978   -0.2069   27.5499 C   0  0  0  0  0  0
   29.8564   -1.5640   27.8728 C   0  0  0  0  0  0
   28.7087   -2.3417   27.9062 C   0  0  0  0  0  0
   27.4828   -1.7506   27.6036 C   0  0  0  0  0  0
   27.3938   -0.3812   27.3292 C   0  0  0  0  0  0
   28.5570    0.3879   27.3178 C   0  0  0  0  0  0
   26.2065    0.2580   27.0640 O   0  0  0  0  0  0
   25.0757   -0.5437   26.7473 C   0  0  0  0  0  0
   28.8599   -3.6575   28.2640 O   0  0  0  0  0  0
   27.7135   -4.4866   28.3169 C   0  0  0  0  0  0
   32.8601   -5.0504   21.3491 H   0  0  0  0  0  0
   32.7516   -3.2968   21.2892 H   0  0  0  0  0  0
   31.3712   -4.2631   21.8641 H   0  0  0  0  0  0
   33.6608   -4.0524   25.6558 H   0  0  0  0  0  0
   33.2879   -2.1957   27.2368 H   0  0  0  0  0  0
   31.0199   -0.1420   24.2361 H   0  0  0  0  0  0
   31.4340   -1.9440   22.6642 H   0  0  0  0  0  0
   32.9884    0.8051   26.7071 H   0  0  0  0  0  0
   31.0875    1.4878   27.9820 H   0  0  0  0  0  0
   30.8034   -2.0333   28.0920 H   0  0  0  0  0  0
   26.5987   -2.3639   27.6019 H   0  0  0  0  0  0
   28.4911    1.4395   27.0798 H   0  0  0  0  0  0
   24.1857    0.0532   26.5619 H   0  0  0  0  0  0
   25.2600   -1.1547   25.8641 H   0  0  0  0  0  0
   24.8600   -1.2001   27.5830 H   0  0  0  0  0  0
   28.0508   -5.4394   28.6959 H   0  0  0  0  0  0
   26.9574   -4.1152   29.0095 H   0  0  0  0  0  0
   27.2730   -4.6309   27.3289 H   0  0  0  0  0  0
  1  2  1  0  0  0
  1 21  1  0  0  0
  1 22  1  0  0  0
  1 23  1  0  0  0
  2  3  1  0  0  0
  3  8  1  0  0  0
  3  4  2  0  0  0
  4  5  1  0  0  0
  4 24  1  0  0  0
  5  6  2  0  0  0
  5 25  1  0  0  0
  6  7  1  0  0  0
  6  9  1  0  0  0
  7  8  2  0  0  0
  7 26  1  0  0  0
  8 27  1  0  0  0
  9 10  2  0  0  0
  9 28  1  0  0  0
 10 11  1  0  0  0
 10 29  1  0  0  0
 11 16  1  0  0  0
 11 12  2  0  0  0
 12 13  1  0  0  0
 12 30  1  0  0  0
 13 14  2  0  0  0
 13 19  1  0  0  0
 14 15  1  0  0  0
 14 31  1  0  0  0
 15 16  2  0  0  0
 15 17  1  0  0  0
 16 32  1  0  0  0
 17 18  1  0  0  0
 18 33  1  0  0  0
 18 34  1  0  0  0
 18 35  1  0  0  0
 19 20  1  0  0  0
 20 36  1  0  0  0
 20 37  1  0  0  0
 20 38  1  0  0  0
M  END
> <s_m_entry_id>
17651

> <s_m_entry_name>
ligand_docking-pose.578

> <s_m_Source_Path>
/home/csk/Desktop/cluster/DUD-E-result/esr1

> <s_m_Source_File>
ligand_docking-pose.sdf

> <i_m_Source_File_Index>
578

> <i_lp_mmshare_version>
53161

> <i_f3d_flags>
0

> <r_lp_tautomer_probability>
1

> <s_lp_Force_Field>
OPLS_2005

> <r_lp_Energy>
28.797051

> <b_lp_Chiralities_Consistent>
1

> <s_lp_Variant>
119774-1

> <s_i_glide_gridfile>
glide-grid_1sj0

> <i_i_glide_lignum>
1790

> <i_i_glide_rotatable_bonds>
5

> <r_i_docking_score>
-7.39266744523359

> <r_i_glide_ligand_efficiency>
-0.369633372261679

> <r_i_glide_ligand_efficiency_sa>
-1.00333933634657

> <r_i_glide_ligand_efficiency_ln>
-1.85014083505104

> <r_i_glide_gscore>
-7.39266744523359

> <r_i_glide_lipo>
-4.20461855697367

> <r_i_glide_hbond>
0

> <r_i_glide_metal>
0

> <r_i_glide_rewards>
-1.96240729834048

> <r_i_glide_evdw>
-32.9670677185059

> <r_i_glide_ecoul>
-0.445101737976074

> <r_i_glide_erotb>
0.489477056702263

> <r_i_glide_esite>
0

> <r_i_glide_emodel>
-39.4089975918491

> <r_i_glide_energy>
-33.4121694564819

> <r_i_glide_einternal>
15.1476640701294

> <i_i_glide_confnum>
8

> <i_i_glide_posenum>
30

> <r_i_glide_eff_state_penalty>
0

> <s_user_duplicate_titles>
119774

> <s_m_subgroup_title>
dock_pv

> <s_m_subgroupid>
dock_pv1

> <b_m_subgroup_collapsed>
0

$$$$
342482
                    3D
 Schrodinger Suite 2021-1.
 37 39  0  0  1  0            999 V2000
   31.8431   -2.0110   22.6178 C   0  0  0  0  0  0
   32.1975   -2.3825   24.0281 C   0  0  0  0  0  0
   33.1034   -3.4002   24.2677 C   0  0  0  0  0  0
   33.3830   -3.7420   25.5738 C   0  0  0  0  0  0
   32.8596   -3.0480   26.6449 C   0  0  0  0  0  0
   32.0411   -1.9427   26.4292 C   0  0  0  0  0  0
   31.6409   -1.6884   25.1078 C   0  0  0  0  0  0
   30.6629   -0.7734   24.7994 O   0  0  0  0  0  0
   29.8738   -0.2730   25.7515 C   0  0  0  0  0  0
   28.8600    0.2580   25.3311 O   0  0  0  0  0  0
   30.3496   -0.2937   27.1693 C   0  0  0  0  0  0
   31.5029   -1.0425   27.5008 C   0  0  0  0  0  0
   32.1191   -0.8508   28.7608 C   0  0  0  0  0  0
   31.5507    0.0184   29.6877 C   0  0  0  0  0  0
   30.3525    0.6580   29.3772 C   0  0  0  0  0  0
   29.7320    0.5082   28.1378 C   0  0  0  0  0  0
   28.0458    1.3994   27.8254 Br  0  0  0  0  0  0
   29.6846    1.5047   30.4061 C   0  0  0  0  0  0
   32.1437    0.2035   30.9185 O   0  0  0  0  0  0
   33.0006    1.3387   30.9951 C   0  0  0  0  0  0
   33.4620   -1.4671   29.1188 C   0  0  0  0  0  0
   33.6600   -4.1369   23.2584 O   0  0  0  0  0  0
   32.6674   -2.1674   21.9213 H   0  0  0  0  0  0
   30.9584   -2.5420   22.2642 H   0  0  0  0  0  0
   31.6600   -0.9418   22.6640 H   0  0  0  0  0  0
   34.0498   -4.5420   25.7963 H   0  0  0  0  0  0
   33.1134   -3.4081   27.6240 H   0  0  0  0  0  0
   29.2600    2.3491   29.8640 H   0  0  0  0  0  0
   28.8600    1.0580   30.9253 H   0  0  0  0  0  0
   30.3755    1.8580   31.1640 H   0  0  0  0  0  0
   33.4090    1.4242   32.0006 H   0  0  0  0  0  0
   33.8389    1.2757   30.3002 H   0  0  0  0  0  0
   32.4600    2.2580   30.7810 H   0  0  0  0  0  0
   34.0600   -1.4214   28.2222 H   0  0  0  0  0  0
   33.3645   -2.4943   29.4640 H   0  0  0  0  0  0
   34.0310   -0.9162   29.8640 H   0  0  0  0  0  0
   34.0601   -4.9445   23.5916 H   0  0  0  0  0  0
  1  2  1  0  0  0
  1 23  1  0  0  0
  1 24  1  0  0  0
  1 25  1  0  0  0
  2  7  1  0  0  0
  2  3  2  0  0  0
  3  4  1  0  0  0
  3 22  1  0  0  0
  4  5  2  0  0  0
  4 26  1  0  0  0
  5  6  1  0  0  0
  5 27  1  0  0  0
  6 12  1  0  0  0
  6  7  2  0  0  0
  7  8  1  0  0  0
  8  9  1  0  0  0
  9 10  2  0  0  0
  9 11  1  0  0  0
 11 16  1  0  0  0
 11 12  2  0  0  0
 12 13  1  0  0  0
 13 14  2  0  0  0
 13 21  1  0  0  0
 14 15  1  0  0  0
 14 19  1  0  0  0
 15 16  2  0  0  0
 15 18  1  0  0  0
 16 17  1  0  0  0
 18 28  1  0  0  0
 18 29  1  0  0  0
 18 30  1  0  0  0
 19 20  1  0  0  0
 20 31  1  0  0  0
 20 32  1  0  0  0
 20 33  1  0  0  0
 21 34  1  0  0  0
 21 35  1  0  0  0
 21 36  1  0  0  0
 22 37  1  0  0  0
M  END
> <s_m_entry_id>
17652

> <s_m_entry_name>
ligand_docking-pose.579

> <s_m_Source_Path>
/home/csk/Desktop/cluster/DUD-E-result/esr1

> <s_m_Source_File>
ligand_docking-pose.sdf

> <i_m_Source_File_Index>
579

> <i_lp_mmshare_version>
53161

> <i_f3d_flags>
0

> <r_lp_tautomer_probability>
1

> <s_lp_Force_Field>
OPLS_2005

> <r_lp_Energy>
40.233602

> <b_lp_Chiralities_Consistent>
1

> <s_lp_Variant>
342482-1

> <s_i_glide_gridfile>
glide-grid_1sj0

> <i_i_glide_lignum>
972

> <i_i_glide_rotatable_bonds>
2

> <r_i_docking_score>
-7.38700214703508

> <r_i_glide_ligand_efficiency>
-0.335772824865231

> <r_i_glide_ligand_efficiency_sa>
-0.940848660468239

> <r_i_glide_ligand_efficiency_ln>
-1.80565277218552

> <r_i_glide_gscore>
-7.38700214703508

> <r_i_glide_lipo>
-4.53499714729814

> <r_i_glide_hbond>
-0.10679428859835

> <r_i_glide_metal>
0

> <r_i_glide_rewards>
-1.7738980213574

> <r_i_glide_evdw>
-17.1214237213135

> <r_i_glide_ecoul>
-0.768276691436768

> <r_i_glide_erotb>
0

> <r_i_glide_esite>
0

> <r_i_glide_emodel>
-28.8132949363512

> <r_i_glide_energy>
-17.8897004127502

> <r_i_glide_einternal>
0.359033137559891

> <i_i_glide_confnum>
1

> <i_i_glide_posenum>
8

> <r_i_glide_eff_state_penalty>
0

> <s_user_duplicate_titles>
342482

> <s_m_subgroup_title>
dock_pv

> <s_m_subgroupid>
dock_pv1

> <b_m_subgroup_collapsed>
0

$$$$
313751
                    3D
 Schrodinger Suite 2021-1.
 32 35  0  0  1  0            999 V2000
   30.4202   -0.0182   26.7354 C   0  0  0  0  0  0
   30.7908   -0.7115   25.5880 C   0  0  0  0  0  0
   31.9078   -1.5516   25.5767 C   0  0  0  0  0  0
   32.6440   -1.7306   26.7491 C   0  0  0  0  0  0
   32.3030   -1.0299   27.9323 C   0  0  0  0  0  0
   31.1763   -0.1512   27.9221 C   0  0  0  0  0  0
   30.8472    0.5676   29.0979 C   0  0  0  0  0  0
   31.6062    0.4055   30.2528 C   0  0  0  0  0  0
   32.6965   -0.4516   30.2623 C   0  0  0  0  0  0
   33.0568   -1.1655   29.1226 C   0  0  0  0  0  0
   31.2750    1.0784   31.3959 O   0  0  0  0  0  0
   32.3201   -2.2163   24.3044 C   0  0  0  0  0  0
   33.4636   -2.8244   24.0390 N   0  0  0  0  0  0
   33.3609   -3.1383   22.7101 C   0  0  0  0  0  0
   34.2658   -3.7211   21.8074 C   0  0  0  0  0  0
   33.8595   -3.8818   20.4774 C   0  0  0  0  0  0
   32.5841   -3.5002   20.0544 C   0  0  0  0  0  0
   31.6629   -2.9421   20.9334 C   0  0  0  0  0  0
   32.0968   -2.7545   22.2442 C   0  0  0  0  0  0
   31.4435   -2.1429   23.2602 O   0  0  0  0  0  0
   32.1897   -3.7420   18.7726 O   0  0  0  0  0  0
   29.5626    0.6390   26.7165 H   0  0  0  0  0  0
   30.2075   -0.5687   24.6892 H   0  0  0  0  0  0
   33.5056   -2.3832   26.7529 H   0  0  0  0  0  0
   29.9963    1.2324   29.0898 H   0  0  0  0  0  0
   33.2606   -0.5636   31.1739 H   0  0  0  0  0  0
   33.9124   -1.8259   29.1450 H   0  0  0  0  0  0
   30.5214    1.6605   31.2833 H   0  0  0  0  0  0
   35.2562   -4.0132   22.1067 H   0  0  0  0  0  0
   34.5366   -4.3335   19.7662 H   0  0  0  0  0  0
   30.6751   -2.6535   20.6103 H   0  0  0  0  0  0
   31.6962   -4.5757   18.7864 H   0  0  0  0  0  0
  1  6  1  0  0  0
  1  2  2  0  0  0
  1 22  1  0  0  0
  2  3  1  0  0  0
  2 23  1  0  0  0
  3  4  2  0  0  0
  3 12  1  0  0  0
  4  5  1  0  0  0
  4 24  1  0  0  0
  5 10  2  0  0  0
  5  6  1  0  0  0
  6  7  2  0  0  0
  7  8  1  0  0  0
  7 25  1  0  0  0
  8  9  2  0  0  0
  8 11  1  0  0  0
  9 10  1  0  0  0
  9 26  1  0  0  0
 10 27  1  0  0  0
 11 28  1  0  0  0
 12 20  1  0  0  0
 12 13  2  0  0  0
 13 14  1  0  0  0
 14 19  2  0  0  0
 14 15  1  0  0  0
 15 16  2  0  0  0
 15 29  1  0  0  0
 16 17  1  0  0  0
 16 30  1  0  0  0
 17 18  2  0  0  0
 17 21  1  0  0  0
 18 19  1  0  0  0
 18 31  1  0  0  0
 19 20  1  0  0  0
 21 32  1  0  0  0
M  END
> <s_m_entry_id>
17653

> <s_m_entry_name>
ligand_docking-pose.580

> <s_m_Source_Path>
/home/csk/Desktop/cluster/DUD-E-result/esr1

> <s_m_Source_File>
ligand_docking-pose.sdf

> <i_m_Source_File_Index>
580

> <i_lp_mmshare_version>
53161

> <i_f3d_flags>
0

> <r_lp_tautomer_probability>
1

> <s_lp_Force_Field>
OPLS_2005

> <r_lp_Energy>
15.711738

> <b_lp_Chiralities_Consistent>
1

> <s_lp_Variant>
313751-1

> <s_i_glide_gridfile>
glide-grid_1sj0

> <i_i_glide_lignum>
144

> <i_i_glide_rotatable_bonds>
3

> <r_i_docking_score>
-7.38424388540293

> <r_i_glide_ligand_efficiency>
-0.351630661209663

> <r_i_glide_ligand_efficiency_sa>
-0.9701223313837

> <r_i_glide_ligand_efficiency_ln>
-1.82573937939614

> <r_i_glide_gscore>
-7.38424388540293

> <r_i_glide_lipo>
-3.35217612097223

> <r_i_glide_hbond>
-0.153165679543469

> <r_i_glide_metal>
0

> <r_i_glide_rewards>
-2.09125691745627

> <r_i_glide_evdw>
-32.0399131774902

> <r_i_glide_ecoul>
-2.79904270172119

> <r_i_glide_erotb>
0.234206896701733

> <r_i_glide_esite>
0

> <r_i_glide_emodel>
-48.5956170516427

> <r_i_glide_energy>
-34.8389558792114

> <r_i_glide_einternal>
1.09666895866394

> <i_i_glide_confnum>
2

> <i_i_glide_posenum>
159

> <r_i_glide_eff_state_penalty>
0

> <s_user_duplicate_titles>
313751

> <s_m_subgroup_title>
dock_pv

> <s_m_subgroupid>
dock_pv1

> <b_m_subgroup_collapsed>
0

$$$$
322695
                    3D
 Schrodinger Suite 2021-1.
 30 32  0  0  1  0            999 V2000
   33.8959   -3.0970   23.0558 C   0  0  0  0  0  0
   34.2796   -3.7138   21.8644 C   0  0  0  0  0  0
   33.3343   -3.9486   20.8756 C   0  0  0  0  0  0
   32.0343   -3.5000   21.0366 C   0  0  0  0  0  0
   31.6601   -2.8795   22.2169 C   0  0  0  0  0  0
   32.5679   -2.6974   23.2704 C   0  0  0  0  0  0
   32.1359   -2.1022   24.5803 C   0  0  0  0  0  0
   32.7931   -2.4264   25.7733 C   0  0  0  0  0  0
   32.4492   -1.8374   26.9885 C   0  0  0  0  0  0
   31.3875   -0.8970   27.0675 C   0  0  0  0  0  0
   30.6534   -0.6196   25.8751 C   0  0  0  0  0  0
   31.0554   -1.2136   24.6523 C   0  0  0  0  0  0
   29.5453    0.2577   25.9327 C   0  0  0  0  0  0
   29.2319    0.9238   27.1101 C   0  0  0  0  0  0
   29.9797    0.7135   28.2628 C   0  0  0  0  0  0
   31.0313   -0.2141   28.2741 C   0  0  0  0  0  0
   31.9020   -0.5047   29.7483 Cl  0  0  0  0  0  0
   29.6617    1.4459   29.3784 O   0  0  0  0  0  0
   33.6601   -4.6571   19.7541 O   0  0  0  0  0  0
   34.6451   -2.9440   23.8157 H   0  0  0  0  0  0
   35.2942   -4.0497   21.7230 H   0  0  0  0  0  0
   31.2998   -3.6659   20.2614 H   0  0  0  0  0  0
   30.6414   -2.5421   22.2641 H   0  0  0  0  0  0
   33.6060   -3.1368   25.7691 H   0  0  0  0  0  0
   33.0093   -2.0945   27.8759 H   0  0  0  0  0  0
   30.5083   -0.9455   23.7615 H   0  0  0  0  0  0
   28.9641    0.4443   25.0424 H   0  0  0  0  0  0
   28.4075    1.6222   27.1143 H   0  0  0  0  0  0
   28.9216    2.0393   29.2372 H   0  0  0  0  0  0
   32.8996   -5.1759   19.4644 H   0  0  0  0  0  0
  1  6  1  0  0  0
  1  2  2  0  0  0
  1 20  1  0  0  0
  2  3  1  0  0  0
  2 21  1  0  0  0
  3  4  2  0  0  0
  3 19  1  0  0  0
  4  5  1  0  0  0
  4 22  1  0  0  0
  5  6  2  0  0  0
  5 23  1  0  0  0
  6  7  1  0  0  0
  7 12  1  0  0  0
  7  8  2  0  0  0
  8  9  1  0  0  0
  8 24  1  0  0  0
  9 10  2  0  0  0
  9 25  1  0  0  0
 10 16  1  0  0  0
 10 11  1  0  0  0
 11 12  2  0  0  0
 11 13  1  0  0  0
 12 26  1  0  0  0
 13 14  2  0  0  0
 13 27  1  0  0  0
 14 15  1  0  0  0
 14 28  1  0  0  0
 15 16  2  0  0  0
 15 18  1  0  0  0
 16 17  1  0  0  0
 18 29  1  0  0  0
 19 30  1  0  0  0
M  END
> <s_m_entry_id>
17654

> <s_m_entry_name>
ligand_docking-pose.581

> <s_m_Source_Path>
/home/csk/Desktop/cluster/DUD-E-result/esr1

> <s_m_Source_File>
ligand_docking-pose.sdf

> <i_m_Source_File_Index>
581

> <i_lp_mmshare_version>
53161

> <i_f3d_flags>
0

> <r_lp_tautomer_probability>
0.999999999997365

> <s_lp_Force_Field>
OPLS_2005

> <r_lp_Energy>
17.759222

> <b_lp_Chiralities_Consistent>
1

> <s_lp_Variant>
322695-1

> <s_i_glide_gridfile>
glide-grid_1sj0

> <i_i_glide_lignum>
297

> <i_i_glide_rotatable_bonds>
3

> <r_i_docking_score>
-7.38034888383877

> <r_i_glide_ligand_efficiency>
-0.388439414938883

> <r_i_glide_ligand_efficiency_sa>
-1.03651237423419

> <r_i_glide_ligand_efficiency_ln>
-1.87107695741269

> <r_i_glide_gscore>
-7.38034888383877

> <r_i_glide_lipo>
-3.55667142773992

> <r_i_glide_hbond>
-0.124154105114432

> <r_i_glide_metal>
0

> <r_i_glide_rewards>
-2.19904001820626

> <r_i_glide_evdw>
-29.8965091705322

> <r_i_glide_ecoul>
-1.66527581214905

> <r_i_glide_erotb>
0.244133497570801

> <r_i_glide_esite>
0

> <r_i_glide_emodel>
-45.2440331609089

> <r_i_glide_energy>
-31.5617849826813

> <r_i_glide_einternal>
1.0342777967453

> <i_i_glide_confnum>
1

> <i_i_glide_posenum>
309

> <r_i_glide_eff_state_penalty>
0

> <s_user_duplicate_titles>
322695

> <s_m_subgroup_title>
dock_pv

> <s_m_subgroupid>
dock_pv1

> <b_m_subgroup_collapsed>
0

$$$$
42803
                    3D
 Schrodinger Suite 2021-1.
 30 32  0  0  1  0            999 V2000
   30.6967   -3.1490   20.4760 C   0  0  0  0  0  0
   31.8268   -3.1897   21.4967 C   0  0  0  0  0  0
   31.6600   -2.5420   22.7249 C   0  0  0  0  0  0
   32.6245   -2.6148   23.7275 C   0  0  0  0  0  0
   33.8220   -3.2781   23.4516 C   0  0  0  0  0  0
   34.0346   -3.8618   22.2032 C   0  0  0  0  0  0
   33.0341   -3.8545   21.2394 C   0  0  0  0  0  0
   33.2600   -4.5420   20.0753 O   0  0  0  0  0  0
   32.3459   -1.9883   25.0533 C   0  0  0  0  0  0
   31.6600   -0.8187   25.3328 C   0  0  0  0  0  0
   31.6364   -0.4902   26.7157 C   0  0  0  0  0  0
   31.0854    0.6265   27.3687 C   0  0  0  0  0  0
   31.2315    0.7582   28.7512 C   0  0  0  0  0  0
   31.9126   -0.1994   29.4983 C   0  0  0  0  0  0
   32.4496   -1.3318   28.8893 C   0  0  0  0  0  0
   32.3008   -1.4739   27.5023 C   0  0  0  0  0  0
   32.8600   -2.8087   26.5130 S   0  0  0  0  0  0
   32.0601   -0.0212   30.8477 O   0  0  0  0  0  0
   29.8558   -2.5420   20.8048 H   0  0  0  0  0  0
   30.2946   -4.1420   20.3028 H   0  0  0  0  0  0
   31.0545   -2.7610   19.5218 H   0  0  0  0  0  0
   30.7548   -2.0049   22.9364 H   0  0  0  0  0  0
   34.5931   -3.3420   24.2040 H   0  0  0  0  0  0
   34.9552   -4.3748   21.9807 H   0  0  0  0  0  0
   32.5036   -5.1164   19.8640 H   0  0  0  0  0  0
   31.2240   -0.1881   24.5742 H   0  0  0  0  0  0
   30.5652    1.3864   26.8060 H   0  0  0  0  0  0
   30.8201    1.6240   29.2507 H   0  0  0  0  0  0
   32.9755   -2.0795   29.4640 H   0  0  0  0  0  0
   32.6145   -0.6894   31.2568 H   0  0  0  0  0  0
  1  2  1  0  0  0
  1 19  1  0  0  0
  1 20  1  0  0  0
  1 21  1  0  0  0
  2  7  1  0  0  0
  2  3  2  0  0  0
  3  4  1  0  0  0
  3 22  1  0  0  0
  4  5  2  0  0  0
  4  9  1  0  0  0
  5  6  1  0  0  0
  5 23  1  0  0  0
  6  7  2  0  0  0
  6 24  1  0  0  0
  7  8  1  0  0  0
  8 25  1  0  0  0
  9 17  1  0  0  0
  9 10  2  0  0  0
 10 11  1  0  0  0
 10 26  1  0  0  0
 11 16  2  0  0  0
 11 12  1  0  0  0
 12 13  2  0  0  0
 12 27  1  0  0  0
 13 14  1  0  0  0
 13 28  1  0  0  0
 14 15  2  0  0  0
 14 18  1  0  0  0
 15 16  1  0  0  0
 15 29  1  0  0  0
 16 17  1  0  0  0
 18 30  1  0  0  0
M  END
> <s_m_entry_id>
17655

> <s_m_entry_name>
ligand_docking-pose.582

> <s_m_Source_Path>
/home/csk/Desktop/cluster/DUD-E-result/esr1

> <s_m_Source_File>
ligand_docking-pose.sdf

> <i_m_Source_File_Index>
582

> <i_lp_mmshare_version>
53161

> <i_f3d_flags>
0

> <r_lp_tautomer_probability>
0.999999999997365

> <s_lp_Force_Field>
OPLS_2005

> <r_lp_Energy>
11.366158

> <b_lp_Chiralities_Consistent>
1

> <s_lp_Variant>
42803-1

> <s_i_glide_gridfile>
glide-grid_1sj0

> <i_i_glide_lignum>
1010

> <i_i_glide_rotatable_bonds>
3

> <r_i_docking_score>
-7.35153945430761

> <r_i_glide_ligand_efficiency>
-0.408418858572645

> <r_i_glide_ligand_efficiency_sa>
-1.07036020780563

> <r_i_glide_ligand_efficiency_ln>
-1.88967530914916

> <r_i_glide_gscore>
-7.35153945430761

> <r_i_glide_lipo>
-3.27364889270989

> <r_i_glide_hbond>
-0.16

> <r_i_glide_metal>
0

> <r_i_glide_rewards>
-2.12417233126591

> <r_i_glide_evdw>
-27.9543190002441

> <r_i_glide_ecoul>
-4.42835664749146

> <r_i_glide_erotb>
0.268251216804111

> <r_i_glide_esite>
0

> <r_i_glide_emodel>
-44.9275296502722

> <r_i_glide_energy>
-32.3826756477356

> <r_i_glide_einternal>
2.91326498985291

> <i_i_glide_confnum>
2

> <i_i_glide_posenum>
123

> <r_i_glide_eff_state_penalty>
0

> <s_user_duplicate_titles>
42803

> <s_m_subgroup_title>
dock_pv

> <s_m_subgroupid>
dock_pv1

> <b_m_subgroup_collapsed>
0

$$$$
305922
                    3D
 Schrodinger Suite 2021-1.
 27 29  0  0  1  0            999 V2000
   30.8746    0.3555   28.2332 C   0  0  0  0  0  0
   30.7770    1.0177   29.4520 C   0  0  0  0  0  0
   31.7597    0.8210   30.4171 C   0  0  0  0  0  0
   32.8420   -0.0177   30.1729 C   0  0  0  0  0  0
   32.9375   -0.6861   28.9554 C   0  0  0  0  0  0
   31.9522   -0.5019   27.9791 C   0  0  0  0  0  0
   32.0417   -1.1781   26.6536 C   0  0  0  0  0  0
   31.3132   -1.0053   25.4829 C   0  0  0  0  0  0
   31.8915   -1.8735   24.5167 C   0  0  0  0  0  0
   31.6601   -2.1775   23.1751 C   0  0  0  0  0  0
   32.4509   -3.1154   22.5260 C   0  0  0  0  0  0
   33.4925   -3.7441   23.1982 C   0  0  0  0  0  0
   33.7491   -3.4751   24.5454 C   0  0  0  0  0  0
   32.9289   -2.5420   25.1863 C   0  0  0  0  0  0
   33.0031   -2.1415   26.4899 O   0  0  0  0  0  0
   32.1686   -3.4206   21.2225 O   0  0  0  0  0  0
   31.6605    1.4577   31.6201 O   0  0  0  0  0  0
   30.1087    0.5140   27.4892 H   0  0  0  0  0  0
   29.9388    1.6714   29.6405 H   0  0  0  0  0  0
   33.6050   -0.1466   30.9257 H   0  0  0  0  0  0
   33.7815   -1.3345   28.7716 H   0  0  0  0  0  0
   30.4905   -0.3215   25.3428 H   0  0  0  0  0  0
   30.8340   -1.7447   22.6656 H   0  0  0  0  0  0
   34.0911   -4.4736   22.6712 H   0  0  0  0  0  0
   34.5417   -3.9839   25.0640 H   0  0  0  0  0  0
   32.2413   -4.3572   21.0027 H   0  0  0  0  0  0
   30.8897    2.0264   31.6775 H   0  0  0  0  0  0
  1  6  1  0  0  0
  1  2  2  0  0  0
  1 18  1  0  0  0
  2  3  1  0  0  0
  2 19  1  0  0  0
  3  4  2  0  0  0
  3 17  1  0  0  0
  4  5  1  0  0  0
  4 20  1  0  0  0
  5  6  2  0  0  0
  5 21  1  0  0  0
  6  7  1  0  0  0
  7 15  1  0  0  0
  7  8  2  0  0  0
  8  9  1  0  0  0
  8 22  1  0  0  0
  9 14  2  0  0  0
  9 10  1  0  0  0
 10 11  2  0  0  0
 10 23  1  0  0  0
 11 12  1  0  0  0
 11 16  1  0  0  0
 12 13  2  0  0  0
 12 24  1  0  0  0
 13 14  1  0  0  0
 13 25  1  0  0  0
 14 15  1  0  0  0
 16 26  1  0  0  0
 17 27  1  0  0  0
M  END
> <s_m_entry_id>
17656

> <s_m_entry_name>
ligand_docking-pose.583

> <s_m_Source_Path>
/home/csk/Desktop/cluster/DUD-E-result/esr1

> <s_m_Source_File>
ligand_docking-pose.sdf

> <i_m_Source_File_Index>
583

> <i_lp_mmshare_version>
53161

> <i_f3d_flags>
0

> <r_lp_tautomer_probability>
0.999999999997365

> <s_lp_Force_Field>
OPLS_2005

> <r_lp_Energy>
8.436802

> <b_lp_Chiralities_Consistent>
1

> <s_lp_Variant>
305922-1

> <s_i_glide_gridfile>
glide-grid_1sj0

> <i_i_glide_lignum>
245

> <i_i_glide_rotatable_bonds>
3

> <r_i_docking_score>
-7.34296357808658

> <r_i_glide_ligand_efficiency>
-0.431939034005093

> <r_i_glide_ligand_efficiency_sa>
-1.11063688537511

> <r_i_glide_ligand_efficiency_ln>
-1.91561567776356

> <r_i_glide_gscore>
-7.34296357808658

> <r_i_glide_lipo>
-3.75656937220213

> <r_i_glide_hbond>
-0.00712619572357084

> <r_i_glide_metal>
0

> <r_i_glide_rewards>
-2.30765396536905

> <r_i_glide_evdw>
-27.1161880493164

> <r_i_glide_ecoul>
-1.65183913707733

> <r_i_glide_erotb>
0.331971228235592

> <r_i_glide_esite>
0

> <r_i_glide_emodel>
-40.9437052317143

> <r_i_glide_energy>
-28.7680271863937

> <r_i_glide_einternal>
2.35650753974915

> <i_i_glide_confnum>
1

> <i_i_glide_posenum>
215

> <r_i_glide_eff_state_penalty>
0

> <s_user_duplicate_titles>
305922

> <s_m_subgroup_title>
dock_pv

> <s_m_subgroupid>
dock_pv1

> <b_m_subgroup_collapsed>
0

$$$$
338788
                    3D
 Schrodinger Suite 2021-1.
 40 41  0  0  1  0            999 V2000
   32.8566    0.3197   31.4366 C   0  0  0  0  0  0
   31.5345    0.4674   30.6926 C   0  0  0  0  0  0
   31.2414   -0.7908   29.8510 C   0  0  0  0  0  0
   30.8679   -0.4511   28.4898 N   0  0  0  0  0  0
   29.5166   -0.4322   28.0803 C   0  0  0  0  0  0
   28.7911    0.7687   27.9923 C   0  0  0  0  0  0
   27.4977    0.7765   27.4640 C   0  0  0  0  0  0
   26.8917   -0.4115   27.0648 C   0  0  0  0  0  0
   27.5779   -1.6132   27.1929 C   0  0  0  0  0  0
   28.8770   -1.6253   27.7008 C   0  0  0  0  0  0
   29.6599   -3.1471   27.8637 Cl  0  0  0  0  0  0
   29.4277    2.2580   28.5839 Cl  0  0  0  0  0  0
   32.1909    0.0579   27.4208 S   0  0  0  0  0  0
   31.9481    1.4580   27.0640 O   0  0  0  0  0  0
   33.4596   -0.3358   28.0465 O   0  0  0  0  0  0
   31.9864   -0.9243   25.9560 C   0  0  0  0  0  0
   30.9575   -0.6290   25.0731 C   0  0  0  0  0  0
   30.8600   -1.3411   23.8870 C   0  0  0  0  0  0
   31.8048   -2.2979   23.5331 C   0  0  0  0  0  0
   32.8249   -2.6113   24.4333 C   0  0  0  0  0  0
   32.8601   -1.9710   25.6738 C   0  0  0  0  0  0
   33.9178   -3.5916   24.0655 C   0  0  0  0  0  0
   31.6924   -2.9228   22.3166 O   0  0  0  0  0  0
   32.9736    1.0617   32.2247 H   0  0  0  0  0  0
   32.9131   -0.6779   31.8639 H   0  0  0  0  0  0
   33.6957    0.4236   30.7486 H   0  0  0  0  0  0
   31.6107    1.3630   30.0740 H   0  0  0  0  0  0
   30.7128    0.6597   31.3810 H   0  0  0  0  0  0
   30.4600   -1.3936   30.3016 H   0  0  0  0  0  0
   32.1315   -1.4162   29.7785 H   0  0  0  0  0  0
   26.9478    1.7038   27.3912 H   0  0  0  0  0  0
   25.8870   -0.4028   26.6655 H   0  0  0  0  0  0
   27.0992   -2.5360   26.8932 H   0  0  0  0  0  0
   30.2377    0.1446   25.2996 H   0  0  0  0  0  0
   30.0149   -1.1568   23.2526 H   0  0  0  0  0  0
   33.6488   -2.2084   26.3733 H   0  0  0  0  0  0
   33.4908   -4.5425   23.7625 H   0  0  0  0  0  0
   34.4903   -3.2076   23.2208 H   0  0  0  0  0  0
   34.5966   -3.7622   24.8984 H   0  0  0  0  0  0
   32.3314   -3.6251   22.1754 H   0  0  0  0  0  0
  1  2  1  0  0  0
  1 24  1  0  0  0
  1 25  1  0  0  0
  1 26  1  0  0  0
  2  3  1  0  0  0
  2 27  1  0  0  0
  2 28  1  0  0  0
  3  4  1  0  0  0
  3 29  1  0  0  0
  3 30  1  0  0  0
  4  5  1  0  0  0
  4 13  1  0  0  0
  5 10  1  0  0  0
  5  6  2  0  0  0
  6  7  1  0  0  0
  6 12  1  0  0  0
  7  8  2  0  0  0
  7 31  1  0  0  0
  8  9  1  0  0  0
  8 32  1  0  0  0
  9 10  2  0  0  0
  9 33  1  0  0  0
 10 11  1  0  0  0
 13 14  2  0  0  0
 13 15  2  0  0  0
 13 16  1  0  0  0
 16 21  1  0  0  0
 16 17  2  0  0  0
 17 18  1  0  0  0
 17 34  1  0  0  0
 18 19  2  0  0  0
 18 35  1  0  0  0
 19 20  1  0  0  0
 19 23  1  0  0  0
 20 21  2  0  0  0
 20 22  1  0  0  0
 21 36  1  0  0  0
 22 37  1  0  0  0
 22 38  1  0  0  0
 22 39  1  0  0  0
 23 40  1  0  0  0
M  END
> <s_m_entry_id>
17657

> <s_m_entry_name>
ligand_docking-pose.584

> <s_m_Source_Path>
/home/csk/Desktop/cluster/DUD-E-result/esr1

> <s_m_Source_File>
ligand_docking-pose.sdf

> <i_m_Source_File_Index>
584

> <i_lp_mmshare_version>
53161

> <i_f3d_flags>
0

> <r_lp_tautomer_probability>
0.999999999997365

> <s_lp_Force_Field>
OPLS_2005

> <r_lp_Energy>
8.85268

> <b_lp_Chiralities_Consistent>
1

> <s_lp_Variant>
338788-1

> <s_i_glide_gridfile>
glide-grid_1sj0

> <i_i_glide_lignum>
1533

> <i_i_glide_rotatable_bonds>
6

> <r_i_docking_score>
-7.3367711155649

> <r_i_glide_ligand_efficiency>
-0.318990048502822

> <r_i_glide_ligand_efficiency_sa>
-0.907165264890287

> <r_i_glide_ligand_efficiency_ln>
-1.77409778190598

> <r_i_glide_gscore>
-7.3367711155649

> <r_i_glide_lipo>
-4.45296694050137

> <r_i_glide_hbond>
0

> <r_i_glide_metal>
0

> <r_i_glide_rewards>
-1.5207450840883

> <r_i_glide_evdw>
-34.2000198364258

> <r_i_glide_ecoul>
-1.36748123168945

> <r_i_glide_erotb>
0.552064085599485

> <r_i_glide_esite>
0

> <r_i_glide_emodel>
-42.7205373238993

> <r_i_glide_energy>
-35.5675010681152

> <r_i_glide_einternal>
7.76689195632935

> <i_i_glide_confnum>
20

> <i_i_glide_posenum>
379

> <r_i_glide_eff_state_penalty>
0

> <s_user_duplicate_titles>
338788

> <s_m_subgroup_title>
dock_pv

> <s_m_subgroupid>
dock_pv1

> <b_m_subgroup_collapsed>
0

$$$$
313675
                    3D
 Schrodinger Suite 2021-1.
 26 28  0  0  1  0            999 V2000
   32.6493   -0.1400   30.0655 C   0  0  0  0  0  0
   32.7169   -0.7891   28.8369 C   0  0  0  0  0  0
   31.8038   -0.4971   27.8100 C   0  0  0  0  0  0
   30.8056    0.4713   28.0577 C   0  0  0  0  0  0
   30.7479    1.1166   29.2938 C   0  0  0  0  0  0
   31.6686    0.8147   30.2930 C   0  0  0  0  0  0
   31.6186    1.4579   31.4971 O   0  0  0  0  0  0
   29.6109    0.9266   26.8883 Cl  0  0  0  0  0  0
   31.9790   -1.2348   26.5107 C   0  0  0  0  0  0
   31.3227   -1.0514   25.3831 N   0  0  0  0  0  0
   31.9125   -1.9217   24.5145 C   0  0  0  0  0  0
   31.6601   -2.2006   23.1703 C   0  0  0  0  0  0
   32.4383   -3.1472   22.5104 C   0  0  0  0  0  0
   33.4649   -3.8108   23.1771 C   0  0  0  0  0  0
   33.7144   -3.5788   24.5333 C   0  0  0  0  0  0
   32.9211   -2.6245   25.1684 C   0  0  0  0  0  0
   32.9543   -2.1978   26.4556 O   0  0  0  0  0  0
   32.1594   -3.4295   21.2012 O   0  0  0  0  0  0
   33.3648   -0.3760   30.8385 H   0  0  0  0  0  0
   33.5028   -1.5174   28.6958 H   0  0  0  0  0  0
   29.9826    1.8579   29.4681 H   0  0  0  0  0  0
   30.9159    2.1083   31.5484 H   0  0  0  0  0  0
   30.8466   -1.7424   22.6642 H   0  0  0  0  0  0
   34.0581   -4.5390   22.6421 H   0  0  0  0  0  0
   34.4799   -4.1202   25.0638 H   0  0  0  0  0  0
   32.2080   -4.3664   20.9732 H   0  0  0  0  0  0
  1  6  1  0  0  0
  1  2  2  0  0  0
  1 19  1  0  0  0
  2  3  1  0  0  0
  2 20  1  0  0  0
  3  4  2  0  0  0
  3  9  1  0  0  0
  4  5  1  0  0  0
  4  8  1  0  0  0
  5  6  2  0  0  0
  5 21  1  0  0  0
  6  7  1  0  0  0
  7 22  1  0  0  0
  9 17  1  0  0  0
  9 10  2  0  0  0
 10 11  1  0  0  0
 11 16  2  0  0  0
 11 12  1  0  0  0
 12 13  2  0  0  0
 12 23  1  0  0  0
 13 14  1  0  0  0
 13 18  1  0  0  0
 14 15  2  0  0  0
 14 24  1  0  0  0
 15 16  1  0  0  0
 15 25  1  0  0  0
 16 17  1  0  0  0
 18 26  1  0  0  0
M  END
> <s_m_entry_id>
17658

> <s_m_entry_name>
ligand_docking-pose.585

> <s_m_Source_Path>
/home/csk/Desktop/cluster/DUD-E-result/esr1

> <s_m_Source_File>
ligand_docking-pose.sdf

> <i_m_Source_File_Index>
585

> <i_lp_mmshare_version>
53161

> <i_f3d_flags>
0

> <r_lp_tautomer_probability>
0.999999999997365

> <s_lp_Force_Field>
OPLS_2005

> <r_lp_Energy>
15.13914

> <b_lp_Chiralities_Consistent>
1

> <s_lp_Variant>
313675-1

> <s_i_glide_gridfile>
glide-grid_1sj0

> <i_i_glide_lignum>
662

> <i_i_glide_rotatable_bonds>
3

> <r_i_docking_score>
-7.32380390526194

> <r_i_glide_ligand_efficiency>
-0.406877994736775

> <r_i_glide_ligand_efficiency_sa>
-1.06632200217202

> <r_i_glide_ligand_efficiency_ln>
-1.88254602928295

> <r_i_glide_gscore>
-7.32380390526194

> <r_i_glide_lipo>
-3.72631166598782

> <r_i_glide_hbond>
-0.0202929110969065

> <r_i_glide_metal>
0

> <r_i_glide_rewards>
-2.11268449517562

> <r_i_glide_evdw>
-29.0385360717773

> <r_i_glide_ecoul>
-1.80990266799927

> <r_i_glide_erotb>
0.258897370787162

> <r_i_glide_esite>
0

> <r_i_glide_emodel>
-43.3519911336022

> <r_i_glide_energy>
-30.8484387397766

> <r_i_glide_einternal>
2.49837636947632

> <i_i_glide_confnum>
2

> <i_i_glide_posenum>
383

> <r_i_glide_eff_state_penalty>
0

> <s_user_duplicate_titles>
313675

> <s_m_subgroup_title>
dock_pv

> <s_m_subgroupid>
dock_pv1

> <b_m_subgroup_collapsed>
0

$$$$
127140
                    3D
 Schrodinger Suite 2021-1.
 28 31  0  0  1  0            999 V2000
   29.1060    0.6610   27.0559 C   0  0  0  0  0  0
   29.2600    0.0114   25.8326 C   0  0  0  0  0  0
   30.3713   -0.8014   25.5980 C   0  0  0  0  0  0
   31.3182   -1.0217   26.6241 C   0  0  0  0  0  0
   31.1379   -0.3726   27.8555 C   0  0  0  0  0  0
   30.0553    0.4828   28.0599 C   0  0  0  0  0  0
   29.9352    1.1586   29.2433 O   0  0  0  0  0  0
   32.5001   -1.9174   26.4020 C   0  0  0  0  0  0
   33.2600   -2.2508   27.3094 O   0  0  0  0  0  0
   32.6386   -2.2984   25.0023 C   0  0  0  0  0  0
   31.6600   -2.0500   24.0617 C   0  0  0  0  0  0
   30.5054   -1.3420   24.3232 O   0  0  0  0  0  0
   32.0819   -2.6745   22.8409 C   0  0  0  0  0  0
   31.5512   -2.9420   21.5665 C   0  0  0  0  0  0
   32.3975   -3.4394   20.5768 C   0  0  0  0  0  0
   33.7383   -3.7041   20.8299 C   0  0  0  0  0  0
   34.2797   -3.5198   22.0978 C   0  0  0  0  0  0
   33.4223   -3.0494   23.1034 C   0  0  0  0  0  0
   33.7288   -2.8923   24.4310 O   0  0  0  0  0  0
   31.8876   -3.7420   19.3491 O   0  0  0  0  0  0
   28.2569    1.3106   27.2095 H   0  0  0  0  0  0
   28.5270    0.1707   25.0601 H   0  0  0  0  0  0
   31.8533   -0.5035   28.6559 H   0  0  0  0  0  0
   29.1673    1.7329   29.2703 H   0  0  0  0  0  0
   30.5184   -2.7324   21.3355 H   0  0  0  0  0  0
   34.3591   -4.0958   20.0362 H   0  0  0  0  0  0
   35.3184   -3.7420   22.2640 H   0  0  0  0  0  0
   31.5451   -4.6600   19.4014 H   0  0  0  0  0  0
  1  6  1  0  0  0
  1  2  2  0  0  0
  1 21  1  0  0  0
  2  3  1  0  0  0
  2 22  1  0  0  0
  3 12  1  0  0  0
  3  4  2  0  0  0
  4  5  1  0  0  0
  4  8  1  0  0  0
  5  6  2  0  0  0
  5 23  1  0  0  0
  6  7  1  0  0  0
  7 24  1  0  0  0
  8  9  2  0  0  0
  8 10  1  0  0  0
 10 19  1  0  0  0
 10 11  2  0  0  0
 11 12  1  0  0  0
 11 13  1  0  0  0
 13 18  2  0  0  0
 13 14  1  0  0  0
 14 15  2  0  0  0
 14 25  1  0  0  0
 15 16  1  0  0  0
 15 20  1  0  0  0
 16 17  2  0  0  0
 16 26  1  0  0  0
 17 18  1  0  0  0
 17 27  1  0  0  0
 18 19  1  0  0  0
 20 28  1  0  0  0
M  END
> <s_m_entry_id>
17659

> <s_m_entry_name>
ligand_docking-pose.586

> <s_m_Source_Path>
/home/csk/Desktop/cluster/DUD-E-result/esr1

> <s_m_Source_File>
ligand_docking-pose.sdf

> <i_m_Source_File_Index>
586

> <i_lp_mmshare_version>
53161

> <i_f3d_flags>
0

> <r_lp_tautomer_probability>
1

> <s_lp_Force_Field>
OPLS_2005

> <r_lp_Energy>
14.822661

> <b_lp_Chiralities_Consistent>
1

> <s_lp_Variant>
127140-1

> <s_i_glide_gridfile>
glide-grid_1sj0

> <i_i_glide_lignum>
27

> <i_i_glide_rotatable_bonds>
2

> <r_i_docking_score>
-7.32296070688272

> <r_i_glide_ligand_efficiency>
-0.366148035344136

> <r_i_glide_ligand_efficiency_sa>
-0.993878676427272

> <r_i_glide_ligand_efficiency_ln>
-1.83269553752392

> <r_i_glide_gscore>
-7.32296070688272

> <r_i_glide_lipo>
-2.96511178425529

> <r_i_glide_hbond>
-0.16

> <r_i_glide_metal>
0

> <r_i_glide_rewards>
-1.99132071198747

> <r_i_glide_evdw>
-26.7640018463135

> <r_i_glide_ecoul>
-5.78885412216187

> <r_i_glide_erotb>
0

> <r_i_glide_esite>
0

> <r_i_glide_emodel>
-37.4898409507214

> <r_i_glide_energy>
-32.5528559684753

> <r_i_glide_einternal>
3.5577290058136

> <i_i_glide_confnum>
1

> <i_i_glide_posenum>
75

> <r_i_glide_eff_state_penalty>
0

> <s_user_duplicate_titles>
127140

> <s_m_subgroup_title>
dock_pv

> <s_m_subgroupid>
dock_pv1

> <b_m_subgroup_collapsed>
0

$$$$
313823
                    3D
 Schrodinger Suite 2021-1.
 30 32  0  0  1  0            999 V2000
   28.3859    1.4573   27.4412 C   0  0  0  0  0  0
   29.2850    0.6539   26.8463 C   0  0  0  0  0  0
   30.4498    0.0105   27.4900 C   0  0  0  0  0  0
   30.8166    0.2229   28.8303 C   0  0  0  0  0  0
   31.9112   -0.4258   29.4114 C   0  0  0  0  0  0
   32.6860   -1.3377   28.6890 C   0  0  0  0  0  0
   32.3586   -1.5564   27.3453 C   0  0  0  0  0  0
   31.2678   -0.8784   26.7744 C   0  0  0  0  0  0
   31.2060   -1.2411   25.4617 O   0  0  0  0  0  0
   32.2650   -2.0981   25.3085 C   0  0  0  0  0  0
   32.9430   -2.3569   26.4075 N   0  0  0  0  0  0
   32.5593   -2.6214   23.9415 C   0  0  0  0  0  0
   33.7264   -3.3419   23.6824 C   0  0  0  0  0  0
   33.9720   -3.8405   22.4023 C   0  0  0  0  0  0
   33.0356   -3.6689   21.3946 C   0  0  0  0  0  0
   31.8744   -2.9443   21.6369 C   0  0  0  0  0  0
   31.6632   -2.3903   22.8987 C   0  0  0  0  0  0
   33.2594   -4.2356   20.1678 O   0  0  0  0  0  0
   32.2362   -0.1547   30.7122 O   0  0  0  0  0  0
   27.5626    1.8740   26.8785 H   0  0  0  0  0  0
   28.4449    1.7108   28.4878 H   0  0  0  0  0  0
   29.1522    0.4494   25.7929 H   0  0  0  0  0  0
   30.2541    0.9097   29.4467 H   0  0  0  0  0  0
   33.5257   -1.8468   29.1379 H   0  0  0  0  0  0
   34.4481   -3.5154   24.4663 H   0  0  0  0  0  0
   34.8603   -4.4134   22.1920 H   0  0  0  0  0  0
   31.1460   -2.7995   20.8501 H   0  0  0  0  0  0
   30.7803   -1.7937   23.0708 H   0  0  0  0  0  0
   32.4924   -4.7441   19.8663 H   0  0  0  0  0  0
   33.0435   -0.5948   30.9919 H   0  0  0  0  0  0
  1  2  2  0  0  0
  1 20  1  0  0  0
  1 21  1  0  0  0
  2  3  1  0  0  0
  2 22  1  0  0  0
  3  8  1  0  0  0
  3  4  2  0  0  0
  4  5  1  0  0  0
  4 23  1  0  0  0
  5  6  2  0  0  0
  5 19  1  0  0  0
  6  7  1  0  0  0
  6 24  1  0  0  0
  7 11  1  0  0  0
  7  8  2  0  0  0
  8  9  1  0  0  0
  9 10  1  0  0  0
 10 11  2  0  0  0
 10 12  1  0  0  0
 12 17  1  0  0  0
 12 13  2  0  0  0
 13 14  1  0  0  0
 13 25  1  0  0  0
 14 15  2  0  0  0
 14 26  1  0  0  0
 15 16  1  0  0  0
 15 18  1  0  0  0
 16 17  2  0  0  0
 16 27  1  0  0  0
 17 28  1  0  0  0
 18 29  1  0  0  0
 19 30  1  0  0  0
M  END
> <s_m_entry_id>
17660

> <s_m_entry_name>
ligand_docking-pose.587

> <s_m_Source_Path>
/home/csk/Desktop/cluster/DUD-E-result/esr1

> <s_m_Source_File>
ligand_docking-pose.sdf

> <i_m_Source_File_Index>
587

> <i_lp_mmshare_version>
53161

> <i_f3d_flags>
0

> <r_lp_tautomer_probability>
0.999999999997365

> <s_lp_Force_Field>
OPLS_2005

> <r_lp_Energy>
12.377472

> <b_lp_Chiralities_Consistent>
1

> <s_lp_Variant>
313823-1

> <s_i_glide_gridfile>
glide-grid_1sj0

> <i_i_glide_lignum>
1157

> <i_i_glide_rotatable_bonds>
4

> <r_i_docking_score>
-7.31263719386289

> <r_i_glide_ligand_efficiency>
-0.384875641782257

> <r_i_glide_ligand_efficiency_sa>
-1.02700279607671

> <r_i_glide_ligand_efficiency_ln>
-1.85391058969005

> <r_i_glide_gscore>
-7.31263719386289

> <r_i_glide_lipo>
-3.32048046694836

> <r_i_glide_hbond>
-0.16

> <r_i_glide_metal>
0

> <r_i_glide_rewards>
-2.23329232397483

> <r_i_glide_evdw>
-31.607400894165

> <r_i_glide_ecoul>
-3.7747437953949

> <r_i_glide_erotb>
0.54771721107778

> <r_i_glide_esite>
0

> <r_i_glide_emodel>
-49.9074796585244

> <r_i_glide_energy>
-35.3821446895599

> <r_i_glide_einternal>
2.76630139350891

> <i_i_glide_confnum>
5

> <i_i_glide_posenum>
361

> <r_i_glide_eff_state_penalty>
0

> <s_user_duplicate_titles>
313823

> <s_m_subgroup_title>
dock_pv

> <s_m_subgroupid>
dock_pv1

> <b_m_subgroup_collapsed>
0

$$$$
323180
                    3D
 Schrodinger Suite 2021-1.
 34 36  0  0  1  0            999 V2000
   32.8395    0.3341   29.7736 C   0  0  0  0  0  0
   31.8075   -0.5914   29.4553 O   0  0  0  0  0  0
   31.1071   -0.2934   28.3071 C   0  0  0  0  0  0
   31.4267   -0.9653   27.0884 C   0  0  0  0  0  0
   32.4582   -1.9333   26.9992 C   0  0  0  0  0  0
   32.7889   -2.5081   25.7738 C   0  0  0  0  0  0
   32.1430   -2.1414   24.5865 C   0  0  0  0  0  0
   31.0836   -1.2297   24.6708 C   0  0  0  0  0  0
   30.6975   -0.6473   25.9043 C   0  0  0  0  0  0
   29.6143    0.2580   25.9847 C   0  0  0  0  0  0
   29.3251    0.9090   27.1789 C   0  0  0  0  0  0
   30.0745    0.6574   28.3232 C   0  0  0  0  0  0
   29.7804    1.3639   29.4624 O   0  0  0  0  0  0
   32.5690   -2.7193   23.2696 C   0  0  0  0  0  0
   33.8972   -3.1159   23.0541 C   0  0  0  0  0  0
   34.2802   -3.7324   21.8640 C   0  0  0  0  0  0
   33.3349   -3.9610   20.8737 C   0  0  0  0  0  0
   32.0362   -3.5042   21.0320 C   0  0  0  0  0  0
   31.6603   -2.8878   22.2143 C   0  0  0  0  0  0
   33.6602   -4.6711   19.7532 O   0  0  0  0  0  0
   33.3684   -0.0081   30.6629 H   0  0  0  0  0  0
   32.4451    1.3292   29.9862 H   0  0  0  0  0  0
   33.5682    0.4141   28.9645 H   0  0  0  0  0  0
   33.0034   -2.2119   27.8898 H   0  0  0  0  0  0
   33.5825   -3.2399   25.7545 H   0  0  0  0  0  0
   30.5437   -0.9353   23.7841 H   0  0  0  0  0  0
   29.0370    0.4773   25.0976 H   0  0  0  0  0  0
   28.5181    1.6270   27.2020 H   0  0  0  0  0  0
   29.0430    1.9653   29.3461 H   0  0  0  0  0  0
   34.6450   -2.9594   23.8157 H   0  0  0  0  0  0
   35.2941   -4.0721   21.7244 H   0  0  0  0  0  0
   31.3039   -3.6636   20.2536 H   0  0  0  0  0  0
   30.6445   -2.5422   22.2641 H   0  0  0  0  0  0
   32.8978   -5.1891   19.4640 H   0  0  0  0  0  0
  1  2  1  0  0  0
  1 21  1  0  0  0
  1 22  1  0  0  0
  1 23  1  0  0  0
  2  3  1  0  0  0
  3 12  1  0  0  0
  3  4  2  0  0  0
  4  9  1  0  0  0
  4  5  1  0  0  0
  5  6  2  0  0  0
  5 24  1  0  0  0
  6  7  1  0  0  0
  6 25  1  0  0  0
  7  8  2  0  0  0
  7 14  1  0  0  0
  8  9  1  0  0  0
  8 26  1  0  0  0
  9 10  2  0  0  0
 10 11  1  0  0  0
 10 27  1  0  0  0
 11 12  2  0  0  0
 11 28  1  0  0  0
 12 13  1  0  0  0
 13 29  1  0  0  0
 14 19  1  0  0  0
 14 15  2  0  0  0
 15 16  1  0  0  0
 15 30  1  0  0  0
 16 17  2  0  0  0
 16 31  1  0  0  0
 17 18  1  0  0  0
 17 20  1  0  0  0
 18 19  2  0  0  0
 18 32  1  0  0  0
 19 33  1  0  0  0
 20 34  1  0  0  0
M  END
> <s_m_entry_id>
17661

> <s_m_entry_name>
ligand_docking-pose.588

> <s_m_Source_Path>
/home/csk/Desktop/cluster/DUD-E-result/esr1

> <s_m_Source_File>
ligand_docking-pose.sdf

> <i_m_Source_File_Index>
588

> <i_lp_mmshare_version>
53161

> <i_f3d_flags>
0

> <r_lp_tautomer_probability>
0.999999999997365

> <s_lp_Force_Field>
OPLS_2005

> <r_lp_Energy>
24.42015

> <b_lp_Chiralities_Consistent>
1

> <s_lp_Variant>
323180-1

> <s_i_glide_gridfile>
glide-grid_1sj0

> <i_i_glide_lignum>
1751

> <i_i_glide_rotatable_bonds>
4

> <r_i_docking_score>
-7.30630060986841

> <r_i_glide_ligand_efficiency>
-0.365315030493421

> <r_i_glide_ligand_efficiency_sa>
-0.991617553388039

> <r_i_glide_ligand_efficiency_ln>
-1.82852606472802

> <r_i_glide_gscore>
-7.30630060986841

> <r_i_glide_lipo>
-3.52376900873336

> <r_i_glide_hbond>
-0.127203641232481

> <r_i_glide_metal>
0

> <r_i_glide_rewards>
-2.0768406431621

> <r_i_glide_evdw>
-31.1239223480225

> <r_i_glide_ecoul>
-1.82313191890717

> <r_i_glide_erotb>
0.251178588496727

> <r_i_glide_esite>
0

> <r_i_glide_emodel>
-46.0634162125871

> <r_i_glide_energy>
-32.9470542669296

> <r_i_glide_einternal>
1.07778429985046

> <i_i_glide_confnum>
1

> <i_i_glide_posenum>
60

> <r_i_glide_eff_state_penalty>
0

> <s_user_duplicate_titles>
323180

> <s_m_subgroup_title>
dock_pv

> <s_m_subgroupid>
dock_pv1

> <b_m_subgroup_collapsed>
0

$$$$
323194
                    3D
 Schrodinger Suite 2021-1.
 30 32  0  0  1  0            999 V2000
   32.8599   -2.3257   27.6809 C   0  0  0  0  0  0
   32.9614   -2.8102   26.3818 C   0  0  0  0  0  0
   32.4240   -2.1214   25.2921 C   0  0  0  0  0  0
   31.6787   -0.9597   25.5392 C   0  0  0  0  0  0
   31.5091   -0.4616   26.8575 C   0  0  0  0  0  0
   32.1374   -1.1419   27.9431 C   0  0  0  0  0  0
   32.0206   -0.6141   29.2529 C   0  0  0  0  0  0
   31.2843    0.5446   29.4809 C   0  0  0  0  0  0
   30.6383    1.1877   28.4304 C   0  0  0  0  0  0
   30.7403    0.6979   27.1303 C   0  0  0  0  0  0
   31.1961    1.0559   30.7471 O   0  0  0  0  0  0
   32.6518   -2.6260   23.9055 C   0  0  0  0  0  0
   33.8579   -3.2436   23.5504 C   0  0  0  0  0  0
   34.0601   -3.7419   22.2637 C   0  0  0  0  0  0
   33.0476   -3.6772   21.3190 C   0  0  0  0  0  0
   31.8459   -3.0454   21.6413 C   0  0  0  0  0  0
   31.6716   -2.5040   22.9153 C   0  0  0  0  0  0
   30.8521   -2.9427   20.7279 F   0  0  0  0  0  0
   33.2591   -4.2367   20.0877 O   0  0  0  0  0  0
   33.3208   -2.8639   28.4976 H   0  0  0  0  0  0
   33.5056   -3.7288   26.2199 H   0  0  0  0  0  0
   31.2333   -0.4125   24.7215 H   0  0  0  0  0  0
   32.5134   -1.1197   30.0707 H   0  0  0  0  0  0
   30.0612    2.0798   28.6209 H   0  0  0  0  0  0
   30.2339    1.2049   26.3227 H   0  0  0  0  0  0
   31.7101    0.5559   31.3831 H   0  0  0  0  0  0
   34.6534   -3.3415   24.2742 H   0  0  0  0  0  0
   34.9932   -4.2079   21.9911 H   0  0  0  0  0  0
   30.7607   -1.9823   23.1421 H   0  0  0  0  0  0
   32.5171   -4.8127   19.8567 H   0  0  0  0  0  0
  1  6  1  0  0  0
  1  2  2  0  0  0
  1 20  1  0  0  0
  2  3  1  0  0  0
  2 21  1  0  0  0
  3  4  2  0  0  0
  3 12  1  0  0  0
  4  5  1  0  0  0
  4 22  1  0  0  0
  5 10  2  0  0  0
  5  6  1  0  0  0
  6  7  2  0  0  0
  7  8  1  0  0  0
  7 23  1  0  0  0
  8  9  2  0  0  0
  8 11  1  0  0  0
  9 10  1  0  0  0
  9 24  1  0  0  0
 10 25  1  0  0  0
 11 26  1  0  0  0
 12 17  1  0  0  0
 12 13  2  0  0  0
 13 14  1  0  0  0
 13 27  1  0  0  0
 14 15  2  0  0  0
 14 28  1  0  0  0
 15 16  1  0  0  0
 15 19  1  0  0  0
 16 17  2  0  0  0
 16 18  1  0  0  0
 17 29  1  0  0  0
 19 30  1  0  0  0
M  END
> <s_m_entry_id>
17662

> <s_m_entry_name>
ligand_docking-pose.589

> <s_m_Source_Path>
/home/csk/Desktop/cluster/DUD-E-result/esr1

> <s_m_Source_File>
ligand_docking-pose.sdf

> <i_m_Source_File_Index>
589

> <i_lp_mmshare_version>
53161

> <i_f3d_flags>
0

> <r_lp_tautomer_probability>
0.999999999997365

> <s_lp_Force_Field>
OPLS_2005

> <r_lp_Energy>
16.423815

> <b_lp_Chiralities_Consistent>
1

> <s_lp_Variant>
323194-1

> <s_i_glide_gridfile>
glide-grid_1sj0

> <i_i_glide_lignum>
138

> <i_i_glide_rotatable_bonds>
3

> <r_i_docking_score>
-7.30069857797853

> <r_i_glide_ligand_efficiency>
-0.384247293577817

> <r_i_glide_ligand_efficiency_sa>
-1.02532611069366

> <r_i_glide_ligand_efficiency_ln>
-1.85088389414541

> <r_i_glide_gscore>
-7.30069857797853

> <r_i_glide_lipo>
-3.49045103139451

> <r_i_glide_hbond>
-0.16

> <r_i_glide_metal>
0

> <r_i_glide_rewards>
-2.17547681706027

> <r_i_glide_evdw>
-28.7140769958496

> <r_i_glide_ecoul>
-1.71292281150818

> <r_i_glide_erotb>
0.272005955882521

> <r_i_glide_esite>
-0.0541344138875672

> <r_i_glide_emodel>
-42.2639584066428

> <r_i_glide_energy>
-30.4269998073578

> <r_i_glide_einternal>
2.20182681083679

> <i_i_glide_confnum>
2

> <i_i_glide_posenum>
39

> <r_i_glide_eff_state_penalty>
0

> <s_user_duplicate_titles>
323194

> <s_m_subgroup_title>
dock_pv

> <s_m_subgroupid>
dock_pv1

> <b_m_subgroup_collapsed>
0

$$$$
312874
                    3D
 Schrodinger Suite 2021-1.
 27 29  0  0  1  0            999 V2000
   32.0653   -2.4343   22.9024 C   0  0  0  0  0  0
   31.4423   -1.7417   23.9461 C   0  0  0  0  0  0
   31.8948   -1.9690   25.2554 C   0  0  0  0  0  0
   32.9784   -2.8266   25.4610 C   0  0  0  0  0  0
   33.6392   -3.4787   24.4244 C   0  0  0  0  0  0
   33.1425   -3.2900   23.1370 C   0  0  0  0  0  0
   33.7135   -3.9625   22.0941 O   0  0  0  0  0  0
   33.2593   -2.9155   26.7887 O   0  0  0  0  0  0
   32.3594   -2.0911   27.4714 N   0  0  0  0  0  0
   31.5577   -1.5526   26.5754 C   0  0  0  0  0  0
   30.4537   -0.6426   26.9572 C   0  0  0  0  0  0
   29.1453   -1.0726   26.7135 C   0  0  0  0  0  0
   28.0633   -0.2524   27.0266 C   0  0  0  0  0  0
   28.2967    1.0187   27.5621 C   0  0  0  0  0  0
   29.5960    1.4474   27.8183 C   0  0  0  0  0  0
   30.6765    0.6215   27.5227 C   0  0  0  0  0  0
   31.9433    1.0834   27.7737 O   0  0  0  0  0  0
   27.2603    1.8568   27.8485 O   0  0  0  0  0  0
   26.4545   -0.8329   26.7583 Cl  0  0  0  0  0  0
   31.6983   -2.3017   21.8964 H   0  0  0  0  0  0
   30.6115   -1.0792   23.7534 H   0  0  0  0  0  0
   34.4587   -4.1417   24.6288 H   0  0  0  0  0  0
   33.1793   -3.9542   21.2957 H   0  0  0  0  0  0
   28.9635   -2.0492   26.2859 H   0  0  0  0  0  0
   29.7677    2.4262   28.2428 H   0  0  0  0  0  0
   32.6270    0.4488   27.5481 H   0  0  0  0  0  0
   26.4123    1.4804   27.5931 H   0  0  0  0  0  0
  1  6  1  0  0  0
  1  2  2  0  0  0
  1 20  1  0  0  0
  2  3  1  0  0  0
  2 21  1  0  0  0
  3 10  1  0  0  0
  3  4  2  0  0  0
  4  5  1  0  0  0
  4  8  1  0  0  0
  5  6  2  0  0  0
  5 22  1  0  0  0
  6  7  1  0  0  0
  7 23  1  0  0  0
  8  9  1  0  0  0
  9 10  2  0  0  0
 10 11  1  0  0  0
 11 16  1  0  0  0
 11 12  2  0  0  0
 12 13  1  0  0  0
 12 24  1  0  0  0
 13 14  2  0  0  0
 13 19  1  0  0  0
 14 15  1  0  0  0
 14 18  1  0  0  0
 15 16  2  0  0  0
 15 25  1  0  0  0
 16 17  1  0  0  0
 17 26  1  0  0  0
 18 27  1  0  0  0
M  END
> <s_m_entry_id>
17663

> <s_m_entry_name>
ligand_docking-pose.590

> <s_m_Source_Path>
/home/csk/Desktop/cluster/DUD-E-result/esr1

> <s_m_Source_File>
ligand_docking-pose.sdf

> <i_m_Source_File_Index>
590

> <i_lp_mmshare_version>
53161

> <i_f3d_flags>
0

> <r_lp_tautomer_probability>
0.999999999898

> <s_lp_Force_Field>
OPLS_2005

> <r_lp_Energy>
30.234701

> <b_lp_Chiralities_Consistent>
1

> <s_lp_Variant>
312874-1

> <s_i_glide_gridfile>
glide-grid_1sj0

> <i_i_glide_lignum>
43

> <i_i_glide_rotatable_bonds>
4

> <r_i_docking_score>
-7.29793272033261

> <r_i_glide_ligand_efficiency>
-0.384101722122769

> <r_i_glide_ligand_efficiency_sa>
-1.02493766758338

> <r_i_glide_ligand_efficiency_ln>
-1.85018268982699

> <r_i_glide_gscore>
-7.29793272033261

> <r_i_glide_lipo>
-3.58569040269929

> <r_i_glide_hbond>
-0.0247566131522657

> <r_i_glide_metal>
0

> <r_i_glide_rewards>
-1.9567882861008

> <r_i_glide_evdw>
-32.1040496826172

> <r_i_glide_ecoul>
-2.39425301551819

> <r_i_glide_erotb>
0.233643018078335

> <r_i_glide_esite>
0

> <r_i_glide_emodel>
-46.4541404383675

> <r_i_glide_energy>
-34.4983026981354

> <r_i_glide_einternal>
4.08052396774292

> <i_i_glide_confnum>
1

> <i_i_glide_posenum>
263

> <r_i_glide_eff_state_penalty>
0

> <s_user_duplicate_titles>
312874

> <s_m_subgroup_title>
dock_pv

> <s_m_subgroupid>
dock_pv1

> <b_m_subgroup_collapsed>
0

$$$$
106172
                    3D
 Schrodinger Suite 2021-1.
 34 36  0  0  1  0            999 V2000
   32.9287   -3.1845   26.6076 C   0  0  0  0  0  0
   33.2602   -3.3420   25.2650 C   0  0  0  0  0  0
   32.5892   -2.6354   24.2630 C   0  0  0  0  0  0
   31.5900   -1.7315   24.6525 C   0  0  0  0  0  0
   31.2814   -1.5379   26.0055 C   0  0  0  0  0  0
   31.9606   -2.2668   26.9781 C   0  0  0  0  0  0
   30.2284   -0.6085   26.4376 C   0  0  0  0  0  0
   28.8880   -0.9707   26.2997 C   0  0  0  0  0  0
   27.8900   -0.1414   26.7812 C   0  0  0  0  0  0
   28.2419    1.0523   27.3938 C   0  0  0  0  0  0
   29.5709    1.4305   27.5429 C   0  0  0  0  0  0
   30.5702    0.5928   27.0639 C   0  0  0  0  0  0
   27.2599    1.8580   27.8640 O   0  0  0  0  0  0
   32.9107   -2.8893   22.8302 C   0  0  0  0  0  0
   34.2362   -3.0441   22.4054 C   0  0  0  0  0  0
   34.5304   -3.3417   21.0774 C   0  0  0  0  0  0
   33.4937   -3.5090   20.1660 C   0  0  0  0  0  0
   32.1725   -3.3417   20.5644 C   0  0  0  0  0  0
   31.8878   -3.0256   21.8879 C   0  0  0  0  0  0
   33.7700   -3.8641   18.8750 O   0  0  0  0  0  0
   33.4326   -3.7656   27.3653 H   0  0  0  0  0  0
   34.0179   -4.0657   25.0005 H   0  0  0  0  0  0
   31.0501   -1.1717   23.9026 H   0  0  0  0  0  0
   31.7186   -2.1402   28.0237 H   0  0  0  0  0  0
   28.6083   -1.9140   25.8636 H   0  0  0  0  0  0
   26.8552   -0.4356   26.6824 H   0  0  0  0  0  0
   29.8224    2.3582   28.0341 H   0  0  0  0  0  0
   31.6077    0.8680   27.1889 H   0  0  0  0  0  0
   26.3803    1.5523   27.6250 H   0  0  0  0  0  0
   35.0492   -2.9413   23.1080 H   0  0  0  0  0  0
   35.5547   -3.4775   20.7627 H   0  0  0  0  0  0
   31.3637   -3.4855   19.8627 H   0  0  0  0  0  0
   30.8600   -2.9279   22.1885 H   0  0  0  0  0  0
   32.9913   -4.2172   18.4382 H   0  0  0  0  0  0
  1  6  1  0  0  0
  1  2  2  0  0  0
  1 21  1  0  0  0
  2  3  1  0  0  0
  2 22  1  0  0  0
  3  4  2  0  0  0
  3 14  1  0  0  0
  4  5  1  0  0  0
  4 23  1  0  0  0
  5  6  2  0  0  0
  5  7  1  0  0  0
  6 24  1  0  0  0
  7 12  1  0  0  0
  7  8  2  0  0  0
  8  9  1  0  0  0
  8 25  1  0  0  0
  9 10  2  0  0  0
  9 26  1  0  0  0
 10 11  1  0  0  0
 10 13  1  0  0  0
 11 12  2  0  0  0
 11 27  1  0  0  0
 12 28  1  0  0  0
 13 29  1  0  0  0
 14 19  1  0  0  0
 14 15  2  0  0  0
 15 16  1  0  0  0
 15 30  1  0  0  0
 16 17  2  0  0  0
 16 31  1  0  0  0
 17 18  1  0  0  0
 17 20  1  0  0  0
 18 19  2  0  0  0
 18 32  1  0  0  0
 19 33  1  0  0  0
 20 34  1  0  0  0
M  END
> <s_m_entry_id>
17664

> <s_m_entry_name>
ligand_docking-pose.591

> <s_m_Source_Path>
/home/csk/Desktop/cluster/DUD-E-result/esr1

> <s_m_Source_File>
ligand_docking-pose.sdf

> <i_m_Source_File_Index>
591

> <i_lp_mmshare_version>
53161

> <i_f3d_flags>
0

> <r_lp_tautomer_probability>
0.99999999999473

> <s_lp_Force_Field>
OPLS_2005

> <r_lp_Energy>
17.891964

> <b_lp_Chiralities_Consistent>
1

> <s_lp_Variant>
106172-1

> <s_i_glide_gridfile>
glide-grid_1sj0

> <i_i_glide_lignum>
345

> <i_i_glide_rotatable_bonds>
4

> <r_i_docking_score>
-7.29435997935724

> <r_i_glide_ligand_efficiency>
-0.364717998967862

> <r_i_glide_ligand_efficiency_sa>
-0.989996960499019

> <r_i_glide_ligand_efficiency_ln>
-1.82553771873942

> <r_i_glide_gscore>
-7.29435997935724

> <r_i_glide_lipo>
-3.73481166559372

> <r_i_glide_hbond>
-0.0483554882918565

> <r_i_glide_metal>
0

> <r_i_glide_rewards>
-2.1258788796577

> <r_i_glide_evdw>
-32.403736114502

> <r_i_glide_ecoul>
-1.87158739566803

> <r_i_glide_erotb>
0.515610969261342

> <r_i_glide_esite>
0

> <r_i_glide_emodel>
-44.5087476129916

> <r_i_glide_energy>
-34.27532351017

> <r_i_glide_einternal>
4.82081270217896

> <i_i_glide_confnum>
14

> <i_i_glide_posenum>
103

> <r_i_glide_eff_state_penalty>
0

> <s_user_duplicate_titles>
106172

> <s_m_subgroup_title>
dock_pv

> <s_m_subgroupid>
dock_pv1

> <b_m_subgroup_collapsed>
0

$$$$
163958
                    3D
 Schrodinger Suite 2021-1.
 64 68  0  0  1  0            999 V2000
   30.5451   -2.0438   28.9981 C   0  0  0  0  0  0
   30.4407   -0.9679   27.8955 C   0  0  1  0  0  0
   28.9393   -0.8387   27.5449 C   0  0  0  0  0  0
   28.2409   -1.9467   27.0538 C   0  0  0  0  0  0
   26.8954   -1.8786   26.7498 C   0  0  0  0  0  0
   26.1888   -0.7013   26.9715 C   0  0  0  0  0  0
   26.8618    0.4118   27.4631 C   0  0  0  0  0  0
   28.2341    0.3698   27.7182 C   0  0  0  0  0  0
   28.9750    1.6084   28.1821 C   0  0  0  0  0  0
   30.0983    1.2010   29.1306 C   0  0  0  0  0  0
   31.0087    0.2855   28.4525 N   0  0  0  0  0  0
   32.3077    0.6683   28.2691 C   0  0  0  0  0  0
   32.5676    1.5844   27.2588 C   0  0  0  0  0  0
   33.8686    1.9047   26.9434 C   0  0  0  0  0  0
   34.8848    1.2839   27.6484 C   0  0  0  0  0  0
   34.6457    0.4165   28.7090 C   0  0  0  0  0  0
   33.3347    0.1029   29.0249 C   0  0  0  0  0  0
   36.4584    1.4582   27.0640 Cl  0  0  0  0  0  0
   24.8666   -0.6051   26.6340 O   0  0  0  0  0  0
   31.2022   -1.4116   26.6012 C   0  0  0  0  0  0
   32.1323   -2.4642   26.5880 C   0  0  0  0  0  0
   32.7905   -2.8315   25.4209 C   0  0  0  0  0  0
   32.5440   -2.1379   24.2378 C   0  0  0  0  0  0
   31.6529   -1.0713   24.2392 C   0  0  0  0  0  0
   30.9767   -0.7202   25.4022 C   0  0  0  0  0  0
   33.1849   -2.4408   23.0608 O   0  0  0  0  0  0
   33.1728   -3.8094   22.6589 C   0  0  0  0  0  0
   33.2480   -3.9147   21.1211 C   0  0  0  0  0  0
   32.3009   -3.0414   20.4118 N   0  0  0  0  0  0
   30.8915   -3.2451   20.7582 C   0  0  0  0  0  0
   30.0677   -2.9442   19.4926 C   0  0  0  0  0  0
   31.1137   -2.5376   18.4578 C   0  0  0  0  0  0
   32.3670   -3.2296   18.9693 C   0  0  0  0  0  0
   30.0593   -2.9687   28.6809 H   0  0  0  0  0  0
   31.5770   -2.2275   29.2859 H   0  0  0  0  0  0
   30.0611   -1.7434   29.9130 H   0  0  0  0  0  0
   28.7581   -2.8762   26.8723 H   0  0  0  0  0  0
   26.4595   -2.7648   26.3247 H   0  0  0  0  0  0
   26.3251    1.3390   27.5953 H   0  0  0  0  0  0
   28.3130    2.3132   28.6738 H   0  0  0  0  0  0
   29.3849    2.1371   27.3194 H   0  0  0  0  0  0
   29.7278    0.7211   30.0244 H   0  0  0  0  0  0
   30.6297    2.0925   29.4675 H   0  0  0  0  0  0
   31.7564    1.9774   26.6727 H   0  0  0  0  0  0
   34.0892    2.5560   26.1081 H   0  0  0  0  0  0
   35.4642   -0.0521   29.2340 H   0  0  0  0  0  0
   33.1216   -0.6037   29.8130 H   0  0  0  0  0  0
   24.5834   -1.3762   26.1248 H   0  0  0  0  0  0
   32.3745   -3.0210   27.4729 H   0  0  0  0  0  0
   33.4999   -3.6454   25.4356 H   0  0  0  0  0  0
   31.4776   -0.5278   23.3248 H   0  0  0  0  0  0
   30.2800    0.1055   25.3757 H   0  0  0  0  0  0
   32.2799   -4.3288   23.0122 H   0  0  0  0  0  0
   34.0305   -4.3202   23.0993 H   0  0  0  0  0  0
   33.0790   -4.9521   20.8323 H   0  0  0  0  0  0
   34.2607   -3.6631   20.8033 H   0  0  0  0  0  0
   30.6079   -2.5811   21.5753 H   0  0  0  0  0  0
   30.6862   -4.2565   21.0967 H   0  0  0  0  0  0
   29.3315   -2.1566   19.6434 H   0  0  0  0  0  0
   29.5479   -3.8452   19.1643 H   0  0  0  0  0  0
   30.8619   -2.8625   17.4501 H   0  0  0  0  0  0
   31.2634   -1.4585   18.4152 H   0  0  0  0  0  0
   32.3879   -4.2912   18.7039 H   0  0  0  0  0  0
   33.2896   -2.7904   18.5869 H   0  0  0  0  0  0
  1  2  1  0  0  0
  1 34  1  0  0  0
  1 35  1  0  0  0
  1 36  1  0  0  0
  2 11  1  0  0  0
  2  3  1  0  0  0
  2 20  1  0  0  0
  3  8  2  0  0  0
  3  4  1  0  0  0
  4  5  2  0  0  0
  4 37  1  0  0  0
  5  6  1  0  0  0
  5 38  1  0  0  0
  6  7  2  0  0  0
  6 19  1  0  0  0
  7  8  1  0  0  0
  7 39  1  0  0  0
  8  9  1  0  0  0
  9 10  1  0  0  0
  9 40  1  0  0  0
  9 41  1  0  0  0
 10 11  1  0  0  0
 10 42  1  0  0  0
 10 43  1  0  0  0
 11 12  1  0  0  0
 12 17  1  0  0  0
 12 13  2  0  0  0
 13 14  1  0  0  0
 13 44  1  0  0  0
 14 15  2  0  0  0
 14 45  1  0  0  0
 15 16  1  0  0  0
 15 18  1  0  0  0
 16 17  2  0  0  0
 16 46  1  0  0  0
 17 47  1  0  0  0
 19 48  1  0  0  0
 20 25  1  0  0  0
 20 21  2  0  0  0
 21 22  1  0  0  0
 21 49  1  0  0  0
 22 23  2  0  0  0
 22 50  1  0  0  0
 23 24  1  0  0  0
 23 26  1  0  0  0
 24 25  2  0  0  0
 24 51  1  0  0  0
 25 52  1  0  0  0
 26 27  1  0  0  0
 27 28  1  0  0  0
 27 53  1  0  0  0
 27 54  1  0  0  0
 28 29  1  0  0  0
 28 55  1  0  0  0
 28 56  1  0  0  0
 29 33  1  0  0  0
 29 30  1  0  0  0
 30 31  1  0  0  0
 30 57  1  0  0  0
 30 58  1  0  0  0
 31 32  1  0  0  0
 31 59  1  0  0  0
 31 60  1  0  0  0
 32 33  1  0  0  0
 32 61  1  0  0  0
 32 62  1  0  0  0
 33 63  1  0  0  0
 33 64  1  0  0  0
M  END
> <s_m_entry_id>
17665

> <s_m_entry_name>
ligand_docking-pose.592

> <s_m_Source_Path>
/home/csk/Desktop/cluster/DUD-E-result/esr1

> <s_m_Source_File>
ligand_docking-pose.sdf

> <i_m_Source_File_Index>
592

> <i_lp_mmshare_version>
53161

> <i_f3d_flags>
0

> <r_lp_tautomer_probability>
0.999999999997365

> <s_lp_Force_Field>
OPLS_2005

> <r_lp_Energy>
57.846058

> <b_lp_Chiralities_Consistent>
1

> <s_lp_Variant>
163958-2

> <s_i_glide_gridfile>
glide-grid_1sj0

> <i_i_glide_lignum>
876

> <i_i_glide_rotatable_bonds>
7

> <r_i_docking_score>
-7.27949391096203

> <r_i_glide_ligand_efficiency>
-0.220590724574607

> <r_i_glide_ligand_efficiency_sa>
-0.707552321127052

> <r_i_glide_ligand_efficiency_ln>
-1.61892175459567

> <r_i_glide_gscore>
-7.27949391096203

> <r_i_glide_lipo>
-5.90733245504084

> <r_i_glide_hbond>
-0.123026233752691

> <r_i_glide_metal>
0

> <r_i_glide_rewards>
-0.638436943326442

> <r_i_glide_evdw>
-17.3022861480713

> <r_i_glide_ecoul>
-0.496876299381256

> <r_i_glide_erotb>
0.328947473468702

> <r_i_glide_esite>
0

> <r_i_glide_emodel>
-54.1191432440116

> <r_i_glide_energy>
-17.7991624474525

> <r_i_glide_einternal>
7.30526113510132

> <i_i_glide_confnum>
2

> <i_i_glide_posenum>
1

> <r_i_glide_eff_state_penalty>
0

> <s_user_duplicate_titles>
163958

> <s_m_subgroup_title>
dock_pv

> <s_m_subgroupid>
dock_pv1

> <b_m_subgroup_collapsed>
0

$$$$
341870
                    3D
 Schrodinger Suite 2021-1.
 34 36  0  0  1  0            999 V2000
   32.3398    1.2836   30.0141 C   0  0  0  0  0  0
   30.9915    0.5566   29.9870 C   0  0  0  0  0  0
   30.3949    0.4801   28.5723 C   0  0  0  0  0  0
   29.3375    1.3085   28.1858 C   0  0  0  0  0  0
   28.7607    1.1988   26.9251 C   0  0  0  0  0  0
   29.2863    0.3102   25.9936 C   0  0  0  0  0  0
   30.4118   -0.4582   26.3091 C   0  0  0  0  0  0
   30.9136   -0.4103   27.6236 C   0  0  0  0  0  0
   31.9371   -1.2236   28.0585 O   0  0  0  0  0  0
   32.4903   -2.1550   27.2609 C   0  0  0  0  0  0
   33.2600   -2.9117   27.8464 O   0  0  0  0  0  0
   32.1579   -2.1672   25.7855 C   0  0  0  0  0  0
   31.1340   -1.3200   25.3253 C   0  0  0  0  0  0
   30.8531   -1.2815   23.9568 C   0  0  0  0  0  0
   31.5112   -2.1187   23.0640 C   0  0  0  0  0  0
   32.4939   -2.9650   23.4876 C   0  0  0  0  0  0
   32.8358   -2.9719   24.8383 C   0  0  0  0  0  0
   33.9684   -3.8499   25.2311 C   0  0  0  0  0  0
   33.0983   -3.7653   22.5475 O   0  0  0  0  0  0
   28.8600    2.2580   29.0324 O   0  0  0  0  0  0
   32.6939    1.4289   31.0352 H   0  0  0  0  0  0
   33.1085    0.7318   29.4720 H   0  0  0  0  0  0
   32.2447    2.2580   29.5434 H   0  0  0  0  0  0
   30.3119    1.0580   30.6768 H   0  0  0  0  0  0
   31.1124   -0.4514   30.3868 H   0  0  0  0  0  0
   27.9251    1.8288   26.6559 H   0  0  0  0  0  0
   28.8352    0.2709   25.0155 H   0  0  0  0  0  0
   30.0903   -0.6290   23.5659 H   0  0  0  0  0  0
   31.2599   -2.1420   22.0167 H   0  0  0  0  0  0
   34.2596   -4.5418   24.4489 H   0  0  0  0  0  0
   34.7871   -3.1791   25.4639 H   0  0  0  0  0  0
   33.6600   -4.4634   26.0789 H   0  0  0  0  0  0
   32.6315   -3.8102   21.7082 H   0  0  0  0  0  0
   29.3419    2.2884   29.8599 H   0  0  0  0  0  0
  1  2  1  0  0  0
  1 21  1  0  0  0
  1 22  1  0  0  0
  1 23  1  0  0  0
  2  3  1  0  0  0
  2 24  1  0  0  0
  2 25  1  0  0  0
  3  8  1  0  0  0
  3  4  2  0  0  0
  4  5  1  0  0  0
  4 20  1  0  0  0
  5  6  2  0  0  0
  5 26  1  0  0  0
  6  7  1  0  0  0
  6 27  1  0  0  0
  7 13  1  0  0  0
  7  8  2  0  0  0
  8  9  1  0  0  0
  9 10  1  0  0  0
 10 11  2  0  0  0
 10 12  1  0  0  0
 12 17  1  0  0  0
 12 13  2  0  0  0
 13 14  1  0  0  0
 14 15  2  0  0  0
 14 28  1  0  0  0
 15 16  1  0  0  0
 15 29  1  0  0  0
 16 17  2  0  0  0
 16 19  1  0  0  0
 17 18  1  0  0  0
 18 30  1  0  0  0
 18 31  1  0  0  0
 18 32  1  0  0  0
 19 33  1  0  0  0
 20 34  1  0  0  0
M  END
> <s_m_entry_id>
17666

> <s_m_entry_name>
ligand_docking-pose.593

> <s_m_Source_Path>
/home/csk/Desktop/cluster/DUD-E-result/esr1

> <s_m_Source_File>
ligand_docking-pose.sdf

> <i_m_Source_File_Index>
593

> <i_lp_mmshare_version>
53161

> <i_f3d_flags>
0

> <r_lp_tautomer_probability>
1

> <s_lp_Force_Field>
OPLS_2005

> <r_lp_Energy>
22.58291

> <b_lp_Chiralities_Consistent>
1

> <s_lp_Variant>
341870-1

> <s_i_glide_gridfile>
glide-grid_1sj0

> <i_i_glide_lignum>
1160

> <i_i_glide_rotatable_bonds>
3

> <r_i_docking_score>
-7.27787397384969

> <r_i_glide_ligand_efficiency>
-0.363893698692485

> <r_i_glide_ligand_efficiency_sa>
-0.987759465312405

> <r_i_glide_ligand_efficiency_ln>
-1.82141181530574

> <r_i_glide_gscore>
-7.27787397384969

> <r_i_glide_lipo>
-4.10544627516523

> <r_i_glide_hbond>
0

> <r_i_glide_metal>
0

> <r_i_glide_rewards>
-2.15508444876743

> <r_i_glide_evdw>
-18.4631576538086

> <r_i_glide_ecoul>
-0.627902448177338

> <r_i_glide_erotb>
0

> <r_i_glide_esite>
0

> <r_i_glide_emodel>
-22.0812775186804

> <r_i_glide_energy>
-19.0910601019859

> <r_i_glide_einternal>
0.568907558917999

> <i_i_glide_confnum>
1

> <i_i_glide_posenum>
216

> <r_i_glide_eff_state_penalty>
0

> <s_user_duplicate_titles>
341870

> <s_m_subgroup_title>
dock_pv

> <s_m_subgroupid>
dock_pv1

> <b_m_subgroup_collapsed>
0

$$$$
88932
                    3D
 Schrodinger Suite 2021-1.
 51 54  0  0  1  0            999 V2000
   33.3435    1.4364   28.8852 C   0  0  0  0  0  0
   32.6195    0.3133   29.6916 C   0  0  2  0  0  0
   33.4087   -1.0061   29.5459 C   0  0  0  0  0  0
   33.3374   -1.5761   28.1067 C   0  0  0  0  0  0
   31.9217   -1.5544   27.4659 C   0  0  2  0  0  0
   31.8917   -1.8137   25.9559 C   0  0  0  0  0  0
   32.8364   -2.6306   25.2999 C   0  0  0  0  0  0
   32.7536   -2.8816   23.9229 C   0  0  0  0  0  0
   31.7527   -2.2562   23.1943 C   0  0  0  0  0  0
   30.8602   -1.4085   23.8315 C   0  0  0  0  0  0
   30.8585   -1.2273   25.1898 C   0  0  0  0  0  0
   29.7146   -0.3910   25.7693 C   0  0  0  0  0  0
   29.6699   -0.4590   27.2823 C   0  0  0  0  0  0
   31.1013   -0.2718   27.7838 C   0  0  1  0  0  0
   31.1622    0.0351   29.2634 C   0  0  2  0  0  0
   30.3442    1.2269   29.7611 C   0  0  0  0  0  0
   31.0016    1.5086   31.0989 C   0  0  0  0  0  0
   32.3119    0.7400   31.1387 C   0  0  2  0  0  0
   33.2601    1.4578   31.8636 O   0  0  0  0  0  0
   31.5975   -2.5421   21.8673 O   0  0  0  0  0  0
   33.6412   -3.9138   23.2294 C   0  0  0  0  0  0
   34.7176   -3.3465   22.2642 C   0  0  0  0  0  0
   34.1626   -2.7159   21.1286 O   0  0  0  0  0  0
   32.1301   -0.1802   31.6882 H   0  0  0  0  0  0
   32.6896    2.2828   28.6969 H   0  0  0  0  0  0
   34.2413    1.7879   29.3949 H   0  0  0  0  0  0
   33.6733    1.1069   27.9017 H   0  0  0  0  0  0
   33.0039   -1.7419   30.2265 H   0  0  0  0  0  0
   34.4444   -0.8703   29.8613 H   0  0  0  0  0  0
   33.6598   -2.6150   28.1685 H   0  0  0  0  0  0
   34.0401   -1.0413   27.4684 H   0  0  0  0  0  0
   31.3885   -2.4022   27.8980 H   0  0  0  0  0  0
   33.6101   -3.1201   25.8717 H   0  0  0  0  0  0
   30.0364   -0.9792   23.2974 H   0  0  0  0  0  0
   29.8435    0.6478   25.4640 H   0  0  0  0  0  0
   28.7548   -0.7149   25.3706 H   0  0  0  0  0  0
   29.0234    0.3487   27.6253 H   0  0  0  0  0  0
   29.2131   -1.3663   27.6826 H   0  0  0  0  0  0
   31.5381    0.5755   27.2508 H   0  0  0  0  0  0
   30.7977   -0.8552   29.7850 H   0  0  0  0  0  0
   30.4475    2.0756   29.0823 H   0  0  0  0  0  0
   29.2740    1.0579   29.8625 H   0  0  0  0  0  0
   31.2601    2.5539   31.1101 H   0  0  0  0  0  0
   30.3625    1.3212   31.9570 H   0  0  0  0  0  0
   33.3534    2.3222   31.4575 H   0  0  0  0  0  0
   32.4578   -2.7622   21.4777 H   0  0  0  0  0  0
   32.9938   -4.5952   22.6751 H   0  0  0  0  0  0
   34.0601   -4.5418   24.0070 H   0  0  0  0  0  0
   35.3480   -4.1418   21.8645 H   0  0  0  0  0  0
   35.3600   -2.6310   22.7784 H   0  0  0  0  0  0
   34.3502   -3.2598   20.3546 H   0  0  0  0  0  0
  1  2  1  0  0  0
  1 25  1  0  0  0
  1 26  1  0  0  0
  1 27  1  0  0  0
  2 15  1  0  0  0
  2 18  1  0  0  0
  2  3  1  0  0  0
  3  4  1  0  0  0
  3 28  1  0  0  0
  3 29  1  0  0  0
  4  5  1  0  0  0
  4 30  1  0  0  0
  4 31  1  0  0  0
  5 14  1  0  0  0
  5  6  1  0  0  0
  5 32  1  0  0  0
  6 11  2  0  0  0
  6  7  1  0  0  0
  7  8  2  0  0  0
  7 33  1  0  0  0
  8  9  1  0  0  0
  8 21  1  0  0  0
  9 10  2  0  0  0
  9 20  1  0  0  0
 10 11  1  0  0  0
 10 34  1  0  0  0
 11 12  1  0  0  0
 12 13  1  0  0  0
 12 35  1  0  0  0
 12 36  1  0  0  0
 13 14  1  0  0  0
 13 37  1  0  0  0
 13 38  1  0  0  0
 14 15  1  0  0  0
 14 39  1  0  0  0
 15 16  1  0  0  0
 15 40  1  0  0  0
 16 17  1  0  0  0
 16 41  1  0  0  0
 16 42  1  0  0  0
 17 18  1  0  0  0
 17 43  1  0  0  0
 17 44  1  0  0  0
 18 24  1  0  0  0
 18 19  1  0  0  0
 19 45  1  0  0  0
 20 46  1  0  0  0
 21 22  1  0  0  0
 21 47  1  0  0  0
 21 48  1  0  0  0
 22 23  1  0  0  0
 22 49  1  0  0  0
 22 50  1  0  0  0
 23 51  1  0  0  0
M  END
> <s_m_entry_id>
17667

> <s_m_entry_name>
ligand_docking-pose.594

> <s_m_Source_Path>
/home/csk/Desktop/cluster/DUD-E-result/esr1

> <s_m_Source_File>
ligand_docking-pose.sdf

> <i_m_Source_File_Index>
594

> <i_lp_mmshare_version>
53161

> <i_f3d_flags>
0

> <r_lp_tautomer_probability>
0.999999999997365

> <s_lp_Force_Field>
OPLS_2005

> <r_lp_Energy>
46.926399

> <b_lp_Chiralities_Consistent>
1

> <s_lp_Variant>
88932-4

> <s_i_glide_gridfile>
glide-grid_1sj0

> <i_i_glide_lignum>
730

> <i_i_glide_rotatable_bonds>
5

> <r_i_docking_score>
-7.27531186110758

> <r_i_glide_ligand_efficiency>
-0.316317907004677

> <r_i_glide_ligand_efficiency_sa>
-0.899566049926165

> <r_i_glide_ligand_efficiency_ln>
-1.75923637689649

> <r_i_glide_gscore>
-7.27531186110758

> <r_i_glide_lipo>
-4.82048180431632

> <r_i_glide_hbond>
0

> <r_i_glide_metal>
0

> <r_i_glide_rewards>
-1.92773374167309

> <r_i_glide_evdw>
-15.5677518844604

> <r_i_glide_ecoul>
-0.803711771965027

> <r_i_glide_erotb>
0.371848044899615

> <r_i_glide_esite>
0

> <r_i_glide_emodel>
-17.9286209677939

> <r_i_glide_energy>
-16.3714636564255

> <r_i_glide_einternal>
2.16112184524536

> <i_i_glide_confnum>
4

> <i_i_glide_posenum>
172

> <r_i_glide_eff_state_penalty>
0

> <s_user_duplicate_titles>
88932

> <s_m_subgroup_title>
dock_pv

> <s_m_subgroupid>
dock_pv1

> <b_m_subgroup_collapsed>
0

$$$$
396494
                    3D
 Schrodinger Suite 2021-1.
 32 34  0  0  1  0            999 V2000
   31.6600   -2.6194   22.5539 C   0  0  0  0  0  0
   31.8407   -3.3317   21.3759 C   0  0  0  0  0  0
   33.0905   -3.8581   21.0928 C   0  0  0  0  0  0
   34.1466   -3.7040   21.9841 C   0  0  0  0  0  0
   33.9366   -3.0461   23.1944 C   0  0  0  0  0  0
   32.6791   -2.5196   23.5009 C   0  0  0  0  0  0
   32.4239   -1.8218   24.8405 C   0  0  2  0  0  0
   32.7088   -2.7245   26.0630 C   0  0  0  0  0  0
   32.6297   -1.8906   27.3584 C   0  0  0  0  0  0
   31.4484   -0.9239   27.3179 C   0  0  0  0  0  0
   31.0541   -0.1873   28.4387 C   0  0  0  0  0  0
   29.9960    0.7196   28.3649 C   0  0  0  0  0  0
   29.2848    0.8774   27.1767 C   0  0  0  0  0  0
   29.6566    0.1470   26.0500 C   0  0  0  0  0  0
   30.7492   -0.7165   26.1136 C   0  0  0  0  0  0
   31.0594   -1.3884   24.9492 O   0  0  0  0  0  0
   29.6625    1.4581   29.4639 O   0  0  0  0  0  0
   33.2619   -4.5423   19.9282 O   0  0  0  0  0  0
   33.0674   -0.9432   24.8547 H   0  0  0  0  0  0
   30.7126   -2.1422   22.7255 H   0  0  0  0  0  0
   31.0283   -3.4383   20.6706 H   0  0  0  0  0  0
   35.1149   -4.1193   21.7470 H   0  0  0  0  0  0
   34.7580   -2.9435   23.8836 H   0  0  0  0  0  0
   31.9495   -3.5080   26.0973 H   0  0  0  0  0  0
   33.6600   -3.2466   25.9793 H   0  0  0  0  0  0
   33.5464   -1.3067   27.4666 H   0  0  0  0  0  0
   32.5733   -2.5399   28.2322 H   0  0  0  0  0  0
   31.5885   -0.3025   29.3706 H   0  0  0  0  0  0
   28.4513    1.5619   27.1150 H   0  0  0  0  0  0
   29.1147    0.2602   25.1221 H   0  0  0  0  0  0
   28.9201    2.0426   29.3057 H   0  0  0  0  0  0
   32.4997   -5.1285   19.7745 H   0  0  0  0  0  0
  1  6  1  0  0  0
  1  2  2  0  0  0
  1 20  1  0  0  0
  2  3  1  0  0  0
  2 21  1  0  0  0
  3  4  2  0  0  0
  3 18  1  0  0  0
  4  5  1  0  0  0
  4 22  1  0  0  0
  5  6  2  0  0  0
  5 23  1  0  0  0
  6  7  1  0  0  0
  7 19  1  0  0  0
  7 16  1  0  0  0
  7  8  1  0  0  0
  8  9  1  0  0  0
  8 24  1  0  0  0
  8 25  1  0  0  0
  9 10  1  0  0  0
  9 26  1  0  0  0
  9 27  1  0  0  0
 10 15  2  0  0  0
 10 11  1  0  0  0
 11 12  2  0  0  0
 11 28  1  0  0  0
 12 13  1  0  0  0
 12 17  1  0  0  0
 13 14  2  0  0  0
 13 29  1  0  0  0
 14 15  1  0  0  0
 14 30  1  0  0  0
 15 16  1  0  0  0
 17 31  1  0  0  0
 18 32  1  0  0  0
M  END
> <s_m_entry_id>
17668

> <s_m_entry_name>
ligand_docking-pose.595

> <s_m_Source_Path>
/home/csk/Desktop/cluster/DUD-E-result/esr1

> <s_m_Source_File>
ligand_docking-pose.sdf

> <i_m_Source_File_Index>
595

> <i_lp_mmshare_version>
53161

> <i_f3d_flags>
0

> <r_lp_tautomer_probability>
0.999999999997365

> <s_lp_Force_Field>
OPLS_2005

> <r_lp_Energy>
13.99519

> <b_lp_Chiralities_Consistent>
1

> <s_lp_Variant>
396494-1

> <s_i_glide_gridfile>
glide-grid_1sj0

> <i_i_glide_lignum>
473

> <i_i_glide_rotatable_bonds>
3

> <r_i_docking_score>
-7.26434643300482

> <r_i_glide_ligand_efficiency>
-0.403574801833601

> <r_i_glide_ligand_efficiency_sa>
-1.05766518780596

> <r_i_glide_ligand_efficiency_ln>
-1.86726279262659

> <r_i_glide_gscore>
-7.26434643300482

> <r_i_glide_lipo>
-3.16480109376622

> <r_i_glide_hbond>
-0.16

> <r_i_glide_metal>
0

> <r_i_glide_rewards>
-2.30798526198343

> <r_i_glide_evdw>
-27.172924041748

> <r_i_glide_ecoul>
-3.78915619850159

> <r_i_glide_erotb>
0.295459554607463

> <r_i_glide_esite>
0

> <r_i_glide_emodel>
-41.3145446889321

> <r_i_glide_energy>
-30.9620802402496

> <r_i_glide_einternal>
2.49793076515198

> <i_i_glide_confnum>
1

> <i_i_glide_posenum>
383

> <r_i_glide_eff_state_penalty>
0

> <s_user_duplicate_titles>
396494

> <s_m_subgroup_title>
dock_pv

> <s_m_subgroupid>
dock_pv1

> <b_m_subgroup_collapsed>
0

$$$$
42615
                    3D
 Schrodinger Suite 2021-1.
 27 29  0  0  1  0            999 V2000
   31.6599   -2.6170   22.5316 C   0  0  0  0  0  0
   31.8704   -3.2448   21.3144 C   0  0  0  0  0  0
   33.0761   -3.8823   21.0858 C   0  0  0  0  0  0
   34.0617   -3.8931   22.0630 C   0  0  0  0  0  0
   33.8220   -3.3030   23.3029 C   0  0  0  0  0  0
   32.6044   -2.6657   23.5525 C   0  0  0  0  0  0
   32.2708   -2.0459   24.8714 C   0  0  0  0  0  0
   31.4740   -0.9430   25.1310 C   0  0  0  0  0  0
   31.3979   -0.6057   26.5107 C   0  0  0  0  0  0
   30.7226    0.4523   27.1445 C   0  0  0  0  0  0
   30.8274    0.6065   28.5288 C   0  0  0  0  0  0
   31.5872   -0.2715   29.2966 C   0  0  0  0  0  0
   32.2528   -1.3435   28.7061 C   0  0  0  0  0  0
   32.1476   -1.5089   27.3172 C   0  0  0  0  0  0
   32.8597   -2.7860   26.3479 S   0  0  0  0  0  0
   31.6816   -0.0765   30.6493 O   0  0  0  0  0  0
   33.2601   -4.5421   19.9075 O   0  0  0  0  0  0
   30.7119   -2.1417   22.6809 H   0  0  0  0  0  0
   31.0999   -3.2421   20.5576 H   0  0  0  0  0  0
   34.9933   -4.3981   21.8633 H   0  0  0  0  0  0
   34.5823   -3.3419   24.0674 H   0  0  0  0  0  0
   30.9842   -0.3701   24.3605 H   0  0  0  0  0  0
   30.1344    1.1487   26.5668 H   0  0  0  0  0  0
   30.3176    1.4275   29.0129 H   0  0  0  0  0  0
   32.8404   -2.0284   29.2988 H   0  0  0  0  0  0
   32.2698   -0.7012   31.0778 H   0  0  0  0  0  0
   32.5044   -5.1322   19.7450 H   0  0  0  0  0  0
  1  6  1  0  0  0
  1  2  2  0  0  0
  1 18  1  0  0  0
  2  3  1  0  0  0
  2 19  1  0  0  0
  3  4  2  0  0  0
  3 17  1  0  0  0
  4  5  1  0  0  0
  4 20  1  0  0  0
  5  6  2  0  0  0
  5 21  1  0  0  0
  6  7  1  0  0  0
  7 15  1  0  0  0
  7  8  2  0  0  0
  8  9  1  0  0  0
  8 22  1  0  0  0
  9 14  2  0  0  0
  9 10  1  0  0  0
 10 11  2  0  0  0
 10 23  1  0  0  0
 11 12  1  0  0  0
 11 24  1  0  0  0
 12 13  2  0  0  0
 12 16  1  0  0  0
 13 14  1  0  0  0
 13 25  1  0  0  0
 14 15  1  0  0  0
 16 26  1  0  0  0
 17 27  1  0  0  0
M  END
> <s_m_entry_id>
17669

> <s_m_entry_name>
ligand_docking-pose.596

> <s_m_Source_Path>
/home/csk/Desktop/cluster/DUD-E-result/esr1

> <s_m_Source_File>
ligand_docking-pose.sdf

> <i_m_Source_File_Index>
596

> <i_lp_mmshare_version>
53161

> <i_f3d_flags>
0

> <r_lp_tautomer_probability>
0.999999999997365

> <s_lp_Force_Field>
OPLS_2005

> <r_lp_Energy>
11.158407

> <b_lp_Chiralities_Consistent>
1

> <s_lp_Variant>
42615-1

> <s_i_glide_gridfile>
glide-grid_1sj0

> <i_i_glide_lignum>
278

> <i_i_glide_rotatable_bonds>
3

> <r_i_docking_score>
-7.23223448185902

> <r_i_glide_ligand_efficiency>
-0.425425557756413

> <r_i_glide_ligand_efficiency_sa>
-1.0938889038215

> <r_i_glide_ligand_efficiency_ln>
-1.88672892237353

> <r_i_glide_gscore>
-7.23223448185902

> <r_i_glide_lipo>
-3.15790344314689

> <r_i_glide_hbond>
-0.16

> <r_i_glide_metal>
0

> <r_i_glide_rewards>
-2.25003949858698

> <r_i_glide_evdw>
-26.8746089935303

> <r_i_glide_ecoul>
-4.10646915435791

> <r_i_glide_erotb>
0.29540928270504

> <r_i_glide_esite>
0

> <r_i_glide_emodel>
-43.6223687680225

> <r_i_glide_energy>
-30.9810781478882

> <r_i_glide_einternal>
2.14870500564575

> <i_i_glide_confnum>
1

> <i_i_glide_posenum>
397

> <r_i_glide_eff_state_penalty>
0

> <s_user_duplicate_titles>
42615

> <s_m_subgroup_title>
dock_pv

> <s_m_subgroupid>
dock_pv1

> <b_m_subgroup_collapsed>
0

$$$$
330271
                    3D
 Schrodinger Suite 2021-1.
 29 31  0  0  1  0            999 V2000
   33.7210   -3.3827   23.5071 C   0  0  0  0  0  0
   33.9704   -3.9732   22.2640 C   0  0  0  0  0  0
   33.0403   -3.8854   21.2367 C   0  0  0  0  0  0
   31.8819   -3.1452   21.4316 C   0  0  0  0  0  0
   31.6600   -2.5420   22.6640 C   0  0  0  0  0  0
   32.5366   -2.6753   23.7463 C   0  0  0  0  0  0
   32.1960   -2.0954   25.0901 C   0  0  0  0  0  0
   32.8600   -2.4590   26.2663 C   0  0  0  0  0  0
   32.5123   -1.8619   27.4778 C   0  0  0  0  0  0
   31.4700   -0.8951   27.5037 C   0  0  0  0  0  0
   31.0767   -0.1871   28.6697 C   0  0  0  0  0  0
   30.0452    0.7452   28.6072 C   0  0  0  0  0  0
   29.3516    0.9644   27.4233 C   0  0  0  0  0  0
   29.7062    0.2819   26.2640 C   0  0  0  0  0  0
   30.7914   -0.6254   26.2785 C   0  0  0  0  0  0
   31.1619   -1.2100   25.1107 N   0  0  0  0  0  0
   29.7100    1.4580   29.7208 O   0  0  0  0  0  0
   33.3577   -2.3177   28.9162 Cl  0  0  0  0  0  0
   30.9648   -3.0114   20.4446 F   0  0  0  0  0  0
   33.2600   -4.5420   20.0566 O   0  0  0  0  0  0
   34.4600   -3.5014   24.2839 H   0  0  0  0  0  0
   34.8600   -4.5513   22.0958 H   0  0  0  0  0  0
   30.7455   -1.9980   22.7889 H   0  0  0  0  0  0
   33.6492   -3.1935   26.2557 H   0  0  0  0  0  0
   31.5949   -0.3639   29.6003 H   0  0  0  0  0  0
   28.5426    1.6803   27.3996 H   0  0  0  0  0  0
   29.1772    0.4667   25.3397 H   0  0  0  0  0  0
   30.2814    1.2730   30.4687 H   0  0  0  0  0  0
   32.5243   -5.1484   19.8640 H   0  0  0  0  0  0
  1  6  1  0  0  0
  1  2  2  0  0  0
  1 21  1  0  0  0
  2  3  1  0  0  0
  2 22  1  0  0  0
  3  4  2  0  0  0
  3 20  1  0  0  0
  4  5  1  0  0  0
  4 19  1  0  0  0
  5  6  2  0  0  0
  5 23  1  0  0  0
  6  7  1  0  0  0
  7 16  1  0  0  0
  7  8  2  0  0  0
  8  9  1  0  0  0
  8 24  1  0  0  0
  9 10  2  0  0  0
  9 18  1  0  0  0
 10 15  1  0  0  0
 10 11  1  0  0  0
 11 12  2  0  0  0
 11 25  1  0  0  0
 12 13  1  0  0  0
 12 17  1  0  0  0
 13 14  2  0  0  0
 13 26  1  0  0  0
 14 15  1  0  0  0
 14 27  1  0  0  0
 15 16  2  0  0  0
 17 28  1  0  0  0
 20 29  1  0  0  0
M  END
> <s_m_entry_id>
17670

> <s_m_entry_name>
ligand_docking-pose.597

> <s_m_Source_Path>
/home/csk/Desktop/cluster/DUD-E-result/esr1

> <s_m_Source_File>
ligand_docking-pose.sdf

> <i_m_Source_File_Index>
597

> <i_lp_mmshare_version>
53161

> <i_f3d_flags>
0

> <r_lp_tautomer_probability>
0.999999999997365

> <s_lp_Force_Field>
OPLS_2005

> <r_lp_Energy>
12.770736

> <b_lp_Chiralities_Consistent>
1

> <s_lp_Variant>
330271-1

> <s_i_glide_gridfile>
glide-grid_1sj0

> <i_i_glide_lignum>
322

> <i_i_glide_rotatable_bonds>
3

> <r_i_docking_score>
-7.22688885491701

> <r_i_glide_ligand_efficiency>
-0.361344442745851

> <r_i_glide_ligand_efficiency_sa>
-0.980839720068562

> <r_i_glide_ligand_efficiency_ln>
-1.80865192163865

> <r_i_glide_gscore>
-7.22688885491701

> <r_i_glide_lipo>
-3.35205795643825

> <r_i_glide_hbond>
-0.16

> <r_i_glide_metal>
0

> <r_i_glide_rewards>
-1.98238665632602

> <r_i_glide_evdw>
-28.6065216064453

> <r_i_glide_ecoul>
-3.00827836990356

> <r_i_glide_erotb>
0.217028653063866

> <r_i_glide_esite>
-0.0679050594088143

> <r_i_glide_emodel>
-44.1368612441541

> <r_i_glide_energy>
-31.6147999763489

> <r_i_glide_einternal>
1.59353685379028

> <i_i_glide_confnum>
4

> <i_i_glide_posenum>
38

> <r_i_glide_eff_state_penalty>
0

> <s_user_duplicate_titles>
330271

> <s_m_subgroup_title>
dock_pv

> <s_m_subgroupid>
dock_pv1

> <b_m_subgroup_collapsed>
0

$$$$
89007
                    3D
 Schrodinger Suite 2021-1.
 38 40  0  0  1  0            999 V2000
   33.2366   -2.5161   25.1057 C   0  0  0  0  0  0
   33.5768   -3.3421   24.0418 C   0  0  0  0  0  0
   32.7901   -3.3577   22.8945 C   0  0  0  0  0  0
   31.6696   -2.5418   22.8032 C   0  0  0  0  0  0
   31.3385   -1.6991   23.8657 C   0  0  0  0  0  0
   32.1110   -1.6853   25.0327 C   0  0  0  0  0  0
   31.7039   -0.7573   26.1961 C   0  0  2  0  0  0
   32.6970    0.4130   26.4493 C   0  0  0  0  0  0
   32.1718    1.3271   27.5736 C   0  0  0  0  0  0
   31.8619    0.5744   28.9082 C   0  0  2  0  0  0
   33.1430   -0.0992   29.5315 C   0  0  0  0  0  0
   33.3866   -1.5174   29.0392 C   0  0  0  0  0  0
   32.5928   -2.1420   28.1520 C   0  0  0  0  0  0
   31.3578   -1.4938   27.5279 C   0  0  1  0  0  0
   30.7849   -0.5018   28.5788 C   0  0  0  0  0  0
   31.3207    1.6133   29.9152 C   0  0  0  0  0  0
   30.8600    1.0580   31.1280 O   0  0  0  0  0  0
   33.1253   -4.1849   21.8579 O   0  0  0  0  0  0
   30.7756   -0.2866   25.8666 H   0  0  0  0  0  0
   30.6112   -2.2676   27.3412 H   0  0  0  0  0  0
   33.8769   -2.5189   25.9714 H   0  0  0  0  0  0
   34.4507   -3.9648   24.1206 H   0  0  0  0  0  0
   31.0618   -2.5444   21.9095 H   0  0  0  0  0  0
   30.4662   -1.0679   23.7826 H   0  0  0  0  0  0
   33.6597    0.0504   26.7808 H   0  0  0  0  0  0
   32.8557    1.0080   25.5487 H   0  0  0  0  0  0
   31.2844    1.8579   27.2239 H   0  0  0  0  0  0
   32.9134    2.1077   27.7573 H   0  0  0  0  0  0
   34.0266    0.5317   29.4339 H   0  0  0  0  0  0
   32.9973   -0.2561   30.6022 H   0  0  0  0  0  0
   34.2390   -2.0583   29.4244 H   0  0  0  0  0  0
   32.8596   -3.1487   27.8644 H   0  0  0  0  0  0
   30.4795   -1.0479   29.4725 H   0  0  0  0  0  0
   29.8759   -0.0322   28.2005 H   0  0  0  0  0  0
   30.5430    2.2394   29.4686 H   0  0  0  0  0  0
   32.1430    2.2582   30.1931 H   0  0  0  0  0  0
   30.5887    1.7750   31.7054 H   0  0  0  0  0  0
   32.4127   -4.3576   21.2337 H   0  0  0  0  0  0
  1  6  1  0  0  0
  1  2  2  0  0  0
  1 21  1  0  0  0
  2  3  1  0  0  0
  2 22  1  0  0  0
  3  4  2  0  0  0
  3 18  1  0  0  0
  4  5  1  0  0  0
  4 23  1  0  0  0
  5  6  2  0  0  0
  5 24  1  0  0  0
  6  7  1  0  0  0
  7 19  1  0  0  0
  7 14  1  0  0  0
  7  8  1  0  0  0
  8  9  1  0  0  0
  8 25  1  0  0  0
  8 26  1  0  0  0
  9 10  1  0  0  0
  9 27  1  0  0  0
  9 28  1  0  0  0
 10 15  1  0  0  0
 10 11  1  0  0  0
 10 16  1  0  0  0
 11 12  1  0  0  0
 11 29  1  0  0  0
 11 30  1  0  0  0
 12 13  2  0  0  0
 12 31  1  0  0  0
 13 14  1  0  0  0
 13 32  1  0  0  0
 14 20  1  0  0  0
 14 15  1  0  0  0
 15 33  1  0  0  0
 15 34  1  0  0  0
 16 17  1  0  0  0
 16 35  1  0  0  0
 16 36  1  0  0  0
 17 37  1  0  0  0
 18 38  1  0  0  0
M  END
> <s_m_entry_id>
17671

> <s_m_entry_name>
ligand_docking-pose.598

> <s_m_Source_Path>
/home/csk/Desktop/cluster/DUD-E-result/esr1

> <s_m_Source_File>
ligand_docking-pose.sdf

> <i_m_Source_File_Index>
598

> <i_lp_mmshare_version>
53161

> <i_f3d_flags>
0

> <r_lp_tautomer_probability>
0.999999999997365

> <s_lp_Force_Field>
OPLS_2005

> <r_lp_Energy>
26.121801

> <b_lp_Chiralities_Consistent>
1

> <s_lp_Variant>
89007-1

> <s_i_glide_gridfile>
glide-grid_1sj0

> <i_i_glide_lignum>
474

> <i_i_glide_rotatable_bonds>
4

> <r_i_docking_score>
-7.2248550539304

> <r_i_glide_ligand_efficiency>
-0.401380836329467

> <r_i_glide_ligand_efficiency_sa>
-1.05191537159734

> <r_i_glide_ligand_efficiency_ln>
-1.85711173726941

> <r_i_glide_gscore>
-7.2248550539304

> <r_i_glide_lipo>
-4.18403843423806

> <r_i_glide_hbond>
0

> <r_i_glide_metal>
0

> <r_i_glide_rewards>
-2.27389673810615

> <r_i_glide_evdw>
-24.2105293273926

> <r_i_glide_ecoul>
-0.925528168678284

> <r_i_glide_erotb>
0.582435810085177

> <r_i_glide_esite>
0

> <r_i_glide_emodel>
-34.064032309852

> <r_i_glide_energy>
-25.1360574960709

> <r_i_glide_einternal>
2.44227766990662

> <i_i_glide_confnum>
3

> <i_i_glide_posenum>
39

> <r_i_glide_eff_state_penalty>
0

> <s_user_duplicate_titles>
89007

> <s_m_subgroup_title>
dock_pv

> <s_m_subgroupid>
dock_pv1

> <b_m_subgroup_collapsed>
0

$$$$
313396
                    3D
 Schrodinger Suite 2021-1.
 32 35  0  0  1  0            999 V2000
   32.8597   -2.2378   28.1038 C   0  0  0  0  0  0
   31.8897   -1.3420   28.5252 C   0  0  0  0  0  0
   30.9753   -0.7999   27.5951 C   0  0  0  0  0  0
   29.9486    0.0790   28.0238 C   0  0  0  0  0  0
   29.0438    0.5974   27.1079 C   0  0  0  0  0  0
   29.1441    0.2582   25.7694 C   0  0  0  0  0  0
   30.1545   -0.5716   25.3067 C   0  0  0  0  0  0
   31.0947   -1.1384   26.2043 C   0  0  0  0  0  0
   32.1436   -2.0221   25.7843 C   0  0  0  0  0  0
   32.9432   -2.5985   26.7665 C   0  0  0  0  0  0
   32.4845   -2.3971   24.3659 C   0  0  0  0  0  0
   31.6600   -2.5420   23.3569 N   0  0  0  0  0  0
   32.4424   -2.9517   22.3221 C   0  0  0  0  0  0
   32.1140   -3.3420   21.0190 C   0  0  0  0  0  0
   33.1605   -3.6782   20.1576 C   0  0  0  0  0  0
   34.4952   -3.5967   20.5603 C   0  0  0  0  0  0
   34.8399   -3.2298   21.8640 C   0  0  0  0  0  0
   33.7787   -2.9420   22.7292 C   0  0  0  0  0  0
   33.8014   -2.6114   24.0511 O   0  0  0  0  0  0
   32.8600   -4.1420   18.9112 O   0  0  0  0  0  0
   28.0598    1.4547   27.5179 O   0  0  0  0  0  0
   33.5311   -2.6837   28.8239 H   0  0  0  0  0  0
   31.8116   -1.0794   29.5705 H   0  0  0  0  0  0
   29.8786    0.3417   29.0677 H   0  0  0  0  0  0
   28.4600    0.6848   25.0582 H   0  0  0  0  0  0
   30.2027   -0.7774   24.2502 H   0  0  0  0  0  0
   33.6600   -3.3439   26.4753 H   0  0  0  0  0  0
   31.0855   -3.4072   20.6970 H   0  0  0  0  0  0
   35.2722   -3.8686   19.8602 H   0  0  0  0  0  0
   35.8653   -3.1870   22.1919 H   0  0  0  0  0  0
   32.1197   -4.7638   18.9829 H   0  0  0  0  0  0
   28.0725    1.5998   28.4655 H   0  0  0  0  0  0
  1 10  1  0  0  0
  1  2  2  0  0  0
  1 22  1  0  0  0
  2  3  1  0  0  0
  2 23  1  0  0  0
  3  8  2  0  0  0
  3  4  1  0  0  0
  4  5  2  0  0  0
  4 24  1  0  0  0
  5  6  1  0  0  0
  5 21  1  0  0  0
  6  7  2  0  0  0
  6 25  1  0  0  0
  7  8  1  0  0  0
  7 26  1  0  0  0
  8  9  1  0  0  0
  9 10  2  0  0  0
  9 11  1  0  0  0
 10 27  1  0  0  0
 11 19  1  0  0  0
 11 12  2  0  0  0
 12 13  1  0  0  0
 13 18  2  0  0  0
 13 14  1  0  0  0
 14 15  2  0  0  0
 14 28  1  0  0  0
 15 16  1  0  0  0
 15 20  1  0  0  0
 16 17  2  0  0  0
 16 29  1  0  0  0
 17 18  1  0  0  0
 17 30  1  0  0  0
 18 19  1  0  0  0
 20 31  1  0  0  0
 21 32  1  0  0  0
M  END
> <s_m_entry_id>
17672

> <s_m_entry_name>
ligand_docking-pose.599

> <s_m_Source_Path>
/home/csk/Desktop/cluster/DUD-E-result/esr1

> <s_m_Source_File>
ligand_docking-pose.sdf

> <i_m_Source_File_Index>
599

> <i_lp_mmshare_version>
53161

> <i_f3d_flags>
0

> <r_lp_tautomer_probability>
1

> <s_lp_Force_Field>
OPLS_2005

> <r_lp_Energy>
20.776284

> <b_lp_Chiralities_Consistent>
1

> <s_lp_Variant>
313396-1

> <s_i_glide_gridfile>
glide-grid_1sj0

> <i_i_glide_lignum>
48

> <i_i_glide_rotatable_bonds>
3

> <r_i_docking_score>
-7.22046252280539

> <r_i_glide_ligand_efficiency>
-0.343831548705019

> <r_i_glide_ligand_efficiency_sa>
-0.948605171362155

> <r_i_glide_ligand_efficiency_ln>
-1.7852447684453

> <r_i_glide_gscore>
-7.22046252280539

> <r_i_glide_lipo>
-3.26332111393063

> <r_i_glide_hbond>
-0.16

> <r_i_glide_metal>
0

> <r_i_glide_rewards>
-2.09589280449694

> <r_i_glide_evdw>
-31.8346519470215

> <r_i_glide_ecoul>
-2.29148602485657

> <r_i_glide_erotb>
0.234206896701733

> <r_i_glide_esite>
0

> <r_i_glide_emodel>
-47.9502207524965

> <r_i_glide_energy>
-34.1261379718781

> <r_i_glide_einternal>
0.229365304112434

> <i_i_glide_confnum>
1

> <i_i_glide_posenum>
36

> <r_i_glide_eff_state_penalty>
0

> <s_user_duplicate_titles>
313396

> <s_m_subgroup_title>
dock_pv

> <s_m_subgroupid>
dock_pv1

> <b_m_subgroup_collapsed>
0

$$$$
1564
                    3D
 Schrodinger Suite 2021-1.
 30 32  0  0  1  0            999 V2000
   33.8066   -3.2651   23.4447 C   0  0  0  0  0  0
   34.0584   -3.8391   22.1978 C   0  0  0  0  0  0
   33.0706   -3.8426   21.2235 C   0  0  0  0  0  0
   31.8730   -3.1810   21.4448 C   0  0  0  0  0  0
   31.6600   -2.5467   22.6638 C   0  0  0  0  0  0
   32.5867   -2.6269   23.7052 C   0  0  0  0  0  0
   32.2325   -2.0991   25.0534 C   0  0  0  0  0  0
   32.8600   -2.4152   26.2055 C   0  0  0  0  0  0
   32.4918   -1.8315   27.4830 C   0  0  0  0  0  0
   33.0752   -2.0832   28.5365 O   0  0  0  0  0  0
   31.3228   -0.9034   27.4137 C   0  0  0  0  0  0
   30.7956   -0.2484   28.5398 C   0  0  0  0  0  0
   29.6666    0.5580   28.4180 C   0  0  0  0  0  0
   29.0386    0.7098   27.1898 C   0  0  0  0  0  0
   29.5618    0.0975   26.0600 C   0  0  0  0  0  0
   30.7059   -0.6851   26.1736 C   0  0  0  0  0  0
   31.1913   -1.2232   25.0001 O   0  0  0  0  0  0
   27.9038    1.4592   27.0978 O   0  0  0  0  0  0
   31.3565   -0.3797   29.7825 O   0  0  0  0  0  0
   33.2600   -4.5419   20.0639 O   0  0  0  0  0  0
   34.5636   -3.3391   24.2094 H   0  0  0  0  0  0
   34.9855   -4.3461   21.9896 H   0  0  0  0  0  0
   31.1065   -3.1714   20.6834 H   0  0  0  0  0  0
   30.7215   -2.0540   22.8217 H   0  0  0  0  0  0
   33.6597   -3.1317   26.1954 H   0  0  0  0  0  0
   29.2624    1.0550   29.2879 H   0  0  0  0  0  0
   29.1023    0.2227   25.0922 H   0  0  0  0  0  0
   27.5480    1.4676   26.2088 H   0  0  0  0  0  0
   32.1235   -0.9638   29.7396 H   0  0  0  0  0  0
   32.4951   -5.1098   19.8639 H   0  0  0  0  0  0
  1  6  1  0  0  0
  1  2  2  0  0  0
  1 21  1  0  0  0
  2  3  1  0  0  0
  2 22  1  0  0  0
  3  4  2  0  0  0
  3 20  1  0  0  0
  4  5  1  0  0  0
  4 23  1  0  0  0
  5  6  2  0  0  0
  5 24  1  0  0  0
  6  7  1  0  0  0
  7 17  1  0  0  0
  7  8  2  0  0  0
  8  9  1  0  0  0
  8 25  1  0  0  0
  9 10  2  0  0  0
  9 11  1  0  0  0
 11 16  2  0  0  0
 11 12  1  0  0  0
 12 13  2  0  0  0
 12 19  1  0  0  0
 13 14  1  0  0  0
 13 26  1  0  0  0
 14 15  2  0  0  0
 14 18  1  0  0  0
 15 16  1  0  0  0
 15 27  1  0  0  0
 16 17  1  0  0  0
 18 28  1  0  0  0
 19 29  1  0  0  0
 20 30  1  0  0  0
M  END
> <s_m_entry_id>
17673

> <s_m_entry_name>
ligand_docking-pose.600

> <s_m_Source_Path>
/home/csk/Desktop/cluster/DUD-E-result/esr1

> <s_m_Source_File>
ligand_docking-pose.sdf

> <i_m_Source_File_Index>
600

> <i_lp_mmshare_version>
53161

> <i_f3d_flags>
0

> <r_lp_tautomer_probability>
0.999999999997365

> <s_lp_Force_Field>
OPLS_2005

> <r_lp_Energy>
16.552935

> <b_lp_Chiralities_Consistent>
1

> <s_lp_Variant>
1564-1

> <s_i_glide_gridfile>
glide-grid_1sj0

> <i_i_glide_lignum>
352

> <i_i_glide_rotatable_bonds>
4

> <r_i_docking_score>
-7.21937515948675

> <r_i_glide_ligand_efficiency>
-0.360968757974338

> <r_i_glide_ligand_efficiency_sa>
-0.979819954707499

> <r_i_glide_ligand_efficiency_ln>
-1.80677149149072

> <r_i_glide_gscore>
-7.21937515948675

> <r_i_glide_lipo>
-3.240925868105

> <r_i_glide_hbond>
-0.16

> <r_i_glide_metal>
0

> <r_i_glide_rewards>
-1.88524902005973

> <r_i_glide_evdw>
-31.563720703125

> <r_i_glide_ecoul>
-3.99925136566162

> <r_i_glide_erotb>
0.244873468683471

> <r_i_glide_esite>
0

> <r_i_glide_emodel>
-50.0503422423998

> <r_i_glide_energy>
-35.5629720687866

> <r_i_glide_einternal>
1.85389733314514

> <i_i_glide_confnum>
1

> <i_i_glide_posenum>
35

> <r_i_glide_eff_state_penalty>
0

> <s_user_duplicate_titles>
1564

> <s_m_subgroup_title>
dock_pv

> <s_m_subgroupid>
dock_pv1

> <b_m_subgroup_collapsed>
0

$$$$
522267
                    3D
 Schrodinger Suite 2021-1.
 27 28  0  0  1  0            999 V2000
   32.8424   -0.7298   29.3989 C   0  0  0  0  0  0
   32.6089   -0.0396   30.5844 C   0  0  0  0  0  0
   31.5285    0.8269   30.6787 C   0  0  0  0  0  0
   30.6859    1.0314   29.5912 C   0  0  0  0  0  0
   30.9051    0.3201   28.4153 C   0  0  0  0  0  0
   31.9816   -0.5746   28.3033 C   0  0  0  0  0  0
   32.2025   -1.3425   27.0406 C   0  0  0  0  0  0
   32.7491   -2.6341   27.0517 C   0  0  0  0  0  0
   32.9528   -3.3419   25.8653 C   0  0  0  0  0  0
   32.6236   -2.7771   24.6302 C   0  0  0  0  0  0
   32.0495   -1.5031   24.6199 C   0  0  0  0  0  0
   31.8594   -0.7931   25.8010 C   0  0  0  0  0  0
   31.6602   -0.9358   23.4640 F   0  0  0  0  0  0
   32.8602   -3.5032   23.3831 C   0  0  0  0  0  0
   33.9164   -3.3412   22.7006 N   0  0  0  0  0  0
   33.9236   -4.1211   21.5270 O   0  0  0  0  0  0
   31.2816    1.4580   31.8639 O   0  0  0  0  0  0
   33.6951   -1.3926   29.3449 H   0  0  0  0  0  0
   33.2601   -0.1825   31.4327 H   0  0  0  0  0  0
   29.8435    1.7033   29.6629 H   0  0  0  0  0  0
   30.2163    0.4599   27.5949 H   0  0  0  0  0  0
   33.0210   -3.1026   27.9848 H   0  0  0  0  0  0
   33.3811   -4.3310   25.9170 H   0  0  0  0  0  0
   31.4370    0.1985   25.7365 H   0  0  0  0  0  0
   32.0603   -4.1796   23.0907 H   0  0  0  0  0  0
   33.0792   -4.5834   21.5427 H   0  0  0  0  0  0
   30.5273    2.0486   31.8199 H   0  0  0  0  0  0
  1  6  1  0  0  0
  1  2  2  0  0  0
  1 18  1  0  0  0
  2  3  1  0  0  0
  2 19  1  0  0  0
  3  4  2  0  0  0
  3 17  1  0  0  0
  4  5  1  0  0  0
  4 20  1  0  0  0
  5  6  2  0  0  0
  5 21  1  0  0  0
  6  7  1  0  0  0
  7 12  1  0  0  0
  7  8  2  0  0  0
  8  9  1  0  0  0
  8 22  1  0  0  0
  9 10  2  0  0  0
  9 23  1  0  0  0
 10 11  1  0  0  0
 10 14  1  0  0  0
 11 12  2  0  0  0
 11 13  1  0  0  0
 12 24  1  0  0  0
 14 15  2  0  0  0
 14 25  1  0  0  0
 15 16  1  0  0  0
 16 26  1  0  0  0
 17 27  1  0  0  0
M  END
> <s_m_entry_id>
17674

> <s_m_entry_name>
ligand_docking-pose.601

> <s_m_Source_Path>
/home/csk/Desktop/cluster/DUD-E-result/esr1

> <s_m_Source_File>
ligand_docking-pose.sdf

> <i_m_Source_File_Index>
601

> <i_lp_mmshare_version>
53161

> <i_f3d_flags>
0

> <r_lp_tautomer_probability>
0.999999999997365

> <s_lp_Force_Field>
OPLS_2005

> <r_lp_Energy>
15.479337

> <b_lp_Chiralities_Consistent>
1

> <s_lp_Variant>
522267-1

> <s_i_glide_gridfile>
glide-grid_1sj0

> <i_i_glide_lignum>
344

> <i_i_glide_rotatable_bonds>
4

> <r_i_docking_score>
-7.21528469257816

> <r_i_glide_ligand_efficiency>
-0.424428511328127

> <r_i_glide_ligand_efficiency_sa>
-1.09132521669784

> <r_i_glide_ligand_efficiency_ln>
-1.8823070998034

> <r_i_glide_gscore>
-7.21528469257816

> <r_i_glide_lipo>
-3.42895609281087

> <r_i_glide_hbond>
0

> <r_i_glide_metal>
0

> <r_i_glide_rewards>
-2.98239729670931

> <r_i_glide_evdw>
-31.0118045806885

> <r_i_glide_ecoul>
-1.20562815666199

> <r_i_glide_erotb>
0.959704928585606

> <r_i_glide_esite>
-0.0322017791098609

> <r_i_glide_emodel>
-45.8343061529452

> <r_i_glide_energy>
-32.2174327373505

> <r_i_glide_einternal>
1.8507821559906

> <i_i_glide_confnum>
18

> <i_i_glide_posenum>
341

> <r_i_glide_eff_state_penalty>
0

> <s_user_duplicate_titles>
522267

> <s_m_subgroup_title>
dock_pv

> <s_m_subgroupid>
dock_pv1

> <b_m_subgroup_collapsed>
0

$$$$
301119
                    3D
 Schrodinger Suite 2021-1.
 39 41  0  0  1  0            999 V2000
   29.4788   -2.4431   27.0640 C   0  0  0  0  0  0
   30.2751   -1.3958   27.8086 C   0  0  0  0  0  0
   30.7040   -1.6067   29.0614 C   0  0  0  0  0  0
   31.4726   -0.6192   29.9150 C   0  0  0  0  0  0
   31.6175    0.7872   29.2460 C   0  0  2  0  0  0
   30.5006    1.0246   28.1888 C   0  0  0  0  0  0
   30.5962   -0.0802   27.1136 C   0  0  1  0  0  0
   32.0168   -0.1024   26.4716 C   0  0  1  0  0  0
   33.0552   -0.0962   27.4566 O   0  0  0  0  0  0
   32.9669    0.8822   28.4827 C   0  0  0  0  0  0
   32.2322   -1.2391   25.4635 C   0  0  0  0  0  0
   31.8049   -1.0549   24.1424 C   0  0  0  0  0  0
   32.0533   -2.0222   23.1667 C   0  0  0  0  0  0
   32.7475   -3.1774   23.4936 C   0  0  0  0  0  0
   33.1599   -3.3720   24.8028 C   0  0  0  0  0  0
   32.8599   -2.4548   25.8011 C   0  0  0  0  0  0
   33.2599   -2.9192   27.4201 Cl  0  0  0  0  0  0
   32.9947   -4.1409   22.5543 O   0  0  0  0  0  0
   31.5189    1.8579   30.3380 C   0  0  0  0  0  0
   32.4228    1.6176   31.4078 O   0  0  0  0  0  0
   29.8500    0.1133   26.3414 H   0  0  0  0  0  0
   32.1483    0.8238   25.9134 H   0  0  0  0  0  0
   30.1035   -2.8317   26.2655 H   0  0  0  0  0  0
   29.2024   -3.2859   27.6995 H   0  0  0  0  0  0
   28.5671   -2.0196   26.6425 H   0  0  0  0  0  0
   30.4624   -2.5420   29.4920 H   0  0  0  0  0  0
   32.4289   -1.0149   30.2591 H   0  0  0  0  0  0
   30.8600   -0.5359   30.8116 H   0  0  0  0  0  0
   29.5129    1.0201   28.6557 H   0  0  0  0  0  0
   30.6025    2.0060   27.7243 H   0  0  0  0  0  0
   33.1221    1.8785   28.0642 H   0  0  0  0  0  0
   33.8033    0.7148   29.1627 H   0  0  0  0  0  0
   31.2939   -0.1470   23.8657 H   0  0  0  0  0  0
   31.7103   -1.8732   22.1565 H   0  0  0  0  0  0
   33.6642   -4.2878   25.0576 H   0  0  0  0  0  0
   32.5324   -4.0156   21.7208 H   0  0  0  0  0  0
   30.5150    1.8579   30.7629 H   0  0  0  0  0  0
   31.6600    2.8269   29.8642 H   0  0  0  0  0  0
   33.3189    1.7598   31.0936 H   0  0  0  0  0  0
  1  2  1  0  0  0
  1 23  1  0  0  0
  1 24  1  0  0  0
  1 25  1  0  0  0
  2  7  1  0  0  0
  2  3  2  0  0  0
  3  4  1  0  0  0
  3 26  1  0  0  0
  4  5  1  0  0  0
  4 27  1  0  0  0
  4 28  1  0  0  0
  5 10  1  0  0  0
  5  6  1  0  0  0
  5 19  1  0  0  0
  6  7  1  0  0  0
  6 29  1  0  0  0
  6 30  1  0  0  0
  7 21  1  0  0  0
  7  8  1  0  0  0
  8 22  1  0  0  0
  8  9  1  0  0  0
  8 11  1  0  0  0
  9 10  1  0  0  0
 10 31  1  0  0  0
 10 32  1  0  0  0
 11 16  1  0  0  0
 11 12  2  0  0  0
 12 13  1  0  0  0
 12 33  1  0  0  0
 13 14  2  0  0  0
 13 34  1  0  0  0
 14 15  1  0  0  0
 14 18  1  0  0  0
 15 16  2  0  0  0
 15 35  1  0  0  0
 16 17  1  0  0  0
 18 36  1  0  0  0
 19 20  1  0  0  0
 19 37  1  0  0  0
 19 38  1  0  0  0
 20 39  1  0  0  0
M  END
> <s_m_entry_id>
17675

> <s_m_entry_name>
ligand_docking-pose.602

> <s_m_Source_Path>
/home/csk/Desktop/cluster/DUD-E-result/esr1

> <s_m_Source_File>
ligand_docking-pose.sdf

> <i_m_Source_File_Index>
602

> <i_lp_mmshare_version>
53161

> <i_f3d_flags>
0

> <r_lp_tautomer_probability>
0.999999999997365

> <s_lp_Force_Field>
OPLS_2005

> <r_lp_Energy>
27.437102

> <b_lp_Chiralities_Consistent>
1

> <s_lp_Variant>
301119-1

> <s_i_glide_gridfile>
glide-grid_1sj0

> <i_i_glide_lignum>
928

> <i_i_glide_rotatable_bonds>
4

> <r_i_docking_score>
-7.21415432091295

> <r_i_glide_ligand_efficiency>
-0.360707716045648

> <r_i_glide_ligand_efficiency_sa>
-0.9791113778983

> <r_i_glide_ligand_efficiency_ln>
-1.80546488779048

> <r_i_glide_gscore>
-7.21415432091295

> <r_i_glide_lipo>
-4.1950282440551

> <r_i_glide_hbond>
0

> <r_i_glide_metal>
0

> <r_i_glide_rewards>
-2.09325928911612

> <r_i_glide_evdw>
-24.1457901000977

> <r_i_glide_ecoul>
-0.931025445461273

> <r_i_glide_erotb>
0.421076534082347

> <r_i_glide_esite>
0

> <r_i_glide_emodel>
-29.1403327683497

> <r_i_glide_energy>
-25.0768155455589

> <r_i_glide_einternal>
3.96416521072388

> <i_i_glide_confnum>
4

> <i_i_glide_posenum>
346

> <r_i_glide_eff_state_penalty>
0

> <s_user_duplicate_titles>
301119

> <s_m_subgroup_title>
dock_pv

> <s_m_subgroupid>
dock_pv1

> <b_m_subgroup_collapsed>
0

$$$$
373382
                    3D
 Schrodinger Suite 2021-1.
 28 30  0  0  1  0            999 V2000
   32.7495    0.2950   29.6806 C   0  0  0  0  0  0
   32.7184   -0.2734   28.4088 C   0  0  0  0  0  0
   31.5300   -0.1983   27.6591 C   0  0  0  0  0  0
   30.4309    0.5180   28.1991 C   0  0  0  0  0  0
   30.4637    1.1079   29.4654 C   0  0  0  0  0  0
   31.6401    0.9542   30.1995 C   0  0  0  0  0  0
   31.7074    1.4580   31.4650 O   0  0  0  0  0  0
   29.4496    0.4660   27.2339 N   0  0  0  0  0  0
   29.8404   -0.2411   26.1623 N   0  0  0  0  0  0
   31.0597   -0.6800   26.3872 C   0  0  0  0  0  0
   31.7554   -1.5695   25.3950 C   0  0  0  0  0  0
   31.5195   -1.3532   24.0300 C   0  0  0  0  0  0
   32.1411   -2.1429   23.0632 C   0  0  0  0  0  0
   33.0438   -3.1276   23.4415 C   0  0  0  0  0  0
   33.3062   -3.3420   24.7872 C   0  0  0  0  0  0
   32.6475   -2.5955   25.7611 C   0  0  0  0  0  0
   32.8597   -2.9457   27.0661 O   0  0  0  0  0  0
   33.6591   -3.9002   22.4976 O   0  0  0  0  0  0
   28.5267    0.8730   27.2647 H   0  0  0  0  0  0
   33.6475    0.2155   30.2770 H   0  0  0  0  0  0
   33.5927   -0.7757   28.0232 H   0  0  0  0  0  0
   29.6113    1.6358   29.8656 H   0  0  0  0  0  0
   30.9032    1.9110   31.7236 H   0  0  0  0  0  0
   30.8370   -0.5788   23.7125 H   0  0  0  0  0  0
   31.9233   -1.9930   22.0180 H   0  0  0  0  0  0
   33.9902   -4.1305   25.0642 H   0  0  0  0  0  0
   33.4414   -3.7020   27.1535 H   0  0  0  0  0  0
   33.2791   -3.8051   21.6206 H   0  0  0  0  0  0
  1  6  1  0  0  0
  1  2  2  0  0  0
  1 20  1  0  0  0
  2  3  1  0  0  0
  2 21  1  0  0  0
  3 10  1  0  0  0
  3  4  2  0  0  0
  4  5  1  0  0  0
  4  8  1  0  0  0
  5  6  2  0  0  0
  5 22  1  0  0  0
  6  7  1  0  0  0
  7 23  1  0  0  0
  8 19  1  0  0  0
  8  9  1  0  0  0
  9 10  2  0  0  0
 10 11  1  0  0  0
 11 16  1  0  0  0
 11 12  2  0  0  0
 12 13  1  0  0  0
 12 24  1  0  0  0
 13 14  2  0  0  0
 13 25  1  0  0  0
 14 15  1  0  0  0
 14 18  1  0  0  0
 15 16  2  0  0  0
 15 26  1  0  0  0
 16 17  1  0  0  0
 17 27  1  0  0  0
 18 28  1  0  0  0
M  END
> <s_m_entry_id>
17676

> <s_m_entry_name>
ligand_docking-pose.603

> <s_m_Source_Path>
/home/csk/Desktop/cluster/DUD-E-result/esr1

> <s_m_Source_File>
ligand_docking-pose.sdf

> <i_m_Source_File_Index>
603

> <i_lp_mmshare_version>
53161

> <i_f3d_flags>
0

> <r_lp_tautomer_probability>
0.999999999898

> <s_lp_Force_Field>
OPLS_2005

> <r_lp_Energy>
18.734712

> <b_lp_Chiralities_Consistent>
1

> <s_lp_Variant>
373382-1

> <s_i_glide_gridfile>
glide-grid_1sj0

> <i_i_glide_lignum>
30

> <i_i_glide_rotatable_bonds>
4

> <r_i_docking_score>
-7.21335003773919

> <r_i_glide_ligand_efficiency>
-0.400741668763288

> <r_i_glide_ligand_efficiency_sa>
-1.05024027870044

> <r_i_glide_ligand_efficiency_ln>
-1.85415443218209

> <r_i_glide_gscore>
-7.21335003773919

> <r_i_glide_lipo>
-3.52011534633875

> <r_i_glide_hbond>
0

> <r_i_glide_metal>
0

> <r_i_glide_rewards>
-2.23916436739553

> <r_i_glide_evdw>
-34.5321807861328

> <r_i_glide_ecoul>
-0.153357788920403

> <r_i_glide_erotb>
0.295542383639799

> <r_i_glide_esite>
0

> <r_i_glide_emodel>
-48.138941474856

> <r_i_glide_energy>
-34.6855385750532

> <r_i_glide_einternal>
2.51340961456299

> <i_i_glide_confnum>
3

> <i_i_glide_posenum>
281

> <r_i_glide_eff_state_penalty>
0

> <s_user_duplicate_titles>
373382

> <s_m_subgroup_title>
dock_pv

> <s_m_subgroupid>
dock_pv1

> <b_m_subgroup_collapsed>
0

$$$$
322696
                    3D
 Schrodinger Suite 2021-1.
 30 32  0  0  1  0            999 V2000
   33.8945   -3.0911   23.0584 C   0  0  0  0  0  0
   34.2802   -3.7044   21.8657 C   0  0  0  0  0  0
   33.3367   -3.9342   20.8746 C   0  0  0  0  0  0
   32.0359   -3.4881   21.0339 C   0  0  0  0  0  0
   31.6602   -2.8735   22.2162 C   0  0  0  0  0  0
   32.5659   -2.6946   23.2721 C   0  0  0  0  0  0
   32.1323   -2.1003   24.5845 C   0  0  0  0  0  0
   32.7934   -2.4204   25.7766 C   0  0  0  0  0  0
   32.4534   -1.8291   26.9924 C   0  0  0  0  0  0
   31.3901   -0.8936   27.0741 C   0  0  0  0  0  0
   30.6518   -0.6198   25.8828 C   0  0  0  0  0  0
   31.0499   -1.2168   24.6600 C   0  0  0  0  0  0
   29.5446    0.2580   25.9456 C   0  0  0  0  0  0
   29.2353    0.9253   27.1236 C   0  0  0  0  0  0
   29.9876    0.7155   28.2729 C   0  0  0  0  0  0
   31.0373   -0.2113   28.2809 C   0  0  0  0  0  0
   32.0022   -0.5246   29.9045 Br  0  0  0  0  0  0
   29.6802    1.4501   29.3892 O   0  0  0  0  0  0
   33.6613   -4.6326   19.7483 O   0  0  0  0  0  0
   34.6430   -2.9423   23.8229 H   0  0  0  0  0  0
   35.2962   -4.0401   21.7266 H   0  0  0  0  0  0
   31.3012   -3.6515   20.2584 H   0  0  0  0  0  0
   30.6395   -2.5424   22.2643 H   0  0  0  0  0  0
   33.6101   -3.1281   25.7687 H   0  0  0  0  0  0
   33.0181   -2.0818   27.8781 H   0  0  0  0  0  0
   30.4971   -0.9544   23.7733 H   0  0  0  0  0  0
   28.9556    0.4439   25.0593 H   0  0  0  0  0  0
   28.4082    1.6198   27.1303 H   0  0  0  0  0  0
   28.9522    2.0594   29.2451 H   0  0  0  0  0  0
   32.8994   -5.1537   19.4628 H   0  0  0  0  0  0
  1  6  1  0  0  0
  1  2  2  0  0  0
  1 20  1  0  0  0
  2  3  1  0  0  0
  2 21  1  0  0  0
  3  4  2  0  0  0
  3 19  1  0  0  0
  4  5  1  0  0  0
  4 22  1  0  0  0
  5  6  2  0  0  0
  5 23  1  0  0  0
  6  7  1  0  0  0
  7 12  1  0  0  0
  7  8  2  0  0  0
  8  9  1  0  0  0
  8 24  1  0  0  0
  9 10  2  0  0  0
  9 25  1  0  0  0
 10 16  1  0  0  0
 10 11  1  0  0  0
 11 12  2  0  0  0
 11 13  1  0  0  0
 12 26  1  0  0  0
 13 14  2  0  0  0
 13 27  1  0  0  0
 14 15  1  0  0  0
 14 28  1  0  0  0
 15 16  2  0  0  0
 15 18  1  0  0  0
 16 17  1  0  0  0
 18 29  1  0  0  0
 19 30  1  0  0  0
M  END
> <s_m_entry_id>
17677

> <s_m_entry_name>
ligand_docking-pose.604

> <s_m_Source_Path>
/home/csk/Desktop/cluster/DUD-E-result/esr1

> <s_m_Source_File>
ligand_docking-pose.sdf

> <i_m_Source_File_Index>
604

> <i_lp_mmshare_version>
53161

> <i_f3d_flags>
0

> <r_lp_tautomer_probability>
0.999999999997365

> <s_lp_Force_Field>
OPLS_2005

> <r_lp_Energy>
17.473833

> <b_lp_Chiralities_Consistent>
1

> <s_lp_Variant>
322696-1

> <s_i_glide_gridfile>
glide-grid_1sj0

> <i_i_glide_lignum>
295

> <i_i_glide_rotatable_bonds>
3

> <r_i_docking_score>
-7.20649750797046

> <r_i_glide_ligand_efficiency>
-0.379289342524761

> <r_i_glide_ligand_efficiency_sa>
-1.01209630594238

> <r_i_glide_ligand_efficiency_ln>
-1.82700189964489

> <r_i_glide_gscore>
-7.20649750797046

> <r_i_glide_lipo>
-3.5777885284041

> <r_i_glide_hbond>
-0.119913537252688

> <r_i_glide_metal>
0

> <r_i_glide_rewards>
-1.91218082482006

> <r_i_glide_evdw>
-30.7002601623535

> <r_i_glide_ecoul>
-1.65899467468262

> <r_i_glide_erotb>
0.18724759182646

> <r_i_glide_esite>
0

> <r_i_glide_emodel>
-44.7232845189107

> <r_i_glide_energy>
-32.3592548370361

> <r_i_glide_einternal>
1.01858854293823

> <i_i_glide_confnum>
1

> <i_i_glide_posenum>
333

> <r_i_glide_eff_state_penalty>
0

> <s_user_duplicate_titles>
322696

> <s_m_subgroup_title>
dock_pv

> <s_m_subgroupid>
dock_pv1

> <b_m_subgroup_collapsed>
0

$$$$
42804
                    3D
 Schrodinger Suite 2021-1.
 27 29  0  0  1  0            999 V2000
   31.0121    0.6448   27.3353 C   0  0  0  0  0  0
   31.1765    0.8143   28.7119 C   0  0  0  0  0  0
   31.8920   -0.1079   29.4715 C   0  0  0  0  0  0
   32.4459   -1.2422   28.8813 C   0  0  0  0  0  0
   32.2799   -1.4212   27.5008 C   0  0  0  0  0  0
   31.5805   -0.4740   26.7007 C   0  0  0  0  0  0
   31.5933   -0.8359   25.3256 C   0  0  0  0  0  0
   32.3037   -1.9953   25.0629 C   0  0  0  0  0  0
   32.8600   -2.7643   26.5366 S   0  0  0  0  0  0
   32.5893   -2.6403   23.7455 C   0  0  0  0  0  0
   33.7709   -3.3420   23.5021 C   0  0  0  0  0  0
   33.9952   -3.9465   22.2639 C   0  0  0  0  0  0
   33.0345   -3.8858   21.2635 C   0  0  0  0  0  0
   31.8582   -3.1714   21.4842 C   0  0  0  0  0  0
   31.6600   -2.5420   22.7123 C   0  0  0  0  0  0
   30.9107   -3.0770   20.5222 F   0  0  0  0  0  0
   33.2601   -4.5420   20.0836 O   0  0  0  0  0  0
   32.0581    0.1070   30.8135 O   0  0  0  0  0  0
   30.4655    1.3780   26.7622 H   0  0  0  0  0  0
   30.7527    1.6824   29.1970 H   0  0  0  0  0  0
   32.9987   -1.9637   29.4641 H   0  0  0  0  0  0
   31.1321   -0.2325   24.5596 H   0  0  0  0  0  0
   34.5158   -3.4197   24.2778 H   0  0  0  0  0  0
   34.8891   -4.5122   22.0746 H   0  0  0  0  0  0
   30.7586   -1.9861   22.8833 H   0  0  0  0  0  0
   32.5052   -5.1142   19.8640 H   0  0  0  0  0  0
   32.6294   -0.5418   31.2307 H   0  0  0  0  0  0
  1  6  1  0  0  0
  1  2  2  0  0  0
  1 19  1  0  0  0
  2  3  1  0  0  0
  2 20  1  0  0  0
  3  4  2  0  0  0
  3 18  1  0  0  0
  4  5  1  0  0  0
  4 21  1  0  0  0
  5  9  1  0  0  0
  5  6  2  0  0  0
  6  7  1  0  0  0
  7  8  2  0  0  0
  7 22  1  0  0  0
  8  9  1  0  0  0
  8 10  1  0  0  0
 10 15  1  0  0  0
 10 11  2  0  0  0
 11 12  1  0  0  0
 11 23  1  0  0  0
 12 13  2  0  0  0
 12 24  1  0  0  0
 13 14  1  0  0  0
 13 17  1  0  0  0
 14 15  2  0  0  0
 14 16  1  0  0  0
 15 25  1  0  0  0
 17 26  1  0  0  0
 18 27  1  0  0  0
M  END
> <s_m_entry_id>
17678

> <s_m_entry_name>
ligand_docking-pose.605

> <s_m_Source_Path>
/home/csk/Desktop/cluster/DUD-E-result/esr1

> <s_m_Source_File>
ligand_docking-pose.sdf

> <i_m_Source_File_Index>
605

> <i_lp_mmshare_version>
53161

> <i_f3d_flags>
0

> <r_lp_tautomer_probability>
0.999999999997365

> <s_lp_Force_Field>
OPLS_2005

> <r_lp_Energy>
11.947909

> <b_lp_Chiralities_Consistent>
1

> <s_lp_Variant>
42804-1

> <s_i_glide_gridfile>
glide-grid_1sj0

> <i_i_glide_lignum>
145

> <i_i_glide_rotatable_bonds>
3

> <r_i_docking_score>
-7.20190019912153

> <r_i_glide_ligand_efficiency>
-0.400105566617863

> <r_i_glide_ligand_efficiency_sa>
-1.04857321947858

> <r_i_glide_ligand_efficiency_ln>
-1.85121131020553

> <r_i_glide_gscore>
-7.20190019912153

> <r_i_glide_lipo>
-3.26841342431061

> <r_i_glide_hbond>
-0.16

> <r_i_glide_metal>
0

> <r_i_glide_rewards>
-2.10729783008364

> <r_i_glide_evdw>
-27.2086715698242

> <r_i_glide_ecoul>
-3.28853225708008

> <r_i_glide_erotb>
0.26125962891487

> <r_i_glide_esite>
-0.0737351565889373

> <r_i_glide_emodel>
-42.0635916609672

> <r_i_glide_energy>
-30.4972038269043

> <r_i_glide_einternal>
3.32504749298096

> <i_i_glide_confnum>
3

> <i_i_glide_posenum>
105

> <r_i_glide_eff_state_penalty>
0

> <s_user_duplicate_titles>
42804

> <s_m_subgroup_title>
dock_pv

> <s_m_subgroupid>
dock_pv1

> <b_m_subgroup_collapsed>
0

$$$$
88892
                    3D
 Schrodinger Suite 2021-1.
 54 57  0  0  1  0            999 V2000
   34.5295    1.2246   29.3279 C   0  0  0  0  0  0
   33.2764    0.3850   29.7247 C   0  0  2  0  0  0
   33.5679   -1.1178   29.4498 C   0  0  0  0  0  0
   33.4995   -1.4982   27.9870 C   0  0  0  0  0  0
   32.1509   -1.1620   27.3662 C   0  0  2  0  0  0
   32.0388   -1.5634   25.9001 C   0  0  0  0  0  0
   32.9206   -2.4444   25.2351 C   0  0  0  0  0  0
   32.7389   -2.7929   23.8909 C   0  0  0  0  0  0
   31.6672   -2.2276   23.2085 C   0  0  0  0  0  0
   30.8230   -1.3420   23.8641 C   0  0  0  0  0  0
   30.9596   -1.0251   25.1948 C   0  0  0  0  0  0
   29.8974   -0.1860   25.8936 C   0  0  0  0  0  0
   30.4909    0.7996   26.9170 C   0  0  0  0  0  0
   31.8371    0.3540   27.5479 C   0  0  1  0  0  0
   31.9873    0.8701   28.9952 C   0  0  1  0  0  0
   30.8213    0.4222   29.8840 C   0  0  0  0  0  0
   31.3839    0.1215   31.2594 C   0  0  0  0  0  0
   32.8508    0.5239   31.2096 C   0  0  2  0  0  0
   32.8602    1.8564   31.6517 O   0  0  0  0  0  0
   31.3602   -2.5970   21.9277 O   0  0  0  0  0  0
   33.6052   -3.8629   23.2235 C   0  0  0  0  0  0
   34.6992   -3.3602   22.2434 C   0  0  0  0  0  0
   34.2487   -2.6588   20.9572 C   0  0  0  0  0  0
   33.3314   -3.4643   20.2474 O   0  0  0  0  0  0
   33.4320   -0.1097   31.8639 H   0  0  0  0  0  0
   35.3797    0.6034   29.0443 H   0  0  0  0  0  0
   34.3335    1.8737   28.4754 H   0  0  0  0  0  0
   34.8875    1.8577   30.1365 H   0  0  0  0  0  0
   34.5242   -1.4292   29.8637 H   0  0  0  0  0  0
   32.8208   -1.7418   29.9271 H   0  0  0  0  0  0
   34.2741   -0.9420   27.4641 H   0  0  0  0  0  0
   33.6599   -2.5753   27.9301 H   0  0  0  0  0  0
   31.3974   -1.7519   27.8916 H   0  0  0  0  0  0
   33.7411   -2.8969   25.7678 H   0  0  0  0  0  0
   29.9449   -0.9612   23.3802 H   0  0  0  0  0  0
   29.2618    0.3442   25.1833 H   0  0  0  0  0  0
   29.2381   -0.8915   26.4033 H   0  0  0  0  0  0
   30.4949    1.8547   26.6577 H   0  0  0  0  0  0
   29.7067    0.7588   27.6700 H   0  0  0  0  0  0
   32.6070    0.8585   26.9595 H   0  0  0  0  0  0
   31.9871    1.9624   28.9707 H   0  0  0  0  0  0
   30.0663    1.2080   29.9515 H   0  0  0  0  0  0
   30.3351   -0.4606   29.4640 H   0  0  0  0  0  0
   30.8601    0.6651   32.0408 H   0  0  0  0  0  0
   31.2801   -0.9431   31.4673 H   0  0  0  0  0  0
   33.7723    2.1469   31.7076 H   0  0  0  0  0  0
   32.0656   -3.0568   21.4456 H   0  0  0  0  0  0
   34.0600   -4.4649   24.0081 H   0  0  0  0  0  0
   32.9441   -4.5615   22.7091 H   0  0  0  0  0  0
   35.4079   -2.7250   22.7743 H   0  0  0  0  0  0
   35.2613   -4.2205   21.8884 H   0  0  0  0  0  0
   33.7324   -1.7420   21.2085 H   0  0  0  0  0  0
   35.0978   -2.4076   20.3205 H   0  0  0  0  0  0
   33.7700   -4.2644   19.9417 H   0  0  0  0  0  0
  1  2  1  0  0  0
  1 26  1  0  0  0
  1 27  1  0  0  0
  1 28  1  0  0  0
  2 15  1  0  0  0
  2 18  1  0  0  0
  2  3  1  0  0  0
  3  4  1  0  0  0
  3 29  1  0  0  0
  3 30  1  0  0  0
  4  5  1  0  0  0
  4 31  1  0  0  0
  4 32  1  0  0  0
  5 14  1  0  0  0
  5  6  1  0  0  0
  5 33  1  0  0  0
  6 11  2  0  0  0
  6  7  1  0  0  0
  7  8  2  0  0  0
  7 34  1  0  0  0
  8  9  1  0  0  0
  8 21  1  0  0  0
  9 10  2  0  0  0
  9 20  1  0  0  0
 10 11  1  0  0  0
 10 35  1  0  0  0
 11 12  1  0  0  0
 12 13  1  0  0  0
 12 36  1  0  0  0
 12 37  1  0  0  0
 13 14  1  0  0  0
 13 38  1  0  0  0
 13 39  1  0  0  0
 14 15  1  0  0  0
 14 40  1  0  0  0
 15 16  1  0  0  0
 15 41  1  0  0  0
 16 17  1  0  0  0
 16 42  1  0  0  0
 16 43  1  0  0  0
 17 18  1  0  0  0
 17 44  1  0  0  0
 17 45  1  0  0  0
 18 25  1  0  0  0
 18 19  1  0  0  0
 19 46  1  0  0  0
 20 47  1  0  0  0
 21 22  1  0  0  0
 21 48  1  0  0  0
 21 49  1  0  0  0
 22 23  1  0  0  0
 22 50  1  0  0  0
 22 51  1  0  0  0
 23 24  1  0  0  0
 23 52  1  0  0  0
 23 53  1  0  0  0
 24 54  1  0  0  0
M  END
> <s_m_entry_id>
17679

> <s_m_entry_name>
ligand_docking-pose.606

> <s_m_Source_Path>
/home/csk/Desktop/cluster/DUD-E-result/esr1

> <s_m_Source_File>
ligand_docking-pose.sdf

> <i_m_Source_File_Index>
606

> <i_lp_mmshare_version>
53161

> <i_f3d_flags>
0

> <r_lp_tautomer_probability>
0.999999999997365

> <s_lp_Force_Field>
OPLS_2005

> <r_lp_Energy>
50.372331

> <b_lp_Chiralities_Consistent>
1

> <s_lp_Variant>
88892-2

> <s_i_glide_gridfile>
glide-grid_1sj0

> <i_i_glide_lignum>
724

> <i_i_glide_rotatable_bonds>
6

> <r_i_docking_score>
-7.20040264100822

> <r_i_glide_ligand_efficiency>
-0.300016776708676

> <r_i_glide_ligand_efficiency_sa>
-0.865398133669442

> <r_i_glide_ligand_efficiency_ln>
-1.72338675694099

> <r_i_glide_gscore>
-7.20040264100822

> <r_i_glide_lipo>
-4.73391735151439

> <r_i_glide_hbond>
0

> <r_i_glide_metal>
0

> <r_i_glide_rewards>
-1.98049899798725

> <r_i_glide_evdw>
-17.989782333374

> <r_i_glide_ecoul>
-0.687938511371613

> <r_i_glide_erotb>
0.516693601867868

> <r_i_glide_esite>
0

> <r_i_glide_emodel>
-19.3432019177224

> <r_i_glide_energy>
-18.6777208447456

> <r_i_glide_einternal>
3.13153672218323

> <i_i_glide_confnum>
27

> <i_i_glide_posenum>
377

> <r_i_glide_eff_state_penalty>
0

> <s_user_duplicate_titles>
88892

> <s_m_subgroup_title>
dock_pv

> <s_m_subgroupid>
dock_pv1

> <b_m_subgroup_collapsed>
0

$$$$
301011
                    3D
 Schrodinger Suite 2021-1.
 40 42  0  0  1  0            999 V2000
   29.4669   -2.1906   27.0748 C   0  0  0  0  0  0
   30.3771   -1.2738   27.8616 C   0  0  0  0  0  0
   30.8598   -1.6134   29.0651 C   0  0  0  0  0  0
   31.7694   -0.7604   29.9347 C   0  0  0  0  0  0
   31.9405    0.7074   29.3983 C   0  0  2  0  0  0
   30.7875    1.0838   28.4186 C   0  0  0  0  0  0
   30.7651    0.0621   27.2555 C   0  0  1  0  0  0
   32.1467   -0.0277   26.5375 C   0  0  1  0  0  0
   33.2389   -0.0863   27.4635 O   0  0  0  0  0  0
   33.2389    0.8160   28.5546 C   0  0  0  0  0  0
   32.2664   -1.1860   25.5328 C   0  0  0  0  0  0
   31.7939   -1.0313   24.2248 C   0  0  0  0  0  0
   32.0172   -2.0159   23.2615 C   0  0  0  0  0  0
   32.7137   -3.1682   23.5936 C   0  0  0  0  0  0
   33.1441   -3.3492   24.8988 C   0  0  0  0  0  0
   32.8671   -2.4089   25.8796 C   0  0  0  0  0  0
   33.2005   -2.7365   27.1660 O   0  0  0  0  0  0
   32.9455   -4.1418   22.6622 O   0  0  0  0  0  0
   32.0298    1.7256   30.5574 C   0  0  0  0  0  0
   31.2575    1.4580   31.7046 O   0  0  0  0  0  0
   30.0040    0.3650   26.5348 H   0  0  0  0  0  0
   32.2965    0.8942   25.9747 H   0  0  0  0  0  0
   30.0599   -2.6022   26.2640 H   0  0  0  0  0  0
   29.1052   -3.0286   27.6724 H   0  0  0  0  0  0
   28.6078   -1.6561   26.6685 H   0  0  0  0  0  0
   30.5373   -2.5420   29.4640 H   0  0  0  0  0  0
   32.7259   -1.2425   30.1422 H   0  0  0  0  0  0
   31.2240   -0.7821   30.8748 H   0  0  0  0  0  0
   29.8290    1.1005   28.9424 H   0  0  0  0  0  0
   30.9219    2.0901   28.0187 H   0  0  0  0  0  0
   33.4051    1.8343   28.1970 H   0  0  0  0  0  0
   34.1091    0.5739   29.1668 H   0  0  0  0  0  0
   31.2661   -0.1420   23.9407 H   0  0  0  0  0  0
   31.6601   -1.8778   22.2550 H   0  0  0  0  0  0
   33.6600   -4.2595   25.1536 H   0  0  0  0  0  0
   33.5824   -3.6118   27.2354 H   0  0  0  0  0  0
   32.4875   -4.0088   21.8278 H   0  0  0  0  0  0
   31.6602    2.6580   30.1656 H   0  0  0  0  0  0
   33.0588    1.8580   30.8951 H   0  0  0  0  0  0
   31.6603    0.7281   32.1789 H   0  0  0  0  0  0
  1  2  1  0  0  0
  1 23  1  0  0  0
  1 24  1  0  0  0
  1 25  1  0  0  0
  2  7  1  0  0  0
  2  3  2  0  0  0
  3  4  1  0  0  0
  3 26  1  0  0  0
  4  5  1  0  0  0
  4 27  1  0  0  0
  4 28  1  0  0  0
  5 10  1  0  0  0
  5  6  1  0  0  0
  5 19  1  0  0  0
  6  7  1  0  0  0
  6 29  1  0  0  0
  6 30  1  0  0  0
  7 21  1  0  0  0
  7  8  1  0  0  0
  8 22  1  0  0  0
  8  9  1  0  0  0
  8 11  1  0  0  0
  9 10  1  0  0  0
 10 31  1  0  0  0
 10 32  1  0  0  0
 11 16  1  0  0  0
 11 12  2  0  0  0
 12 13  1  0  0  0
 12 33  1  0  0  0
 13 14  2  0  0  0
 13 34  1  0  0  0
 14 15  1  0  0  0
 14 18  1  0  0  0
 15 16  2  0  0  0
 15 35  1  0  0  0
 16 17  1  0  0  0
 17 36  1  0  0  0
 18 37  1  0  0  0
 19 20  1  0  0  0
 19 38  1  0  0  0
 19 39  1  0  0  0
 20 40  1  0  0  0
M  END
> <s_m_entry_id>
17680

> <s_m_entry_name>
ligand_docking-pose.607

> <s_m_Source_Path>
/home/csk/Desktop/cluster/DUD-E-result/esr1

> <s_m_Source_File>
ligand_docking-pose.sdf

> <i_m_Source_File_Index>
607

> <i_lp_mmshare_version>
53161

> <i_f3d_flags>
0

> <r_lp_tautomer_probability>
0.999999999898

> <s_lp_Force_Field>
OPLS_2005

> <r_lp_Energy>
27.576557

> <b_lp_Chiralities_Consistent>
1

> <s_lp_Variant>
301011-1

> <s_i_glide_gridfile>
glide-grid_1sj0

> <i_i_glide_lignum>
934

> <i_i_glide_rotatable_bonds>
5

> <r_i_docking_score>
-7.19937995702723

> <r_i_glide_ligand_efficiency>
-0.359968997851361

> <r_i_glide_ligand_efficiency_sa>
-0.977106188220033

> <r_i_glide_ligand_efficiency_ln>
-1.80176735180102

> <r_i_glide_gscore>
-7.19937995702723

> <r_i_glide_lipo>
-4.20198082671178

> <r_i_glide_hbond>
0

> <r_i_glide_metal>
0

> <r_i_glide_rewards>
-2.20842186548482

> <r_i_glide_evdw>
-25.9123592376709

> <r_i_glide_ecoul>
0.23626796901226

> <r_i_glide_erotb>
0.471200501701086

> <r_i_glide_esite>
0

> <r_i_glide_emodel>
-31.5220524369799

> <r_i_glide_energy>
-25.6760912686586

> <r_i_glide_einternal>
9.81751441955566

> <i_i_glide_confnum>
9

> <i_i_glide_posenum>
381

> <r_i_glide_eff_state_penalty>
0

> <s_user_duplicate_titles>
301011

> <s_m_subgroup_title>
dock_pv

> <s_m_subgroupid>
dock_pv1

> <b_m_subgroup_collapsed>
0

$$$$
308573
                    3D
 Schrodinger Suite 2021-1.
 30 32  0  0  1  0            999 V2000
   29.2738    0.8108   26.3893 C   0  0  0  0  0  0
   30.3652    0.0704   27.1419 C   0  0  0  0  0  0
   30.5401    0.3046   28.5117 C   0  0  0  0  0  0
   31.5178   -0.3592   29.2564 C   0  0  0  0  0  0
   32.3588   -1.3039   28.6691 C   0  0  0  0  0  0
   32.2230   -1.5595   27.2983 C   0  0  0  0  0  0
   31.2398   -0.8630   26.5579 C   0  0  0  0  0  0
   31.2825   -1.2266   25.2389 O   0  0  0  0  0  0
   32.2835   -2.1517   25.1178 C   0  0  0  0  0  0
   32.8605   -2.4120   26.3530 C   0  0  0  0  0  0
   32.5619   -2.7035   23.7601 C   0  0  0  0  0  0
   33.7355   -3.4160   23.5168 C   0  0  0  0  0  0
   33.9747   -3.9888   22.2653 C   0  0  0  0  0  0
   33.0344   -3.8804   21.2507 C   0  0  0  0  0  0
   31.8786   -3.1272   21.4630 C   0  0  0  0  0  0
   31.6601   -2.5407   22.7105 C   0  0  0  0  0  0
   30.9700   -2.9521   20.4736 F   0  0  0  0  0  0
   33.2601   -4.5418   20.0727 O   0  0  0  0  0  0
   31.6600   -0.0819   30.5871 O   0  0  0  0  0  0
   29.0982    0.3684   25.4077 H   0  0  0  0  0  0
   28.3343    0.7710   26.9410 H   0  0  0  0  0  0
   29.5419    1.8588   26.2643 H   0  0  0  0  0  0
   29.9068    1.0216   29.0147 H   0  0  0  0  0  0
   33.1062   -1.8249   29.2504 H   0  0  0  0  0  0
   33.6599   -3.1121   26.5324 H   0  0  0  0  0  0
   34.4596   -3.5499   24.3066 H   0  0  0  0  0  0
   34.8601   -4.5749   22.0861 H   0  0  0  0  0  0
   30.7713   -1.9656   22.8819 H   0  0  0  0  0  0
   32.5099   -5.1242   19.8639 H   0  0  0  0  0  0
   32.3836   -0.5683   30.9860 H   0  0  0  0  0  0
  1  2  1  0  0  0
  1 20  1  0  0  0
  1 21  1  0  0  0
  1 22  1  0  0  0
  2  7  1  0  0  0
  2  3  2  0  0  0
  3  4  1  0  0  0
  3 23  1  0  0  0
  4  5  2  0  0  0
  4 19  1  0  0  0
  5  6  1  0  0  0
  5 24  1  0  0  0
  6 10  1  0  0  0
  6  7  2  0  0  0
  7  8  1  0  0  0
  8  9  1  0  0  0
  9 10  2  0  0  0
  9 11  1  0  0  0
 10 25  1  0  0  0
 11 16  1  0  0  0
 11 12  2  0  0  0
 12 13  1  0  0  0
 12 26  1  0  0  0
 13 14  2  0  0  0
 13 27  1  0  0  0
 14 15  1  0  0  0
 14 18  1  0  0  0
 15 16  2  0  0  0
 15 17  1  0  0  0
 16 28  1  0  0  0
 18 29  1  0  0  0
 19 30  1  0  0  0
M  END
> <s_m_entry_id>
17681

> <s_m_entry_name>
ligand_docking-pose.608

> <s_m_Source_Path>
/home/csk/Desktop/cluster/DUD-E-result/esr1

> <s_m_Source_File>
ligand_docking-pose.sdf

> <i_m_Source_File_Index>
608

> <i_lp_mmshare_version>
53161

> <i_f3d_flags>
0

> <r_lp_tautomer_probability>
0.999999999997365

> <s_lp_Force_Field>
OPLS_2005

> <r_lp_Energy>
9.369779

> <b_lp_Chiralities_Consistent>
1

> <s_lp_Variant>
308573-1

> <s_i_glide_gridfile>
glide-grid_1sj0

> <i_i_glide_lignum>
966

> <i_i_glide_rotatable_bonds>
3

> <r_i_docking_score>
-7.19798918095395

> <r_i_glide_ligand_efficiency>
-0.378841535839682

> <r_i_glide_ligand_efficiency_sa>
-1.01090137784678

> <r_i_glide_ligand_efficiency_ln>
-1.8248448560041

> <r_i_glide_gscore>
-7.19798918095395

> <r_i_glide_lipo>
-3.2151266785766

> <r_i_glide_hbond>
-0.16

> <r_i_glide_metal>
0

> <r_i_glide_rewards>
-2.16509840836796

> <r_i_glide_evdw>
-27.0236148834229

> <r_i_glide_ecoul>
-3.40322470664978

> <r_i_glide_erotb>
0.264822960881699

> <r_i_glide_esite>
-0.0609226047224826

> <r_i_glide_emodel>
-42.1018553556681

> <r_i_glide_energy>
-30.4268395900726

> <r_i_glide_einternal>
2.56373119354248

> <i_i_glide_confnum>
1

> <i_i_glide_posenum>
233

> <r_i_glide_eff_state_penalty>
0

> <s_user_duplicate_titles>
308573

> <s_m_subgroup_title>
dock_pv

> <s_m_subgroupid>
dock_pv1

> <b_m_subgroup_collapsed>
0

$$$$
474064
                    3D
 Schrodinger Suite 2021-1.
 28 29  0  0  1  0            999 V2000
   31.5057   -1.7246   23.8337 C   0  0  0  0  0  0
   32.1255   -2.5422   22.8958 C   0  0  0  0  0  0
   33.1919   -3.3428   23.2851 C   0  0  0  0  0  0
   33.6295   -3.3419   24.6073 C   0  0  0  0  0  0
   32.9858   -2.5417   25.5500 C   0  0  0  0  0  0
   31.9224   -1.7172   25.1671 C   0  0  0  0  0  0
   31.2289   -0.8372   26.1412 C   0  0  0  0  0  0
   31.9312    0.0918   26.9101 C   0  0  0  0  0  0
   31.2497    0.9641   27.7564 C   0  0  0  0  0  0
   29.8590    0.9082   27.8645 C   0  0  0  0  0  0
   29.1247   -0.0486   27.1356 C   0  0  0  0  0  0
   29.8389   -0.8998   26.2746 C   0  0  0  0  0  0
   27.6551   -0.1656   27.2389 C   0  0  0  0  0  0
   26.9893   -1.0825   26.6642 N   0  0  0  0  0  0
   25.6103   -0.9435   26.8712 O   0  0  0  0  0  0
   29.2601    1.8225   28.6953 O   0  0  0  0  0  0
   33.8057   -4.1417   22.3613 O   0  0  0  0  0  0
   30.6854   -1.0953   23.5212 H   0  0  0  0  0  0
   31.7802   -2.5443   21.8719 H   0  0  0  0  0  0
   34.4594   -3.9681   24.9000 H   0  0  0  0  0  0
   33.3205   -2.5523   26.5768 H   0  0  0  0  0  0
   33.0064    0.1626   26.8260 H   0  0  0  0  0  0
   31.8048    1.6961   28.3243 H   0  0  0  0  0  0
   29.3107   -1.6340   25.6825 H   0  0  0  0  0  0
   27.1682    0.5979   27.8413 H   0  0  0  0  0  0
   25.2601   -1.6835   26.3552 H   0  0  0  0  0  0
   28.3073    1.7361   28.7412 H   0  0  0  0  0  0
   33.3114   -4.2256   21.5414 H   0  0  0  0  0  0
  1  6  1  0  0  0
  1  2  2  0  0  0
  1 18  1  0  0  0
  2  3  1  0  0  0
  2 19  1  0  0  0
  3  4  2  0  0  0
  3 17  1  0  0  0
  4  5  1  0  0  0
  4 20  1  0  0  0
  5  6  2  0  0  0
  5 21  1  0  0  0
  6  7  1  0  0  0
  7 12  1  0  0  0
  7  8  2  0  0  0
  8  9  1  0  0  0
  8 22  1  0  0  0
  9 10  2  0  0  0
  9 23  1  0  0  0
 10 11  1  0  0  0
 10 16  1  0  0  0
 11 12  2  0  0  0
 11 13  1  0  0  0
 12 24  1  0  0  0
 13 14  2  0  0  0
 13 25  1  0  0  0
 14 15  1  0  0  0
 15 26  1  0  0  0
 16 27  1  0  0  0
 17 28  1  0  0  0
M  END
> <s_m_entry_id>
17682

> <s_m_entry_name>
ligand_docking-pose.609

> <s_m_Source_Path>
/home/csk/Desktop/cluster/DUD-E-result/esr1

> <s_m_Source_File>
ligand_docking-pose.sdf

> <i_m_Source_File_Index>
609

> <i_lp_mmshare_version>
53161

> <i_f3d_flags>
0

> <r_lp_tautomer_probability>
0.999999999997365

> <s_lp_Force_Field>
OPLS_2005

> <r_lp_Energy>
15.319083

> <b_lp_Chiralities_Consistent>
1

> <s_lp_Variant>
474064-1

> <s_i_glide_gridfile>
glide-grid_1sj0

> <i_i_glide_lignum>
342

> <i_i_glide_rotatable_bonds>
5

> <r_i_docking_score>
-7.18595480359168

> <r_i_glide_ligand_efficiency>
-0.422703223740687

> <r_i_glide_ligand_efficiency_sa>
-1.08688901648986

> <r_i_glide_ligand_efficiency_ln>
-1.87465558491135

> <r_i_glide_gscore>
-7.18595480359168

> <r_i_glide_lipo>
-3.27299562532109

> <r_i_glide_hbond>
-0.102932171099229

> <r_i_glide_metal>
0

> <r_i_glide_rewards>
-2.78361522847981

> <r_i_glide_evdw>
-33.2525520324707

> <r_i_glide_ecoul>
-2.05833458900452

> <r_i_glide_erotb>
0.973895090086323

> <r_i_glide_esite>
-0.0289290788036687

> <r_i_glide_emodel>
-46.263247839676

> <r_i_glide_energy>
-35.3108866214752

> <r_i_glide_einternal>
9.03021430969238

> <i_i_glide_confnum>
14

> <i_i_glide_posenum>
326

> <r_i_glide_eff_state_penalty>
0

> <s_user_duplicate_titles>
474064

> <s_m_subgroup_title>
dock_pv

> <s_m_subgroupid>
dock_pv1

> <b_m_subgroup_collapsed>
0

$$$$
386857
                    3D
 Schrodinger Suite 2021-1.
 63 67  0  0  1  0            999 V2000
   34.2101    2.2581   26.7333 C   0  0  0  0  0  0
   35.0028    1.6619   27.6745 C   0  0  0  0  0  0
   34.4238    0.6976   28.4804 C   0  0  0  0  0  0
   33.0775    0.3897   28.4657 C   0  0  0  0  0  0
   32.2724    1.0251   27.5408 C   0  0  0  0  0  0
   32.8762    1.9457   26.6641 C   0  0  0  0  0  0
   30.8330    0.7189   27.5518 C   0  0  0  0  0  0
   29.9807    1.7496   27.8920 C   0  0  0  0  0  0
   28.6118    1.6117   27.8644 C   0  0  0  0  0  0
   28.0581    0.3770   27.5229 C   0  0  0  0  0  0
   26.6755    0.2574   27.3788 C   0  0  0  0  0  0
   26.1249   -0.9477   27.0031 C   0  0  0  0  0  0
   26.9094   -2.0944   26.9130 C   0  0  0  0  0  0
   28.2908   -2.0131   27.0761 C   0  0  0  0  0  0
   28.9013   -0.7555   27.3178 C   0  0  0  0  0  0
   30.3115   -0.5687   27.3456 C   0  0  0  0  0  0
   31.1472   -1.6541   27.2077 O   0  0  0  0  0  0
   31.7380   -1.9582   26.0011 C   0  0  0  0  0  0
   31.3875   -1.3539   24.7856 C   0  0  0  0  0  0
   32.0140   -1.7533   23.6094 C   0  0  0  0  0  0
   32.9856   -2.7525   23.6373 C   0  0  0  0  0  0
   33.3451   -3.3419   24.8447 C   0  0  0  0  0  0
   32.7199   -2.9470   26.0228 C   0  0  0  0  0  0
   33.6245   -3.1422   22.4889 O   0  0  0  0  0  0
   32.8230   -3.8918   21.5773 C   0  0  0  0  0  0
   33.7017   -4.4021   20.4170 C   0  0  0  0  0  0
   33.8754   -3.4473   19.3124 N   0  0  0  0  0  0
   34.5050   -4.1233   18.1674 C   0  0  0  0  0  0
   34.6476   -3.1886   16.9486 C   0  0  0  0  0  0
   35.3800   -1.8853   17.3002 C   0  0  0  0  0  0
   34.7157   -1.2399   18.5242 C   0  0  0  0  0  0
   34.5920   -2.2240   19.7060 C   0  0  0  0  0  0
   24.8096   -0.9419   26.6640 O   0  0  0  0  0  0
   35.3064   -0.2051   29.0637 C   0  0  0  0  0  0
   36.0592   -0.9420   29.4640 N   0  0  0  0  0  0
   34.6224    2.9444   26.0204 H   0  0  0  0  0  0
   36.0661    1.8584   27.6691 H   0  0  0  0  0  0
   32.6684   -0.3856   29.1012 H   0  0  0  0  0  0
   32.4600    2.5024   25.8643 H   0  0  0  0  0  0
   30.4188    2.6580   28.2250 H   0  0  0  0  0  0
   27.9633    2.4395   28.1063 H   0  0  0  0  0  0
   26.0602    1.1387   27.4656 H   0  0  0  0  0  0
   26.4600   -3.0420   26.6589 H   0  0  0  0  0  0
   28.9058   -2.8952   26.9656 H   0  0  0  0  0  0
   30.6268   -0.5889   24.7429 H   0  0  0  0  0  0
   31.7426   -1.3012   22.6716 H   0  0  0  0  0  0
   34.0979   -4.1153   24.8620 H   0  0  0  0  0  0
   32.9905   -3.4155   26.9576 H   0  0  0  0  0  0
   32.3899   -4.7511   22.0942 H   0  0  0  0  0  0
   31.9906   -3.2966   21.1963 H   0  0  0  0  0  0
   34.6830   -4.6656   20.8085 H   0  0  0  0  0  0
   33.2599   -5.3264   20.0376 H   0  0  0  0  0  0
   35.4755   -4.5256   18.4643 H   0  0  0  0  0  0
   33.8906   -4.9803   17.8837 H   0  0  0  0  0  0
   35.1910   -3.7081   16.1591 H   0  0  0  0  0  0
   33.6603   -2.9860   16.5333 H   0  0  0  0  0  0
   35.3678   -1.1999   16.4517 H   0  0  0  0  0  0
   36.4281   -2.0956   17.5179 H   0  0  0  0  0  0
   33.7253   -0.8645   18.2651 H   0  0  0  0  0  0
   35.2898   -0.3667   18.8359 H   0  0  0  0  0  0
   34.0596   -1.7337   20.5195 H   0  0  0  0  0  0
   35.5757   -2.4894   20.0979 H   0  0  0  0  0  0
   24.4657   -0.0453   26.6051 H   0  0  0  0  0  0
  1  6  1  0  0  0
  1  2  2  0  0  0
  1 36  1  0  0  0
  2  3  1  0  0  0
  2 37  1  0  0  0
  3  4  2  0  0  0
  3 34  1  0  0  0
  4  5  1  0  0  0
  4 38  1  0  0  0
  5  6  2  0  0  0
  5  7  1  0  0  0
  6 39  1  0  0  0
  7 16  1  0  0  0
  7  8  2  0  0  0
  8  9  1  0  0  0
  8 40  1  0  0  0
  9 10  2  0  0  0
  9 41  1  0  0  0
 10 15  1  0  0  0
 10 11  1  0  0  0
 11 12  2  0  0  0
 11 42  1  0  0  0
 12 13  1  0  0  0
 12 33  1  0  0  0
 13 14  2  0  0  0
 13 43  1  0  0  0
 14 15  1  0  0  0
 14 44  1  0  0  0
 15 16  2  0  0  0
 16 17  1  0  0  0
 17 18  1  0  0  0
 18 23  1  0  0  0
 18 19  2  0  0  0
 19 20  1  0  0  0
 19 45  1  0  0  0
 20 21  2  0  0  0
 20 46  1  0  0  0
 21 22  1  0  0  0
 21 24  1  0  0  0
 22 23  2  0  0  0
 22 47  1  0  0  0
 23 48  1  0  0  0
 24 25  1  0  0  0
 25 26  1  0  0  0
 25 49  1  0  0  0
 25 50  1  0  0  0
 26 27  1  0  0  0
 26 51  1  0  0  0
 26 52  1  0  0  0
 27 32  1  0  0  0
 27 28  1  0  0  0
 28 29  1  0  0  0
 28 53  1  0  0  0
 28 54  1  0  0  0
 29 30  1  0  0  0
 29 55  1  0  0  0
 29 56  1  0  0  0
 30 31  1  0  0  0
 30 57  1  0  0  0
 30 58  1  0  0  0
 31 32  1  0  0  0
 31 59  1  0  0  0
 31 60  1  0  0  0
 32 61  1  0  0  0
 32 62  1  0  0  0
 33 63  1  0  0  0
 34 35  3  0  0  0
M  END
> <s_m_entry_id>
17683

> <s_m_entry_name>
ligand_docking-pose.610

> <s_m_Source_Path>
/home/csk/Desktop/cluster/DUD-E-result/esr1

> <s_m_Source_File>
ligand_docking-pose.sdf

> <i_m_Source_File_Index>
610

> <i_lp_mmshare_version>
53161

> <i_f3d_flags>
0

> <r_lp_tautomer_probability>
1

> <s_lp_Force_Field>
OPLS_2005

> <r_lp_Energy>
43.837623

> <b_lp_Chiralities_Consistent>
1

> <s_lp_Variant>
386857-1

> <s_i_glide_gridfile>
glide-grid_1sj0

> <i_i_glide_lignum>
306

> <i_i_glide_rotatable_bonds>
8

> <r_i_docking_score>
-7.17897616320511

> <r_i_glide_ligand_efficiency>
-0.205113604663003

> <r_i_glide_ligand_efficiency_sa>
-0.670940201179349

> <r_i_glide_ligand_efficiency_ln>
-1.57594459661506

> <r_i_glide_gscore>
-7.17897616320511

> <r_i_glide_lipo>
-5.82547847048321

> <r_i_glide_hbond>
-0.265324740197402

> <r_i_glide_metal>
0

> <r_i_glide_rewards>
0.421725545260297

> <r_i_glide_evdw>
-32.248161315918

> <r_i_glide_ecoul>
-3.05325627326965

> <r_i_glide_erotb>
0.560498009001551

> <r_i_glide_esite>
0

> <r_i_glide_emodel>
-40.2502655234858

> <r_i_glide_energy>
-35.3014175891876

> <r_i_glide_einternal>
7.70873165130615

> <i_i_glide_confnum>
1

> <i_i_glide_posenum>
1

> <r_i_glide_eff_state_penalty>
0

> <s_user_duplicate_titles>
386857

> <s_m_subgroup_title>
dock_pv

> <s_m_subgroupid>
dock_pv1

> <b_m_subgroup_collapsed>
0

$$$$
313903
                    3D
 Schrodinger Suite 2021-1.
 26 28  0  0  1  0            999 V2000
   30.9193    0.3620   28.2234 C   0  0  0  0  0  0
   30.6958    1.0582   29.4091 C   0  0  0  0  0  0
   31.4909    0.7964   30.5211 C   0  0  0  0  0  0
   32.5125   -0.1430   30.4602 C   0  0  0  0  0  0
   32.7330   -0.8426   29.2786 C   0  0  0  0  0  0
   31.9355   -0.5972   28.1545 C   0  0  0  0  0  0
   32.1857   -1.3525   26.8926 C   0  0  0  0  0  0
   33.0493   -2.3342   26.7305 N   0  0  0  0  0  0
   32.9621   -2.6277   25.4025 C   0  0  0  0  0  0
   33.6600   -3.5454   24.6122 C   0  0  0  0  0  0
   33.2932   -3.6839   23.2671 C   0  0  0  0  0  0
   32.2866   -2.8934   22.7093 C   0  0  0  0  0  0
   31.6482   -1.9107   23.4645 C   0  0  0  0  0  0
   31.9923   -1.8189   24.8100 C   0  0  0  0  0  0
   31.4908   -0.9941   25.7677 O   0  0  0  0  0  0
   31.8950   -3.0928   21.4155 O   0  0  0  0  0  0
   31.2599    1.4580   31.6916 O   0  0  0  0  0  0
   30.2979    0.5655   27.3630 H   0  0  0  0  0  0
   29.9071    1.7939   29.4658 H   0  0  0  0  0  0
   33.1335   -0.3436   31.3205 H   0  0  0  0  0  0
   33.5274   -1.5747   29.2434 H   0  0  0  0  0  0
   34.4472   -4.1420   25.0438 H   0  0  0  0  0  0
   33.7932   -4.4204   22.6539 H   0  0  0  0  0  0
   30.8604   -1.3055   23.0650 H   0  0  0  0  0  0
   32.1495   -3.9497   21.0585 H   0  0  0  0  0  0
   31.8601    1.1929   32.3906 H   0  0  0  0  0  0
  1  6  1  0  0  0
  1  2  2  0  0  0
  1 18  1  0  0  0
  2  3  1  0  0  0
  2 19  1  0  0  0
  3  4  2  0  0  0
  3 17  1  0  0  0
  4  5  1  0  0  0
  4 20  1  0  0  0
  5  6  2  0  0  0
  5 21  1  0  0  0
  6  7  1  0  0  0
  7 15  1  0  0  0
  7  8  2  0  0  0
  8  9  1  0  0  0
  9 14  2  0  0  0
  9 10  1  0  0  0
 10 11  2  0  0  0
 10 22  1  0  0  0
 11 12  1  0  0  0
 11 23  1  0  0  0
 12 13  2  0  0  0
 12 16  1  0  0  0
 13 14  1  0  0  0
 13 24  1  0  0  0
 14 15  1  0  0  0
 16 25  1  0  0  0
 17 26  1  0  0  0
M  END
> <s_m_entry_id>
17684

> <s_m_entry_name>
ligand_docking-pose.611

> <s_m_Source_Path>
/home/csk/Desktop/cluster/DUD-E-result/esr1

> <s_m_Source_File>
ligand_docking-pose.sdf

> <i_m_Source_File_Index>
611

> <i_lp_mmshare_version>
53161

> <i_f3d_flags>
0

> <r_lp_tautomer_probability>
0.999999999997365

> <s_lp_Force_Field>
OPLS_2005

> <r_lp_Energy>
10.439371

> <b_lp_Chiralities_Consistent>
1

> <s_lp_Variant>
313903-1

> <s_i_glide_gridfile>
glide-grid_1sj0

> <i_i_glide_lignum>
386

> <i_i_glide_rotatable_bonds>
3

> <r_i_docking_score>
-7.17316316929456

> <r_i_glide_ligand_efficiency>
-0.421950774664386

> <r_i_glide_ligand_efficiency_sa>
-1.08495425803388

> <r_i_glide_ligand_efficiency_ln>
-1.87131853237892

> <r_i_glide_gscore>
-7.17316316929456

> <r_i_glide_lipo>
-3.62632781830576

> <r_i_glide_hbond>
0

> <r_i_glide_metal>
0

> <r_i_glide_rewards>
-2.32134099457726

> <r_i_glide_evdw>
-27.9218273162842

> <r_i_glide_ecoul>
-1.05955040454865

> <r_i_glide_erotb>
0.32952957008496

> <r_i_glide_esite>
0

> <r_i_glide_emodel>
-42.2068416053319

> <r_i_glide_energy>
-28.9813777208328

> <r_i_glide_einternal>
0.45453342795372

> <i_i_glide_confnum>
2

> <i_i_glide_posenum>
150

> <r_i_glide_eff_state_penalty>
0

> <s_user_duplicate_titles>
313903

> <s_m_subgroup_title>
dock_pv

> <s_m_subgroupid>
dock_pv1

> <b_m_subgroup_collapsed>
0

$$$$
341456
                    3D
 Schrodinger Suite 2021-1.
 28 30  0  0  1  0            999 V2000
   31.5733    0.3650   30.1395 C   0  0  0  0  0  0
   30.8952    0.2612   28.7628 C   0  0  0  0  0  0
   31.3849   -0.5820   27.7391 C   0  0  0  0  0  0
   30.7446   -0.5777   26.4745 C   0  0  0  0  0  0
   29.5859    0.1740   26.2785 C   0  0  0  0  0  0
   29.0872    0.9658   27.2927 C   0  0  0  0  0  0
   29.7537    1.0302   28.5101 C   0  0  0  0  0  0
   29.2600    1.8580   29.4640 O   0  0  0  0  0  0
   27.6396    1.8580   27.0172 Cl  0  0  0  0  0  0
   31.3226   -1.3778   25.3618 C   0  0  0  0  0  0
   30.8807   -1.3420   24.0332 C   0  0  0  0  0  0
   31.4899   -2.1420   23.0628 C   0  0  0  0  0  0
   32.5718   -2.9344   23.3661 C   0  0  0  0  0  0
   33.0445   -2.9172   24.6672 C   0  0  0  0  0  0
   32.4176   -2.1863   25.6681 C   0  0  0  0  0  0
   32.9601   -2.2894   26.9338 O   0  0  0  0  0  0
   32.5514   -1.5120   27.9531 C   0  0  0  0  0  0
   33.1830   -1.6677   28.9971 O   0  0  0  0  0  0
   34.4600   -3.7420   25.0326 Cl  0  0  0  0  0  0
   33.1459   -3.7094   22.3896 O   0  0  0  0  0  0
   32.6298    0.6077   30.0223 H   0  0  0  0  0  0
   31.5055   -0.5855   30.6695 H   0  0  0  0  0  0
   31.1564    1.1346   30.7886 H   0  0  0  0  0  0
   29.0536    0.1620   25.3405 H   0  0  0  0  0  0
   28.4569    2.2958   29.1715 H   0  0  0  0  0  0
   30.0600   -0.7148   23.7301 H   0  0  0  0  0  0
   31.1334   -2.1420   22.0477 H   0  0  0  0  0  0
   32.5520   -3.9300   21.6661 H   0  0  0  0  0  0
  1  2  1  0  0  0
  1 21  1  0  0  0
  1 22  1  0  0  0
  1 23  1  0  0  0
  2  7  2  0  0  0
  2  3  1  0  0  0
  3 17  1  0  0  0
  3  4  2  0  0  0
  4  5  1  0  0  0
  4 10  1  0  0  0
  5  6  2  0  0  0
  5 24  1  0  0  0
  6  7  1  0  0  0
  6  9  1  0  0  0
  7  8  1  0  0  0
  8 25  1  0  0  0
 10 15  2  0  0  0
 10 11  1  0  0  0
 11 12  2  0  0  0
 11 26  1  0  0  0
 12 13  1  0  0  0
 12 27  1  0  0  0
 13 14  2  0  0  0
 13 20  1  0  0  0
 14 15  1  0  0  0
 14 19  1  0  0  0
 15 16  1  0  0  0
 16 17  1  0  0  0
 17 18  2  0  0  0
 20 28  1  0  0  0
M  END
> <s_m_entry_id>
17685

> <s_m_entry_name>
ligand_docking-pose.612

> <s_m_Source_Path>
/home/csk/Desktop/cluster/DUD-E-result/esr1

> <s_m_Source_File>
ligand_docking-pose.sdf

> <i_m_Source_File_Index>
612

> <i_lp_mmshare_version>
53161

> <i_f3d_flags>
0

> <r_lp_tautomer_probability>
1

> <s_lp_Force_Field>
OPLS_2005

> <r_lp_Energy>
25.827609

> <b_lp_Chiralities_Consistent>
1

> <s_lp_Variant>
341456-1

> <s_i_glide_gridfile>
glide-grid_1sj0

> <i_i_glide_lignum>
870

> <i_i_glide_rotatable_bonds>
2

> <r_i_docking_score>
-7.15734644829224

> <r_i_glide_ligand_efficiency>
-0.357867322414612

> <r_i_glide_ligand_efficiency_sa>
-0.971401363395853

> <r_i_glide_ligand_efficiency_ln>
-1.79124775092255

> <r_i_glide_gscore>
-7.15734644829224

> <r_i_glide_lipo>
-4.01472001840241

> <r_i_glide_hbond>
0

> <r_i_glide_metal>
0

> <r_i_glide_rewards>
-1.84199711957994

> <r_i_glide_evdw>
-24.9339332580566

> <r_i_glide_ecoul>
-0.359550982713699

> <r_i_glide_erotb>
0

> <r_i_glide_esite>
0

> <r_i_glide_emodel>
-38.6874822986183

> <r_i_glide_energy>
-25.2934842407703

> <r_i_glide_einternal>
0.267441838979721

> <i_i_glide_confnum>
1

> <i_i_glide_posenum>
11

> <r_i_glide_eff_state_penalty>
0

> <s_user_duplicate_titles>
341456

> <s_m_subgroup_title>
dock_pv

> <s_m_subgroupid>
dock_pv1

> <b_m_subgroup_collapsed>
0

$$$$
42641
                    3D
 Schrodinger Suite 2021-1.
 27 29  0  0  1  0            999 V2000
   34.0704   -3.9152   22.0628 C   0  0  0  0  0  0
   33.8154   -3.3272   23.3039 C   0  0  0  0  0  0
   32.5905   -2.7075   23.5600 C   0  0  0  0  0  0
   31.6600   -2.6481   22.5199 C   0  0  0  0  0  0
   31.8813   -3.2931   21.3061 C   0  0  0  0  0  0
   33.0958   -3.9240   21.0732 C   0  0  0  0  0  0
   30.8933   -3.3420   20.3624 O   0  0  0  0  0  0
   32.2932   -2.1599   24.9236 C   0  0  0  0  0  0
   32.8720   -2.5055   26.1327 C   0  0  0  0  0  0
   32.4390   -1.7102   27.2276 C   0  0  0  0  0  0
   32.8600   -1.7182   28.5682 C   0  0  0  0  0  0
   32.3181   -0.7955   29.4647 C   0  0  0  0  0  0
   31.3519    0.1232   29.0630 C   0  0  0  0  0  0
   30.8875    0.1394   27.7492 C   0  0  0  0  0  0
   31.4402   -0.7742   26.8380 C   0  0  0  0  0  0
   31.0479   -0.9420   25.1375 S   0  0  0  0  0  0
   30.8600    1.0241   29.9711 O   0  0  0  0  0  0
   35.0158   -4.3941   21.8640 H   0  0  0  0  0  0
   34.5746   -3.3420   24.0701 H   0  0  0  0  0  0
   30.7236   -2.1420   22.6640 H   0  0  0  0  0  0
   33.2805   -4.4277   20.1350 H   0  0  0  0  0  0
   30.8789   -4.2267   19.9568 H   0  0  0  0  0  0
   33.6264   -3.2695   26.2297 H   0  0  0  0  0  0
   33.6160   -2.4136   28.9021 H   0  0  0  0  0  0
   32.6596   -0.7896   30.4904 H   0  0  0  0  0  0
   30.1344    0.8458   27.4330 H   0  0  0  0  0  0
   30.2137    1.6292   29.6022 H   0  0  0  0  0  0
  1  6  1  0  0  0
  1  2  2  0  0  0
  1 18  1  0  0  0
  2  3  1  0  0  0
  2 19  1  0  0  0
  3  4  2  0  0  0
  3  8  1  0  0  0
  4  5  1  0  0  0
  4 20  1  0  0  0
  5  6  2  0  0  0
  5  7  1  0  0  0
  6 21  1  0  0  0
  7 22  1  0  0  0
  8 16  1  0  0  0
  8  9  2  0  0  0
  9 10  1  0  0  0
  9 23  1  0  0  0
 10 15  2  0  0  0
 10 11  1  0  0  0
 11 12  2  0  0  0
 11 24  1  0  0  0
 12 13  1  0  0  0
 12 25  1  0  0  0
 13 14  2  0  0  0
 13 17  1  0  0  0
 14 15  1  0  0  0
 14 26  1  0  0  0
 15 16  1  0  0  0
 17 27  1  0  0  0
M  END
> <s_m_entry_id>
17686

> <s_m_entry_name>
ligand_docking-pose.613

> <s_m_Source_Path>
/home/csk/Desktop/cluster/DUD-E-result/esr1

> <s_m_Source_File>
ligand_docking-pose.sdf

> <i_m_Source_File_Index>
613

> <i_lp_mmshare_version>
53161

> <i_f3d_flags>
0

> <r_lp_tautomer_probability>
0.999999999997365

> <s_lp_Force_Field>
OPLS_2005

> <r_lp_Energy>
11.506299

> <b_lp_Chiralities_Consistent>
1

> <s_lp_Variant>
42641-1

> <s_i_glide_gridfile>
glide-grid_1sj0

> <i_i_glide_lignum>
632

> <i_i_glide_rotatable_bonds>
3

> <r_i_docking_score>
-7.14581878190095

> <r_i_glide_ligand_efficiency>
-0.420342281288291

> <r_i_glide_ligand_efficiency_sa>
-1.08081836863114

> <r_i_glide_ligand_efficiency_ln>
-1.86418499063749

> <r_i_glide_gscore>
-7.14581878190095

> <r_i_glide_lipo>
-3.1315277450266

> <r_i_glide_hbond>
-0.16

> <r_i_glide_metal>
0

> <r_i_glide_rewards>
-2.22420635204627

> <r_i_glide_evdw>
-28.4003753662109

> <r_i_glide_ecoul>
-3.36983466148376

> <r_i_glide_erotb>
0.29540928270504

> <r_i_glide_esite>
0

> <r_i_glide_emodel>
-44.0581830240869

> <r_i_glide_energy>
-31.7702100276947

> <r_i_glide_einternal>
1.68282163143158

> <i_i_glide_confnum>
1

> <i_i_glide_posenum>
4

> <r_i_glide_eff_state_penalty>
0

> <s_user_duplicate_titles>
42641

> <s_m_subgroup_title>
dock_pv

> <s_m_subgroupid>
dock_pv1

> <b_m_subgroup_collapsed>
0

$$$$
354120
                    3D
 Schrodinger Suite 2021-1.
 35 38  0  0  1  0            999 V2000
   27.4928   -1.8497   26.5354 C   0  0  0  0  0  0
   28.9819   -1.8937   26.9256 C   0  0  0  0  0  0
   29.9003   -0.7730   26.3316 C   0  0  1  0  0  0
   29.4262    0.6534   26.7341 C   0  0  0  0  0  0
   29.4900    0.8856   28.2597 C   0  0  0  0  0  0
   30.8599    0.5116   28.8550 C   0  0  0  0  0  0
   31.2023    0.9446   29.9546 O   0  0  0  0  0  0
   31.7034   -0.4180   28.0840 C   0  0  0  0  0  0
   31.3122   -0.9708   26.9007 C   0  0  0  0  0  0
   32.0203   -1.8446   25.9306 C   0  0  0  0  0  0
   33.1858   -2.5877   26.0664 C   0  0  0  0  0  0
   33.7637   -3.2681   24.9962 C   0  0  0  0  0  0
   33.1278   -3.2031   23.7737 C   0  0  0  0  0  0
   31.9182   -2.5063   23.5988 C   0  0  0  0  0  0
   31.3582   -1.8106   24.7029 C   0  0  0  0  0  0
   30.1328   -0.9414   24.8135 C   0  0  0  0  0  0
   31.6112   -2.7876   22.2291 C   0  0  0  0  0  0
   32.5327   -3.4881   21.6293 N   0  0  0  0  0  0
   33.4636   -3.7422   22.5508 N   0  0  0  0  0  0
   33.5413   -0.7046   28.7849 Br  0  0  0  0  0  0
   34.2649   -4.3086   22.3128 H   0  0  0  0  0  0
   26.9493   -2.6688   27.0087 H   0  0  0  0  0  0
   27.0140   -0.9233   26.8503 H   0  0  0  0  0  0
   27.3456   -1.9570   25.4640 H   0  0  0  0  0  0
   29.3860   -2.8723   26.6640 H   0  0  0  0  0  0
   29.0347   -1.8748   28.0151 H   0  0  0  0  0  0
   28.4198    0.8473   26.3626 H   0  0  0  0  0  0
   30.0600    1.4049   26.2640 H   0  0  0  0  0  0
   29.2376    1.9087   28.5392 H   0  0  0  0  0  0
   28.7605    0.2321   28.7349 H   0  0  0  0  0  0
   33.6600   -2.6532   27.0259 H   0  0  0  0  0  0
   34.6923   -3.7905   25.0640 H   0  0  0  0  0  0
   29.2603   -1.3420   24.3175 H   0  0  0  0  0  0
   30.3241    0.0103   24.3336 H   0  0  0  0  0  0
   30.7286   -2.5420   21.6683 H   0  0  0  0  0  0
  1  2  1  0  0  0
  1 22  1  0  0  0
  1 23  1  0  0  0
  1 24  1  0  0  0
  2  3  1  0  0  0
  2 25  1  0  0  0
  2 26  1  0  0  0
  3  9  1  0  0  0
  3 16  1  0  0  0
  3  4  1  0  0  0
  4  5  1  0  0  0
  4 27  1  0  0  0
  4 28  1  0  0  0
  5  6  1  0  0  0
  5 29  1  0  0  0
  5 30  1  0  0  0
  6  7  2  0  0  0
  6  8  1  0  0  0
  8  9  2  0  0  0
  8 20  1  0  0  0
  9 10  1  0  0  0
 10 15  1  0  0  0
 10 11  2  0  0  0
 11 12  1  0  0  0
 11 31  1  0  0  0
 12 13  2  0  0  0
 12 32  1  0  0  0
 13 19  1  0  0  0
 13 14  1  0  0  0
 14 15  2  0  0  0
 14 17  1  0  0  0
 15 16  1  0  0  0
 16 33  1  0  0  0
 16 34  1  0  0  0
 17 18  2  0  0  0
 17 35  1  0  0  0
 18 19  1  0  0  0
 19 21  1  0  0  0
M  END
> <s_m_entry_id>
17687

> <s_m_entry_name>
ligand_docking-pose.614

> <s_m_Source_Path>
/home/csk/Desktop/cluster/DUD-E-result/esr1

> <s_m_Source_File>
ligand_docking-pose.sdf

> <i_m_Source_File_Index>
614

> <i_lp_mmshare_version>
53161

> <i_f3d_flags>
0

> <r_lp_tautomer_probability>
1

> <s_lp_Force_Field>
OPLS_2005

> <r_lp_Energy>
38.336581

> <b_lp_Chiralities_Consistent>
1

> <s_lp_Variant>
354120-1

> <s_i_glide_gridfile>
glide-grid_1sj0

> <i_i_glide_lignum>
1068

> <i_i_glide_rotatable_bonds>
1

> <r_i_docking_score>
-7.14496317359944

> <r_i_glide_ligand_efficiency>
-0.357248158679972

> <r_i_glide_ligand_efficiency_sa>
-0.969720694448667

> <r_i_glide_ligand_efficiency_ln>
-1.78814862569468

> <r_i_glide_gscore>
-7.14496317359944

> <r_i_glide_lipo>
-3.7574039737298

> <r_i_glide_hbond>
0

> <r_i_glide_metal>
0

> <r_i_glide_rewards>
-2.25891425961257

> <r_i_glide_evdw>
-24.2570362091064

> <r_i_glide_ecoul>
0.561379134654999

> <r_i_glide_erotb>
0

> <r_i_glide_esite>
0

> <r_i_glide_emodel>
-34.1399452800334

> <r_i_glide_energy>
-23.6956570744514

> <r_i_glide_einternal>
0.422981381416321

> <i_i_glide_confnum>
1

> <i_i_glide_posenum>
78

> <r_i_glide_eff_state_penalty>
0

> <s_user_duplicate_titles>
354120

> <s_m_subgroup_title>
dock_pv

> <s_m_subgroupid>
dock_pv1

> <b_m_subgroup_collapsed>
0

$$$$
313874
                    3D
 Schrodinger Suite 2021-1.
 27 29  0  0  1  0            999 V2000
   30.7144    1.0587   29.4318 C   0  0  0  0  0  0
   30.9425    0.3437   28.2547 C   0  0  0  0  0  0
   31.9297   -0.6509   28.1996 C   0  0  0  0  0  0
   32.6861   -0.9070   29.3582 C   0  0  0  0  0  0
   32.4598   -0.1902   30.5272 C   0  0  0  0  0  0
   31.4759    0.7855   30.5667 C   0  0  0  0  0  0
   31.2594    1.4579   31.7327 O   0  0  0  0  0  0
   33.6601   -1.8641   29.3856 O   0  0  0  0  0  0
   32.1667   -1.3912   26.9162 C   0  0  0  0  0  0
   33.0180   -2.3808   26.7295 N   0  0  0  0  0  0
   32.9487   -2.6294   25.3929 C   0  0  0  0  0  0
   33.6601   -3.5231   24.5846 C   0  0  0  0  0  0
   33.3120   -3.6094   23.2309 C   0  0  0  0  0  0
   32.3143   -2.7972   22.6868 C   0  0  0  0  0  0
   31.6600   -1.8430   23.4647 C   0  0  0  0  0  0
   31.9886   -1.7963   24.8163 C   0  0  0  0  0  0
   31.4875   -0.9940   25.7947 O   0  0  0  0  0  0
   31.9526   -2.9450   21.3783 O   0  0  0  0  0  0
   29.9465    1.8170   29.4555 H   0  0  0  0  0  0
   30.3433    0.5682   27.3838 H   0  0  0  0  0  0
   33.0459   -0.3995   31.4093 H   0  0  0  0  0  0
   30.5704    2.1209   31.6490 H   0  0  0  0  0  0
   33.7410   -2.2968   28.5290 H   0  0  0  0  0  0
   34.4369   -4.1419   25.0043 H   0  0  0  0  0  0
   33.8206   -4.3235   22.5987 H   0  0  0  0  0  0
   30.8894   -1.2147   23.0649 H   0  0  0  0  0  0
   32.2376   -3.7831   21.0002 H   0  0  0  0  0  0
  1  6  1  0  0  0
  1  2  2  0  0  0
  1 19  1  0  0  0
  2  3  1  0  0  0
  2 20  1  0  0  0
  3  4  2  0  0  0
  3  9  1  0  0  0
  4  5  1  0  0  0
  4  8  1  0  0  0
  5  6  2  0  0  0
  5 21  1  0  0  0
  6  7  1  0  0  0
  7 22  1  0  0  0
  8 23  1  0  0  0
  9 17  1  0  0  0
  9 10  2  0  0  0
 10 11  1  0  0  0
 11 16  2  0  0  0
 11 12  1  0  0  0
 12 13  2  0  0  0
 12 24  1  0  0  0
 13 14  1  0  0  0
 13 25  1  0  0  0
 14 15  2  0  0  0
 14 18  1  0  0  0
 15 16  1  0  0  0
 15 26  1  0  0  0
 16 17  1  0  0  0
 18 27  1  0  0  0
M  END
> <s_m_entry_id>
17688

> <s_m_entry_name>
ligand_docking-pose.615

> <s_m_Source_Path>
/home/csk/Desktop/cluster/DUD-E-result/esr1

> <s_m_Source_File>
ligand_docking-pose.sdf

> <i_m_Source_File_Index>
615

> <i_lp_mmshare_version>
53161

> <i_f3d_flags>
0

> <r_lp_tautomer_probability>
0.999999999898

> <s_lp_Force_Field>
OPLS_2005

> <r_lp_Energy>
15.229318

> <b_lp_Chiralities_Consistent>
1

> <s_lp_Variant>
313874-1

> <s_i_glide_gridfile>
glide-grid_1sj0

> <i_i_glide_lignum>
685

> <i_i_glide_rotatable_bonds>
4

> <r_i_docking_score>
-7.13841330998469

> <r_i_glide_ligand_efficiency>
-0.396578517221371

> <r_i_glide_ligand_efficiency_sa>
-1.03932973513468

> <r_i_glide_ligand_efficiency_ln>
-1.83489233271758

> <r_i_glide_gscore>
-7.13841330998469

> <r_i_glide_lipo>
-3.67804436586803

> <r_i_glide_hbond>
0

> <r_i_glide_metal>
0

> <r_i_glide_rewards>
-2.1713496955313

> <r_i_glide_evdw>
-29.1621322631836

> <r_i_glide_ecoul>
-0.829425632953644

> <r_i_glide_erotb>
0.293501209516872

> <r_i_glide_esite>
0

> <r_i_glide_emodel>
-44.8259854281746

> <r_i_glide_energy>
-29.9915578961372

> <r_i_glide_einternal>
0.277862757444382

> <i_i_glide_confnum>
1

> <i_i_glide_posenum>
305

> <r_i_glide_eff_state_penalty>
0

> <s_user_duplicate_titles>
313874

> <s_m_subgroup_title>
dock_pv

> <s_m_subgroupid>
dock_pv1

> <b_m_subgroup_collapsed>
0

$$$$
313294
                    3D
 Schrodinger Suite 2021-1.
 38 40  0  0  1  0            999 V2000
   32.7135    1.1878   31.4489 C   0  0  0  0  0  0
   33.1892    0.7841   30.0448 C   0  0  0  0  0  0
   33.0269   -0.7280   29.7690 C   0  0  0  0  0  0
   33.0747   -1.1310   28.2806 C   0  0  0  0  0  0
   31.8502   -0.7946   27.4311 C   0  0  0  0  0  0
   30.7307   -0.1141   27.9495 C   0  0  0  0  0  0
   29.6173    0.2053   27.1663 C   0  0  0  0  0  0
   29.5548   -0.1444   25.8198 C   0  0  0  0  0  0
   30.6452   -0.8353   25.2753 C   0  0  0  0  0  0
   31.7536   -1.1503   26.0758 C   0  0  0  0  0  0
   32.6405   -1.8406   25.2938 O   0  0  0  0  0  0
   32.0153   -1.9026   24.0744 C   0  0  0  0  0  0
   30.8553   -1.2933   24.0134 N   0  0  0  0  0  0
   32.6616   -2.6192   22.9361 C   0  0  0  0  0  0
   31.9102   -2.9419   21.7983 C   0  0  0  0  0  0
   32.5162   -3.5404   20.6993 C   0  0  0  0  0  0
   33.8691   -3.8504   20.7424 C   0  0  0  0  0  0
   34.6231   -3.5323   21.8637 C   0  0  0  0  0  0
   34.0176   -2.9420   22.9706 C   0  0  0  0  0  0
   34.4601   -4.4948   19.6910 O   0  0  0  0  0  0
   28.5676    0.8731   27.7327 O   0  0  0  0  0  0
   32.8568    2.2537   31.6267 H   0  0  0  0  0  0
   33.2600    0.6562   32.2247 H   0  0  0  0  0  0
   31.6508    0.9749   31.5812 H   0  0  0  0  0  0
   32.6397    1.3732   29.3108 H   0  0  0  0  0  0
   34.2367    1.0637   29.9166 H   0  0  0  0  0  0
   33.8374   -1.2564   30.2639 H   0  0  0  0  0  0
   32.1116   -1.1116   30.2214 H   0  0  0  0  0  0
   33.9570   -0.6891   27.8169 H   0  0  0  0  0  0
   33.2127   -2.2119   28.2183 H   0  0  0  0  0  0
   30.6997    0.1841   28.9855 H   0  0  0  0  0  0
   28.7012    0.1007   25.2069 H   0  0  0  0  0  0
   30.8553   -2.7207   21.7510 H   0  0  0  0  0  0
   31.9310   -3.7923   19.8276 H   0  0  0  0  0  0
   35.6798   -3.7456   21.8640 H   0  0  0  0  0  0
   34.6025   -2.7136   23.8449 H   0  0  0  0  0  0
   35.2215   -5.0121   19.9742 H   0  0  0  0  0  0
   27.8372    1.0003   27.1255 H   0  0  0  0  0  0
  1  2  1  0  0  0
  1 22  1  0  0  0
  1 23  1  0  0  0
  1 24  1  0  0  0
  2  3  1  0  0  0
  2 25  1  0  0  0
  2 26  1  0  0  0
  3  4  1  0  0  0
  3 27  1  0  0  0
  3 28  1  0  0  0
  4  5  1  0  0  0
  4 29  1  0  0  0
  4 30  1  0  0  0
  5 10  1  0  0  0
  5  6  2  0  0  0
  6  7  1  0  0  0
  6 31  1  0  0  0
  7  8  2  0  0  0
  7 21  1  0  0  0
  8  9  1  0  0  0
  8 32  1  0  0  0
  9 13  1  0  0  0
  9 10  2  0  0  0
 10 11  1  0  0  0
 11 12  1  0  0  0
 12 13  2  0  0  0
 12 14  1  0  0  0
 14 19  1  0  0  0
 14 15  2  0  0  0
 15 16  1  0  0  0
 15 33  1  0  0  0
 16 17  2  0  0  0
 16 34  1  0  0  0
 17 18  1  0  0  0
 17 20  1  0  0  0
 18 19  2  0  0  0
 18 35  1  0  0  0
 19 36  1  0  0  0
 20 37  1  0  0  0
 21 38  1  0  0  0
M  END
> <s_m_entry_id>
17689

> <s_m_entry_name>
ligand_docking-pose.616

> <s_m_Source_Path>
/home/csk/Desktop/cluster/DUD-E-result/esr1

> <s_m_Source_File>
ligand_docking-pose.sdf

> <i_m_Source_File_Index>
616

> <i_lp_mmshare_version>
53161

> <i_f3d_flags>
0

> <r_lp_tautomer_probability>
0.999999999997365

> <s_lp_Force_Field>
OPLS_2005

> <r_lp_Energy>
10.458507

> <b_lp_Chiralities_Consistent>
1

> <s_lp_Variant>
313294-1

> <s_i_glide_gridfile>
glide-grid_1sj0

> <i_i_glide_lignum>
1380

> <i_i_glide_rotatable_bonds>
6

> <r_i_docking_score>
-7.1311249365651

> <r_i_glide_ligand_efficiency>
-0.339577377931671

> <r_i_glide_ligand_efficiency_sa>
-0.936868236777025

> <r_i_glide_ligand_efficiency_ln>
-1.76315623077098

> <r_i_glide_gscore>
-7.1311249365651

> <r_i_glide_lipo>
-3.35138953290543

> <r_i_glide_hbond>
-0.32

> <r_i_glide_metal>
0

> <r_i_glide_rewards>
-2.11642701530332

> <r_i_glide_evdw>
-31.9694881439209

> <r_i_glide_ecoul>
-2.81072211265564

> <r_i_glide_erotb>
0.676774335738039

> <r_i_glide_esite>
0

> <r_i_glide_emodel>
-48.4499065223207

> <r_i_glide_energy>
-34.7802102565765

> <r_i_glide_einternal>
2.1860990524292

> <i_i_glide_confnum>
3

> <i_i_glide_posenum>
353

> <r_i_glide_eff_state_penalty>
0

> <s_user_duplicate_titles>
313294

> <s_m_subgroup_title>
dock_pv

> <s_m_subgroupid>
dock_pv1

> <b_m_subgroup_collapsed>
0

$$$$
322730
                    3D
 Schrodinger Suite 2021-1.
 30 32  0  0  1  0            999 V2000
   33.8862   -3.1017   23.0770 C   0  0  0  0  0  0
   34.2749   -3.7251   21.8894 C   0  0  0  0  0  0
   33.3352   -3.9587   20.8942 C   0  0  0  0  0  0
   32.0373   -3.5037   21.0453 C   0  0  0  0  0  0
   31.6599   -2.8793   22.2216 C   0  0  0  0  0  0
   32.5581   -2.6970   23.2814 C   0  0  0  0  0  0
   32.1103   -2.1004   24.5850 C   0  0  0  0  0  0
   31.0305   -1.2097   24.6457 C   0  0  0  0  0  0
   30.6136   -0.6197   25.8645 C   0  0  0  0  0  0
   29.5016    0.2584   25.9180 C   0  0  0  0  0  0
   29.1895    0.9307   27.0954 C   0  0  0  0  0  0
   29.9441    0.7267   28.2426 C   0  0  0  0  0  0
   30.9821   -0.2027   28.2499 C   0  0  0  0  0  0
   31.3388   -0.9016   27.0608 C   0  0  0  0  0  0
   32.3917   -1.8581   27.0043 C   0  0  0  0  0  0
   32.7457   -2.4380   25.7859 C   0  0  0  0  0  0
   33.2598   -2.3315   28.4260 Cl  0  0  0  0  0  0
   29.6645    1.4561   29.3659 O   0  0  0  0  0  0
   33.6617   -4.6690   19.7738 O   0  0  0  0  0  0
   34.6298   -2.9444   23.8424 H   0  0  0  0  0  0
   35.2897   -4.0654   21.7576 H   0  0  0  0  0  0
   31.3090   -3.6692   20.2639 H   0  0  0  0  0  0
   30.6411   -2.5419   22.2640 H   0  0  0  0  0  0
   30.4959   -0.9384   23.7480 H   0  0  0  0  0  0
   28.9210    0.4466   25.0269 H   0  0  0  0  0  0
   28.3700    1.6351   27.1114 H   0  0  0  0  0  0
   31.5418   -0.3759   29.1567 H   0  0  0  0  0  0
   33.5490   -3.1597   25.7830 H   0  0  0  0  0  0
   30.2702    1.2818   30.0886 H   0  0  0  0  0  0
   32.8959   -5.1697   19.4641 H   0  0  0  0  0  0
  1  6  1  0  0  0
  1  2  2  0  0  0
  1 20  1  0  0  0
  2  3  1  0  0  0
  2 21  1  0  0  0
  3  4  2  0  0  0
  3 19  1  0  0  0
  4  5  1  0  0  0
  4 22  1  0  0  0
  5  6  2  0  0  0
  5 23  1  0  0  0
  6  7  1  0  0  0
  7 16  1  0  0  0
  7  8  2  0  0  0
  8  9  1  0  0  0
  8 24  1  0  0  0
  9 14  2  0  0  0
  9 10  1  0  0  0
 10 11  2  0  0  0
 10 25  1  0  0  0
 11 12  1  0  0  0
 11 26  1  0  0  0
 12 13  2  0  0  0
 12 18  1  0  0  0
 13 14  1  0  0  0
 13 27  1  0  0  0
 14 15  1  0  0  0
 15 16  2  0  0  0
 15 17  1  0  0  0
 16 28  1  0  0  0
 18 29  1  0  0  0
 19 30  1  0  0  0
M  END
> <s_m_entry_id>
17690

> <s_m_entry_name>
ligand_docking-pose.617

> <s_m_Source_Path>
/home/csk/Desktop/cluster/DUD-E-result/esr1

> <s_m_Source_File>
ligand_docking-pose.sdf

> <i_m_Source_File_Index>
617

> <i_lp_mmshare_version>
53161

> <i_f3d_flags>
0

> <r_lp_tautomer_probability>
0.999999999997365

> <s_lp_Force_Field>
OPLS_2005

> <r_lp_Energy>
15.92389

> <b_lp_Chiralities_Consistent>
1

> <s_lp_Variant>
322730-1

> <s_i_glide_gridfile>
glide-grid_1sj0

> <i_i_glide_lignum>
230

> <i_i_glide_rotatable_bonds>
3

> <r_i_docking_score>
-7.12612005827743

> <r_i_glide_ligand_efficiency>
-0.375058950435654

> <r_i_glide_ligand_efficiency_sa>
-1.00080792072815

> <r_i_glide_ligand_efficiency_ln>
-1.80662448979839

> <r_i_glide_gscore>
-7.12612005827743

> <r_i_glide_lipo>
-3.35604630981505

> <r_i_glide_hbond>
-0.123503313657865

> <r_i_glide_metal>
0

> <r_i_glide_rewards>
-2.11488466653288

> <r_i_glide_evdw>
-30.3574924468994

> <r_i_glide_ecoul>
-1.71963095664978

> <r_i_glide_erotb>
0.244133497570801

> <r_i_glide_esite>
0

> <r_i_glide_emodel>
-43.8090647549659

> <r_i_glide_energy>
-32.0771234035492

> <r_i_glide_einternal>
1.1581859588623

> <i_i_glide_confnum>
3

> <i_i_glide_posenum>
223

> <r_i_glide_eff_state_penalty>
0

> <s_user_duplicate_titles>
322730

> <s_m_subgroup_title>
dock_pv

> <s_m_subgroupid>
dock_pv1

> <b_m_subgroup_collapsed>
0

$$$$
307397
                    3D
 Schrodinger Suite 2021-1.
 30 32  0  0  1  0            999 V2000
   27.9751    0.7071   27.0763 C   0  0  0  0  0  0
   29.2371    0.6105   26.6306 C   0  0  0  0  0  0
   30.3403   -0.0543   27.3407 C   0  0  0  0  0  0
   31.1840   -0.9455   26.6594 C   0  0  0  0  0  0
   32.2717   -1.5925   27.2620 C   0  0  0  0  0  0
   32.5671   -1.3322   28.6085 C   0  0  0  0  0  0
   31.7580   -0.4299   29.3041 C   0  0  0  0  0  0
   30.6701    0.2032   28.6860 C   0  0  0  0  0  0
   29.6603    1.4580   29.7132 Br  0  0  0  0  0  0
   32.0599   -0.1545   30.6143 O   0  0  0  0  0  0
   34.0585   -2.1419   29.4640 Br  0  0  0  0  0  0
   32.8860   -2.3981   26.3433 N   0  0  0  0  0  0
   32.2177   -2.1827   25.2287 C   0  0  0  0  0  0
   31.1519   -1.3294   25.3502 O   0  0  0  0  0  0
   32.5196   -2.7607   23.8788 C   0  0  0  0  0  0
   33.6600   -3.5350   23.6579 C   0  0  0  0  0  0
   33.9175   -4.0853   22.3988 C   0  0  0  0  0  0
   33.0146   -3.9213   21.3562 C   0  0  0  0  0  0
   31.8793   -3.1351   21.5560 C   0  0  0  0  0  0
   31.6600   -2.5420   22.8020 C   0  0  0  0  0  0
   30.9893   -2.9421   20.5547 F   0  0  0  0  0  0
   33.2600   -4.5396   20.1564 O   0  0  0  0  0  0
   27.2314    1.2452   26.5150 H   0  0  0  0  0  0
   27.6672    0.2602   28.0103 H   0  0  0  0  0  0
   29.4858    1.0579   25.6821 H   0  0  0  0  0  0
   32.9244   -0.4963   30.8562 H   0  0  0  0  0  0
   34.3551   -3.7150   24.4656 H   0  0  0  0  0  0
   34.8009   -4.6823   22.2345 H   0  0  0  0  0  0
   30.7959   -1.9208   22.9537 H   0  0  0  0  0  0
   32.5212   -5.1149   19.8932 H   0  0  0  0  0  0
  1  2  2  0  0  0
  1 23  1  0  0  0
  1 24  1  0  0  0
  2  3  1  0  0  0
  2 25  1  0  0  0
  3  8  2  0  0  0
  3  4  1  0  0  0
  4 14  1  0  0  0
  4  5  2  0  0  0
  5  6  1  0  0  0
  5 12  1  0  0  0
  6  7  2  0  0  0
  6 11  1  0  0  0
  7  8  1  0  0  0
  7 10  1  0  0  0
  8  9  1  0  0  0
 10 26  1  0  0  0
 12 13  2  0  0  0
 13 14  1  0  0  0
 13 15  1  0  0  0
 15 20  1  0  0  0
 15 16  2  0  0  0
 16 17  1  0  0  0
 16 27  1  0  0  0
 17 18  2  0  0  0
 17 28  1  0  0  0
 18 19  1  0  0  0
 18 22  1  0  0  0
 19 20  2  0  0  0
 19 21  1  0  0  0
 20 29  1  0  0  0
 22 30  1  0  0  0
M  END
> <s_m_entry_id>
17691

> <s_m_entry_name>
ligand_docking-pose.618

> <s_m_Source_Path>
/home/csk/Desktop/cluster/DUD-E-result/esr1

> <s_m_Source_File>
ligand_docking-pose.sdf

> <i_m_Source_File_Index>
618

> <i_lp_mmshare_version>
53161

> <i_f3d_flags>
0

> <r_lp_tautomer_probability>
0.999999999997365

> <s_lp_Force_Field>
OPLS_2005

> <r_lp_Energy>
17.009577

> <b_lp_Chiralities_Consistent>
1

> <s_lp_Variant>
307397-1

> <s_i_glide_gridfile>
glide-grid_1sj0

> <i_i_glide_lignum>
1112

> <i_i_glide_rotatable_bonds>
4

> <r_i_docking_score>
-7.12152423263447

> <r_i_glide_ligand_efficiency>
-0.32370564693793

> <r_i_glide_ligand_efficiency_sa>
-0.907035953340765

> <r_i_glide_ligand_efficiency_ln>
-1.7407602863638

> <r_i_glide_gscore>
-7.12152423263447

> <r_i_glide_lipo>
-3.72157722251474

> <r_i_glide_hbond>
-0.16

> <r_i_glide_metal>
0

> <r_i_glide_rewards>
-1.17935080307613

> <r_i_glide_evdw>
-32.0672912597656

> <r_i_glide_ecoul>
-4.09861898422241

> <r_i_glide_erotb>
0.215882958009044

> <r_i_glide_esite>
-0.0583217544309948

> <r_i_glide_emodel>
-49.8112809851934

> <r_i_glide_energy>
-36.165910243988

> <r_i_glide_einternal>
4.19976043701172

> <i_i_glide_confnum>
3

> <i_i_glide_posenum>
162

> <r_i_glide_eff_state_penalty>
0

> <s_user_duplicate_titles>
307397

> <s_m_subgroup_title>
dock_pv

> <s_m_subgroupid>
dock_pv1

> <b_m_subgroup_collapsed>
0

$$$$
322849
                    3D
 Schrodinger Suite 2021-1.
 30 32  0  0  1  0            999 V2000
   33.8957   -3.0962   23.0526 C   0  0  0  0  0  0
   34.2791   -3.7212   21.8653 C   0  0  0  0  0  0
   33.3334   -3.9632   20.8789 C   0  0  0  0  0  0
   32.0334   -3.5123   21.0377 C   0  0  0  0  0  0
   31.6604   -2.8821   22.2136 C   0  0  0  0  0  0
   32.5677   -2.6940   23.2656 C   0  0  0  0  0  0
   32.1342   -2.0899   24.5711 C   0  0  0  0  0  0
   32.8027   -2.3980   25.7635 C   0  0  0  0  0  0
   32.4608   -1.8020   26.9760 C   0  0  0  0  0  0
   31.3926   -0.8783   27.0440 C   0  0  0  0  0  0
   31.0542   -0.1999   28.2440 C   0  0  0  0  0  0
   30.0005    0.7119   28.2637 C   0  0  0  0  0  0
   29.2259    0.9197   27.1272 C   0  0  0  0  0  0
   29.5260    0.2580   25.9391 C   0  0  0  0  0  0
   30.6417   -0.6129   25.8623 C   0  0  0  0  0  0
   31.0424   -1.2120   24.6413 C   0  0  0  0  0  0
   29.7285    1.4167   29.4058 O   0  0  0  0  0  0
   33.6601   -4.6806   19.7628 O   0  0  0  0  0  0
   34.6458   -2.9418   23.8117 H   0  0  0  0  0  0
   35.2935   -4.0596   21.7277 H   0  0  0  0  0  0
   31.2988   -3.6834   20.2636 H   0  0  0  0  0  0
   30.6425   -2.5426   22.2639 H   0  0  0  0  0  0
   33.6234   -3.0995   25.7596 H   0  0  0  0  0  0
   33.0224   -2.0331   27.8701 H   0  0  0  0  0  0
   31.6368   -0.3721   29.1376 H   0  0  0  0  0  0
   28.3960    1.6106   27.1518 H   0  0  0  0  0  0
   28.9306    0.4402   25.0566 H   0  0  0  0  0  0
   30.4850   -0.9572   23.7535 H   0  0  0  0  0  0
   28.9846    2.0127   29.3018 H   0  0  0  0  0  0
   32.8964   -5.1920   19.4650 H   0  0  0  0  0  0
  1  6  1  0  0  0
  1  2  2  0  0  0
  1 19  1  0  0  0
  2  3  1  0  0  0
  2 20  1  0  0  0
  3  4  2  0  0  0
  3 18  1  0  0  0
  4  5  1  0  0  0
  4 21  1  0  0  0
  5  6  2  0  0  0
  5 22  1  0  0  0
  6  7  1  0  0  0
  7 16  1  0  0  0
  7  8  2  0  0  0
  8  9  1  0  0  0
  8 23  1  0  0  0
  9 10  2  0  0  0
  9 24  1  0  0  0
 10 15  1  0  0  0
 10 11  1  0  0  0
 11 12  2  0  0  0
 11 25  1  0  0  0
 12 13  1  0  0  0
 12 17  1  0  0  0
 13 14  2  0  0  0
 13 26  1  0  0  0
 14 15  1  0  0  0
 14 27  1  0  0  0
 15 16  2  0  0  0
 16 28  1  0  0  0
 17 29  1  0  0  0
 18 30  1  0  0  0
M  END
> <s_m_entry_id>
17692

> <s_m_entry_name>
ligand_docking-pose.619

> <s_m_Source_Path>
/home/csk/Desktop/cluster/DUD-E-result/esr1

> <s_m_Source_File>
ligand_docking-pose.sdf

> <i_m_Source_File_Index>
619

> <i_lp_mmshare_version>
53161

> <i_f3d_flags>
0

> <r_lp_tautomer_probability>
0.999999999997365

> <s_lp_Force_Field>
OPLS_2005

> <r_lp_Energy>
15.295352

> <b_lp_Chiralities_Consistent>
1

> <s_lp_Variant>
322849-1

> <s_i_glide_gridfile>
glide-grid_1sj0

> <i_i_glide_lignum>
309

> <i_i_glide_rotatable_bonds>
3

> <r_i_docking_score>
-7.12112836634442

> <r_i_glide_ligand_efficiency>
-0.39561824257469

> <r_i_glide_ligand_efficiency_sa>
-1.03681310362074

> <r_i_glide_ligand_efficiency_ln>
-1.83044932708317

> <r_i_glide_gscore>
-7.12112836634442

> <r_i_glide_lipo>
-3.25497505276433

> <r_i_glide_hbond>
-0.128302671614725

> <r_i_glide_metal>
0

> <r_i_glide_rewards>
-2.37727031169306

> <r_i_glide_evdw>
-27.9942226409912

> <r_i_glide_ecoul>
-1.79498493671417

> <r_i_glide_erotb>
0.308378542284384

> <r_i_glide_esite>
0

> <r_i_glide_emodel>
-41.2663598327827

> <r_i_glide_energy>
-29.7892075777054

> <r_i_glide_einternal>
1.0582515001297

> <i_i_glide_confnum>
2

> <i_i_glide_posenum>
83

> <r_i_glide_eff_state_penalty>
0

> <s_user_duplicate_titles>
322849

> <s_m_subgroup_title>
dock_pv

> <s_m_subgroupid>
dock_pv1

> <b_m_subgroup_collapsed>
0

$$$$
313422
                    3D
 Schrodinger Suite 2021-1.
 27 29  0  0  1  0            999 V2000
   30.7146    1.0934   29.3225 C   0  0  0  0  0  0
   30.9327    0.4047   28.1308 C   0  0  0  0  0  0
   31.9177   -0.5917   28.0417 C   0  0  0  0  0  0
   32.6836   -0.8766   29.1887 C   0  0  0  0  0  0
   32.4631   -0.1823   30.3780 C   0  0  0  0  0  0
   31.4805    0.7963   30.4438 C   0  0  0  0  0  0
   31.2610    1.4566   31.6159 O   0  0  0  0  0  0
   33.6598   -1.8355   29.1956 O   0  0  0  0  0  0
   32.1040   -1.2858   26.7208 C   0  0  0  0  0  0
   31.3876   -1.0921   25.6291 N   0  0  0  0  0  0
   31.9719   -1.9100   24.7072 C   0  0  0  0  0  0
   31.6599   -2.1638   23.3716 C   0  0  0  0  0  0
   32.4127   -3.0924   22.6575 C   0  0  0  0  0  0
   33.4925   -3.7419   23.2539 C   0  0  0  0  0  0
   33.8302   -3.5008   24.5904 C   0  0  0  0  0  0
   33.0389   -2.5893   25.2895 C   0  0  0  0  0  0
   33.1181   -2.1978   26.5871 O   0  0  0  0  0  0
   32.0469   -3.3762   21.3700 O   0  0  0  0  0  0
   29.9485    1.8533   29.3761 H   0  0  0  0  0  0
   30.3240    0.6545   27.2727 H   0  0  0  0  0  0
   33.0538   -0.4106   31.2515 H   0  0  0  0  0  0
   31.8482    1.1774   32.3178 H   0  0  0  0  0  0
   34.1475   -1.8813   30.0218 H   0  0  0  0  0  0
   30.7830   -1.7419   22.9316 H   0  0  0  0  0  0
   34.0593   -4.4609   22.6815 H   0  0  0  0  0  0
   34.6469   -4.0185   25.0640 H   0  0  0  0  0  0
   32.1950   -4.2896   21.0987 H   0  0  0  0  0  0
  1  6  1  0  0  0
  1  2  2  0  0  0
  1 19  1  0  0  0
  2  3  1  0  0  0
  2 20  1  0  0  0
  3  4  2  0  0  0
  3  9  1  0  0  0
  4  5  1  0  0  0
  4  8  1  0  0  0
  5  6  2  0  0  0
  5 21  1  0  0  0
  6  7  1  0  0  0
  7 22  1  0  0  0
  8 23  1  0  0  0
  9 17  1  0  0  0
  9 10  2  0  0  0
 10 11  1  0  0  0
 11 16  2  0  0  0
 11 12  1  0  0  0
 12 13  2  0  0  0
 12 24  1  0  0  0
 13 14  1  0  0  0
 13 18  1  0  0  0
 14 15  2  0  0  0
 14 25  1  0  0  0
 15 16  1  0  0  0
 15 26  1  0  0  0
 16 17  1  0  0  0
 18 27  1  0  0  0
M  END
> <s_m_entry_id>
17693

> <s_m_entry_name>
ligand_docking-pose.620

> <s_m_Source_Path>
/home/csk/Desktop/cluster/DUD-E-result/esr1

> <s_m_Source_File>
ligand_docking-pose.sdf

> <i_m_Source_File_Index>
620

> <i_lp_mmshare_version>
53161

> <i_f3d_flags>
0

> <r_lp_tautomer_probability>
0.999999999898

> <s_lp_Force_Field>
OPLS_2005

> <r_lp_Energy>
15.3352

> <b_lp_Chiralities_Consistent>
1

> <s_lp_Variant>
313422-1

> <s_i_glide_gridfile>
glide-grid_1sj0

> <i_i_glide_lignum>
684

> <i_i_glide_rotatable_bonds>
4

> <r_i_docking_score>
-7.11149345810586

> <r_i_glide_ligand_efficiency>
-0.39508296989477

> <r_i_glide_ligand_efficiency_sa>
-1.03541029235264

> <r_i_glide_ligand_efficiency_ln>
-1.82797272360203

> <r_i_glide_gscore>
-7.11149345810586

> <r_i_glide_lipo>
-3.54713562965574

> <r_i_glide_hbond>
0

> <r_i_glide_metal>
0

> <r_i_glide_rewards>
-2.12580777272727

> <r_i_glide_evdw>
-28.8415222167969

> <r_i_glide_ecoul>
-1.93316769599915

> <r_i_glide_erotb>
0.293501209516872

> <r_i_glide_esite>
0

> <r_i_glide_emodel>
-44.289335650485

> <r_i_glide_energy>
-30.774689912796

> <r_i_glide_einternal>
2.58901643753052

> <i_i_glide_confnum>
3

> <i_i_glide_posenum>
313

> <r_i_glide_eff_state_penalty>
0

> <s_user_duplicate_titles>
313422

> <s_m_subgroup_title>
dock_pv

> <s_m_subgroupid>
dock_pv1

> <b_m_subgroup_collapsed>
0

$$$$
379602
                    3D
 Schrodinger Suite 2021-1.
 71 73  0  0  1  0            999 V2000
   36.7371   -2.6847   20.4602 C   0  0  0  0  0  0
   35.9985   -2.2736   19.1781 C   0  0  0  0  0  0
   34.4729   -2.4219   19.3039 C   0  0  0  0  0  0
   33.7269   -2.2463   17.9649 C   0  0  0  0  0  0
   32.1892   -2.2287   18.0898 C   0  0  0  0  0  0
   31.5586   -3.5228   18.6663 C   0  0  0  0  0  0
   30.6123   -3.2949   19.8678 C   0  0  0  0  0  0
   31.3013   -2.9420   21.2012 C   0  0  0  0  0  0
   32.0766   -4.0265   21.9744 C   0  0  0  0  0  0
   32.8064   -3.4482   23.2217 C   0  0  0  0  0  0
   31.8590   -2.8952   24.3136 C   0  0  0  0  0  0
   32.5174   -2.2047   25.5130 C   0  0  0  0  0  0
   31.5376   -1.9593   26.5653 N   0  0  0  0  0  0
   31.1680   -0.7511   27.1271 C   0  0  0  0  0  0
   32.1443   -0.1578   28.0668 C   0  0  0  0  0  0
   33.4824   -0.5537   28.1959 C   0  0  0  0  0  0
   34.3161    0.0589   29.1269 C   0  0  0  0  0  0
   33.8093    1.0579   29.9536 C   0  0  0  0  0  0
   32.4788    1.4576   29.8479 C   0  0  0  0  0  0
   31.6646    0.8710   28.8894 C   0  0  0  0  0  0
   30.3787    1.3668   28.7954 O   0  0  0  0  0  0
   29.5182    0.9607   27.8063 C   0  0  0  0  0  0
   28.4939    1.6330   27.7148 O   0  0  0  0  0  0
   29.9127   -0.2401   27.0230 C   0  0  0  0  0  0
   28.7710   -0.8756   26.2251 C   0  0  0  0  0  0
   27.9233   -1.8339   27.0638 C   0  0  0  0  0  0
   28.4998   -3.0480   27.4642 C   0  0  0  0  0  0
   27.7696   -4.0002   28.1639 C   0  0  0  0  0  0
   26.4534   -3.7418   28.4961 C   0  0  0  0  0  0
   25.8852   -2.5403   28.1427 C   0  0  0  0  0  0
   26.5845   -1.5822   27.4186 C   0  0  0  0  0  0
   25.8150   -0.3282   27.0624 C   0  0  0  0  0  0
   37.8107   -2.5221   20.3645 H   0  0  0  0  0  0
   36.5767   -3.7411   20.6704 H   0  0  0  0  0  0
   36.3888   -2.1255   21.3264 H   0  0  0  0  0  0
   36.2463   -1.2408   18.9283 H   0  0  0  0  0  0
   36.3620   -2.8846   18.3505 H   0  0  0  0  0  0
   34.2494   -3.4061   19.7161 H   0  0  0  0  0  0
   34.1046   -1.6994   20.0327 H   0  0  0  0  0  0
   34.0445   -1.3114   17.4992 H   0  0  0  0  0  0
   34.0248   -3.0395   17.2772 H   0  0  0  0  0  0
   31.8890   -1.3526   18.6635 H   0  0  0  0  0  0
   31.7629   -2.0500   17.1019 H   0  0  0  0  0  0
   30.9895   -4.0133   17.8760 H   0  0  0  0  0  0
   32.3247   -4.2481   18.9332 H   0  0  0  0  0  0
   29.9287   -2.4865   19.6065 H   0  0  0  0  0  0
   29.9517   -4.1420   20.0202 H   0  0  0  0  0  0
   32.0040   -2.1419   21.0102 H   0  0  0  0  0  0
   30.5282   -2.5422   21.8525 H   0  0  0  0  0  0
   31.4035   -4.8349   22.2639 H   0  0  0  0  0  0
   32.8123   -4.4866   21.3147 H   0  0  0  0  0  0
   33.4360   -4.2273   23.6541 H   0  0  0  0  0  0
   33.4924   -2.6616   22.9041 H   0  0  0  0  0  0
   31.1547   -2.1834   23.8871 H   0  0  0  0  0  0
   31.2660   -3.7205   24.7035 H   0  0  0  0  0  0
   33.3051   -2.8471   25.9081 H   0  0  0  0  0  0
   33.0160   -1.2869   25.1996 H   0  0  0  0  0  0
   30.7978   -2.6401   26.4861 H   0  0  0  0  0  0
   33.8864   -1.3406   27.5830 H   0  0  0  0  0  0
   35.3505   -0.2437   29.2131 H   0  0  0  0  0  0
   34.4561    1.5452   30.6641 H   0  0  0  0  0  0
   32.0877    2.2407   30.4815 H   0  0  0  0  0  0
   28.1573   -0.1139   25.7436 H   0  0  0  0  0  0
   29.1905   -1.4294   25.3869 H   0  0  0  0  0  0
   29.5113   -3.2997   27.1999 H   0  0  0  0  0  0
   28.2127   -4.9419   28.4307 H   0  0  0  0  0  0
   25.8514   -4.4639   29.0206 H   0  0  0  0  0  0
   24.8645   -2.3922   28.4098 H   0  0  0  0  0  0
   25.0925   -0.1422   27.8527 H   0  0  0  0  0  0
   26.4304    0.5624   26.9985 H   0  0  0  0  0  0
   25.2586   -0.4716   26.1352 H   0  0  0  0  0  0
  1  2  1  0  0  0
  1 33  1  0  0  0
  1 34  1  0  0  0
  1 35  1  0  0  0
  2  3  1  0  0  0
  2 36  1  0  0  0
  2 37  1  0  0  0
  3  4  1  0  0  0
  3 38  1  0  0  0
  3 39  1  0  0  0
  4  5  1  0  0  0
  4 40  1  0  0  0
  4 41  1  0  0  0
  5  6  1  0  0  0
  5 42  1  0  0  0
  5 43  1  0  0  0
  6  7  1  0  0  0
  6 44  1  0  0  0
  6 45  1  0  0  0
  7  8  1  0  0  0
  7 46  1  0  0  0
  7 47  1  0  0  0
  8  9  1  0  0  0
  8 48  1  0  0  0
  8 49  1  0  0  0
  9 10  1  0  0  0
  9 50  1  0  0  0
  9 51  1  0  0  0
 10 11  1  0  0  0
 10 52  1  0  0  0
 10 53  1  0  0  0
 11 12  1  0  0  0
 11 54  1  0  0  0
 11 55  1  0  0  0
 12 13  1  0  0  0
 12 56  1  0  0  0
 12 57  1  0  0  0
 13 14  1  0  0  0
 13 58  1  0  0  0
 14 24  2  0  0  0
 14 15  1  0  0  0
 15 20  2  0  0  0
 15 16  1  0  0  0
 16 17  2  0  0  0
 16 59  1  0  0  0
 17 18  1  0  0  0
 17 60  1  0  0  0
 18 19  2  0  0  0
 18 61  1  0  0  0
 19 20  1  0  0  0
 19 62  1  0  0  0
 20 21  1  0  0  0
 21 22  1  0  0  0
 22 23  2  0  0  0
 22 24  1  0  0  0
 24 25  1  0  0  0
 25 26  1  0  0  0
 25 63  1  0  0  0
 25 64  1  0  0  0
 26 31  1  0  0  0
 26 27  2  0  0  0
 27 28  1  0  0  0
 27 65  1  0  0  0
 28 29  2  0  0  0
 28 66  1  0  0  0
 29 30  1  0  0  0
 29 67  1  0  0  0
 30 31  2  0  0  0
 30 68  1  0  0  0
 31 32  1  0  0  0
 32 69  1  0  0  0
 32 70  1  0  0  0
 32 71  1  0  0  0
M  END
> <s_m_entry_id>
17694

> <s_m_entry_name>
ligand_docking-pose.621

> <s_m_Source_Path>
/home/csk/Desktop/cluster/DUD-E-result/esr1

> <s_m_Source_File>
ligand_docking-pose.sdf

> <i_m_Source_File_Index>
621

> <i_lp_mmshare_version>
53161

> <i_f3d_flags>
0

> <r_lp_tautomer_probability>
1

> <s_lp_Force_Field>
OPLS_2005

> <r_lp_Energy>
25.361159

> <b_lp_Chiralities_Consistent>
1

> <s_lp_Variant>
379602-1

> <s_i_glide_gridfile>
glide-grid_1sj0

> <i_i_glide_lignum>
1444

> <i_i_glide_rotatable_bonds>
14

> <r_i_docking_score>
-7.11131050571213

> <r_i_glide_ligand_efficiency>
-0.222228453303504

> <r_i_glide_ligand_efficiency_sa>
-0.705531360287435

> <r_i_glide_ligand_efficiency_ln>
-1.59241626923209

> <r_i_glide_gscore>
-7.11131050571213

> <r_i_glide_lipo>
-4.91418951864516

> <r_i_glide_hbond>
0

> <r_i_glide_metal>
0

> <r_i_glide_rewards>
-1.35255368181818

> <r_i_glide_evdw>
-44.0214538574219

> <r_i_glide_ecoul>
-0.132915079593658

> <r_i_glide_erotb>
1.37644264956135

> <r_i_glide_esite>
0

> <r_i_glide_emodel>
-56.5637356079515

> <r_i_glide_energy>
-44.1543689370155

> <r_i_glide_einternal>
10.8846635818481

> <i_i_glide_confnum>
2

> <i_i_glide_posenum>
10

> <r_i_glide_eff_state_penalty>
0

> <s_user_duplicate_titles>
379602

> <s_m_subgroup_title>
dock_pv

> <s_m_subgroupid>
dock_pv1

> <b_m_subgroup_collapsed>
0

$$$$
341731
                    3D
 Schrodinger Suite 2021-1.
 31 33  0  0  1  0            999 V2000
   31.4878    0.7214   29.8821 C   0  0  0  0  0  0
   30.8138    0.5325   28.5147 C   0  0  0  0  0  0
   29.6877    1.3100   28.2036 C   0  0  0  0  0  0
   29.0119    1.1468   27.0031 C   0  0  0  0  0  0
   29.4933    0.2580   26.0568 C   0  0  0  0  0  0
   30.6624   -0.4720   26.2924 C   0  0  0  0  0  0
   31.2996   -0.3920   27.5547 C   0  0  0  0  0  0
   32.4600   -1.3205   27.8293 C   0  0  0  0  0  0
   33.0892   -1.4081   28.8828 O   0  0  0  0  0  0
   32.8600   -2.1832   26.8631 O   0  0  0  0  0  0
   32.3531   -2.1283   25.5768 C   0  0  0  0  0  0
   31.2671   -1.3221   25.2234 C   0  0  0  0  0  0
   30.8603   -1.3243   23.8840 C   0  0  0  0  0  0
   31.4907   -2.1420   22.9438 C   0  0  0  0  0  0
   32.5384   -2.9477   23.2923 C   0  0  0  0  0  0
   32.9703   -2.9358   24.6158 C   0  0  0  0  0  0
   34.0600   -3.8547   25.0145 C   0  0  0  0  0  0
   33.1039   -3.7365   22.3201 O   0  0  0  0  0  0
   29.2191    2.2580   29.0640 O   0  0  0  0  0  0
   31.4290   -0.1991   30.4636 H   0  0  0  0  0  0
   31.0544    1.5168   30.4872 H   0  0  0  0  0  0
   32.5422    0.9672   29.7520 H   0  0  0  0  0  0
   28.1305    1.7305   26.7798 H   0  0  0  0  0  0
   28.9599    0.1832   25.1223 H   0  0  0  0  0  0
   30.0600   -0.6899   23.5452 H   0  0  0  0  0  0
   31.1777   -2.1420   21.9144 H   0  0  0  0  0  0
   34.1104   -4.6256   24.2640 H   0  0  0  0  0  0
   35.0145   -3.3420   25.0640 H   0  0  0  0  0  0
   33.7809   -4.3355   25.9511 H   0  0  0  0  0  0
   32.5715   -3.8170   21.5237 H   0  0  0  0  0  0
   28.4023    2.6580   28.7615 H   0  0  0  0  0  0
  1  2  1  0  0  0
  1 20  1  0  0  0
  1 21  1  0  0  0
  1 22  1  0  0  0
  2  7  1  0  0  0
  2  3  2  0  0  0
  3  4  1  0  0  0
  3 19  1  0  0  0
  4  5  2  0  0  0
  4 23  1  0  0  0
  5  6  1  0  0  0
  5 24  1  0  0  0
  6 12  1  0  0  0
  6  7  2  0  0  0
  7  8  1  0  0  0
  8  9  2  0  0  0
  8 10  1  0  0  0
 10 11  1  0  0  0
 11 16  1  0  0  0
 11 12  2  0  0  0
 12 13  1  0  0  0
 13 14  2  0  0  0
 13 25  1  0  0  0
 14 15  1  0  0  0
 14 26  1  0  0  0
 15 16  2  0  0  0
 15 18  1  0  0  0
 16 17  1  0  0  0
 17 27  1  0  0  0
 17 28  1  0  0  0
 17 29  1  0  0  0
 18 30  1  0  0  0
 19 31  1  0  0  0
M  END
> <s_m_entry_id>
17695

> <s_m_entry_name>
ligand_docking-pose.622

> <s_m_Source_Path>
/home/csk/Desktop/cluster/DUD-E-result/esr1

> <s_m_Source_File>
ligand_docking-pose.sdf

> <i_m_Source_File_Index>
622

> <i_lp_mmshare_version>
53161

> <i_f3d_flags>
0

> <r_lp_tautomer_probability>
1

> <s_lp_Force_Field>
OPLS_2005

> <r_lp_Energy>
22.576261

> <b_lp_Chiralities_Consistent>
1

> <s_lp_Variant>
341731-1

> <s_i_glide_gridfile>
glide-grid_1sj0

> <i_i_glide_lignum>
963

> <i_i_glide_rotatable_bonds>
2

> <r_i_docking_score>
-7.10378887870729

> <r_i_glide_ligand_efficiency>
-0.37388362519512

> <r_i_glide_ligand_efficiency_sa>
-0.997671680921602

> <r_i_glide_ligand_efficiency_ln>
-1.80096305614759

> <r_i_glide_gscore>
-7.10378887870729

> <r_i_glide_lipo>
-3.75441083762243

> <r_i_glide_hbond>
0

> <r_i_glide_metal>
0

> <r_i_glide_rewards>
-2.28909564656206

> <r_i_glide_evdw>
-21.2315082550049

> <r_i_glide_ecoul>
0.00862012151628733

> <r_i_glide_erotb>
0

> <r_i_glide_esite>
0

> <r_i_glide_emodel>
-24.1425227816802

> <r_i_glide_energy>
-21.2228881334886

> <r_i_glide_einternal>
0.186215490102768

> <i_i_glide_confnum>
1

> <i_i_glide_posenum>
126

> <r_i_glide_eff_state_penalty>
0

> <s_user_duplicate_titles>
341731

> <s_m_subgroup_title>
dock_pv

> <s_m_subgroupid>
dock_pv1

> <b_m_subgroup_collapsed>
0

$$$$
301090
                    3D
 Schrodinger Suite 2021-1.
 39 41  0  0  1  0            999 V2000
   29.6095   -2.5419   26.9982 C   0  0  0  0  0  0
   30.3974   -1.5104   27.7612 C   0  0  0  0  0  0
   30.7653   -1.7253   29.0314 C   0  0  0  0  0  0
   31.5227   -0.7567   29.9121 C   0  0  0  0  0  0
   31.7570    0.6306   29.2354 C   0  0  2  0  0  0
   30.6794    0.9070   28.1454 C   0  0  0  0  0  0
   30.7579   -0.2041   27.0687 C   0  0  1  0  0  0
   32.1821   -0.2701   26.4436 C   0  0  1  0  0  0
   33.1758   -0.3399   27.4773 O   0  0  0  0  0  0
   33.1245    0.6488   28.4978 C   0  0  0  0  0  0
   32.4003   -1.4182   25.4451 C   0  0  0  0  0  0
   33.2441   -2.4856   25.7866 C   0  0  0  0  0  0
   33.6600   -3.3907   24.8211 C   0  0  0  0  0  0
   33.1608   -3.3120   23.5320 C   0  0  0  0  0  0
   32.1986   -2.3642   23.2212 C   0  0  0  0  0  0
   31.8309   -1.3939   24.1624 C   0  0  0  0  0  0
   31.6602   -2.3988   21.9874 F   0  0  0  0  0  0
   33.6321   -4.1420   22.5566 O   0  0  0  0  0  0
   31.6913    1.7061   30.3305 C   0  0  0  0  0  0
   32.6034    1.4580   31.3889 O   0  0  0  0  0  0
   30.0253    0.0093   26.2888 H   0  0  0  0  0  0
   32.3649    0.6521   25.8881 H   0  0  0  0  0  0
   30.2832   -2.9788   26.2641 H   0  0  0  0  0  0
   29.2459   -3.3462   27.6379 H   0  0  0  0  0  0
   28.7529   -2.0926   26.4952 H   0  0  0  0  0  0
   30.4600   -2.6416   29.4640 H   0  0  0  0  0  0
   32.4463   -1.1822   30.3049 H   0  0  0  0  0  0
   30.8600   -0.6415   30.7696 H   0  0  0  0  0  0
   29.6804    0.9458   28.5852 H   0  0  0  0  0  0
   30.8364    1.8802   27.6802 H   0  0  0  0  0  0
   33.3420    1.6336   28.0797 H   0  0  0  0  0  0
   33.9375    0.4386   29.1940 H   0  0  0  0  0  0
   33.6589   -2.5591   26.7800 H   0  0  0  0  0  0
   34.3926   -4.1420   25.0640 H   0  0  0  0  0  0
   31.1385   -0.6133   23.8832 H   0  0  0  0  0  0
   33.1264   -4.0742   21.7406 H   0  0  0  0  0  0
   30.6888    1.7604   30.7563 H   0  0  0  0  0  0
   31.8879    2.6580   29.8639 H   0  0  0  0  0  0
   33.4977    1.5880   31.0643 H   0  0  0  0  0  0
  1  2  1  0  0  0
  1 23  1  0  0  0
  1 24  1  0  0  0
  1 25  1  0  0  0
  2  7  1  0  0  0
  2  3  2  0  0  0
  3  4  1  0  0  0
  3 26  1  0  0  0
  4  5  1  0  0  0
  4 27  1  0  0  0
  4 28  1  0  0  0
  5 10  1  0  0  0
  5  6  1  0  0  0
  5 19  1  0  0  0
  6  7  1  0  0  0
  6 29  1  0  0  0
  6 30  1  0  0  0
  7 21  1  0  0  0
  7  8  1  0  0  0
  8 22  1  0  0  0
  8  9  1  0  0  0
  8 11  1  0  0  0
  9 10  1  0  0  0
 10 31  1  0  0  0
 10 32  1  0  0  0
 11 16  1  0  0  0
 11 12  2  0  0  0
 12 13  1  0  0  0
 12 33  1  0  0  0
 13 14  2  0  0  0
 13 34  1  0  0  0
 14 15  1  0  0  0
 14 18  1  0  0  0
 15 16  2  0  0  0
 15 17  1  0  0  0
 16 35  1  0  0  0
 18 36  1  0  0  0
 19 20  1  0  0  0
 19 37  1  0  0  0
 19 38  1  0  0  0
 20 39  1  0  0  0
M  END
> <s_m_entry_id>
17696

> <s_m_entry_name>
ligand_docking-pose.623

> <s_m_Source_Path>
/home/csk/Desktop/cluster/DUD-E-result/esr1

> <s_m_Source_File>
ligand_docking-pose.sdf

> <i_m_Source_File_Index>
623

> <i_lp_mmshare_version>
53161

> <i_f3d_flags>
0

> <r_lp_tautomer_probability>
0.999999999997365

> <s_lp_Force_Field>
OPLS_2005

> <r_lp_Energy>
26.87566

> <b_lp_Chiralities_Consistent>
1

> <s_lp_Variant>
301090-1

> <s_i_glide_gridfile>
glide-grid_1sj0

> <i_i_glide_lignum>
930

> <i_i_glide_rotatable_bonds>
4

> <r_i_docking_score>
-7.08240020324775

> <r_i_glide_ligand_efficiency>
-0.354120010162388

> <r_i_glide_ligand_efficiency_sa>
-0.96122959301369

> <r_i_glide_ligand_efficiency_ln>
-1.77249117768051

> <r_i_glide_gscore>
-7.08240020324775

> <r_i_glide_lipo>
-4.05715194860521

> <r_i_glide_hbond>
0

> <r_i_glide_metal>
0

> <r_i_glide_rewards>
-2.28916823314292

> <r_i_glide_evdw>
-22.2045612335205

> <r_i_glide_ecoul>
-0.608129262924194

> <r_i_glide_erotb>
0.465367429615035

> <r_i_glide_esite>
0

> <r_i_glide_emodel>
-28.5587969216639

> <r_i_glide_energy>
-22.8126904964447

> <r_i_glide_einternal>
0.685050904750824

> <i_i_glide_confnum>
3

> <i_i_glide_posenum>
329

> <r_i_glide_eff_state_penalty>
0

> <s_user_duplicate_titles>
301090

> <s_m_subgroup_title>
dock_pv

> <s_m_subgroupid>
dock_pv1

> <b_m_subgroup_collapsed>
0

$$$$
339068
                    3D
 Schrodinger Suite 2021-1.
 35 36  0  0  1  0            999 V2000
   31.6283   -0.6452   31.0318 C   0  0  0  0  0  0
   31.2328   -1.4211   29.7657 C   0  0  0  0  0  0
   30.7841   -0.5452   28.6866 N   0  0  0  0  0  0
   29.5013   -0.7784   28.1517 C   0  0  0  0  0  0
   28.6511    0.3119   27.9513 C   0  0  0  0  0  0
   27.3623    0.1146   27.4631 C   0  0  0  0  0  0
   26.9309   -1.1698   27.1412 C   0  0  0  0  0  0
   27.7805   -2.2617   27.3018 C   0  0  0  0  0  0
   29.0654   -2.0669   27.8082 C   0  0  0  0  0  0
   25.6596   -1.3420   26.6645 O   0  0  0  0  0  0
   32.0575    0.0814   27.6201 S   0  0  0  0  0  0
   33.3282    0.0422   28.3539 O   0  0  0  0  0  0
   31.5522    1.3401   27.0640 O   0  0  0  0  0  0
   32.1672   -1.1152   26.2938 C   0  0  0  0  0  0
   32.8600   -2.3109   26.4920 C   0  0  0  0  0  0
   33.0147   -3.2030   25.4336 C   0  0  0  0  0  0
   32.4603   -2.9019   24.1922 C   0  0  0  0  0  0
   31.7129   -1.7414   24.0140 C   0  0  0  0  0  0
   31.5597   -0.8485   25.0678 C   0  0  0  0  0  0
   32.6526   -3.7548   23.1414 O   0  0  0  0  0  0
   31.7628   -1.3395   31.8635 H   0  0  0  0  0  0
   32.5627   -0.1000   30.8950 H   0  0  0  0  0  0
   30.8608    0.0730   31.3213 H   0  0  0  0  0  0
   30.4599   -2.1371   30.0376 H   0  0  0  0  0  0
   32.0832   -2.0129   29.4258 H   0  0  0  0  0  0
   28.9809    1.3114   28.1969 H   0  0  0  0  0  0
   26.6981    0.9557   27.3283 H   0  0  0  0  0  0
   27.4486   -3.2560   27.0382 H   0  0  0  0  0  0
   29.7179   -2.9202   27.9263 H   0  0  0  0  0  0
   25.4513   -2.2213   26.2952 H   0  0  0  0  0  0
   33.3084   -2.5299   27.4493 H   0  0  0  0  0  0
   33.5728   -4.1205   25.5650 H   0  0  0  0  0  0
   31.2588   -1.5199   23.0640 H   0  0  0  0  0  0
   30.9901    0.0566   24.9236 H   0  0  0  0  0  0
   32.1838   -3.5088   22.3404 H   0  0  0  0  0  0
  1  2  1  0  0  0
  1 21  1  0  0  0
  1 22  1  0  0  0
  1 23  1  0  0  0
  2  3  1  0  0  0
  2 24  1  0  0  0
  2 25  1  0  0  0
  3  4  1  0  0  0
  3 11  1  0  0  0
  4  9  1  0  0  0
  4  5  2  0  0  0
  5  6  1  0  0  0
  5 26  1  0  0  0
  6  7  2  0  0  0
  6 27  1  0  0  0
  7  8  1  0  0  0
  7 10  1  0  0  0
  8  9  2  0  0  0
  8 28  1  0  0  0
  9 29  1  0  0  0
 10 30  1  0  0  0
 11 12  2  0  0  0
 11 13  2  0  0  0
 11 14  1  0  0  0
 14 19  1  0  0  0
 14 15  2  0  0  0
 15 16  1  0  0  0
 15 31  1  0  0  0
 16 17  2  0  0  0
 16 32  1  0  0  0
 17 18  1  0  0  0
 17 20  1  0  0  0
 18 19  2  0  0  0
 18 33  1  0  0  0
 19 34  1  0  0  0
 20 35  1  0  0  0
M  END
> <s_m_entry_id>
17697

> <s_m_entry_name>
ligand_docking-pose.624

> <s_m_Source_Path>
/home/csk/Desktop/cluster/DUD-E-result/esr1

> <s_m_Source_File>
ligand_docking-pose.sdf

> <i_m_Source_File_Index>
624

> <i_lp_mmshare_version>
53161

> <i_f3d_flags>
0

> <r_lp_tautomer_probability>
0.99999999999473

> <s_lp_Force_Field>
OPLS_2005

> <r_lp_Energy>
10.891741

> <b_lp_Chiralities_Consistent>
1

> <s_lp_Variant>
339068-1

> <s_i_glide_gridfile>
glide-grid_1sj0

> <i_i_glide_lignum>
1624

> <i_i_glide_rotatable_bonds>
6

> <r_i_docking_score>
-7.06945305756097

> <r_i_glide_ligand_efficiency>
-0.353472652878048

> <r_i_glide_ligand_efficiency_sa>
-0.959472394998603

> <r_i_glide_ligand_efficiency_ln>
-1.76925093414056

> <r_i_glide_gscore>
-7.06945305756097

> <r_i_glide_lipo>
-3.56025857406769

> <r_i_glide_hbond>
-0.16

> <r_i_glide_metal>
0

> <r_i_glide_rewards>
-1.515492609699

> <r_i_glide_evdw>
-35.1448783874512

> <r_i_glide_ecoul>
-4.75648975372314

> <r_i_glide_erotb>
0.637015508636745

> <r_i_glide_esite>
0

> <r_i_glide_emodel>
-56.2128264822804

> <r_i_glide_energy>
-39.9013681411743

> <r_i_glide_einternal>
3.12900018692017

> <i_i_glide_confnum>
2

> <i_i_glide_posenum>
262

> <r_i_glide_eff_state_penalty>
0

> <s_user_duplicate_titles>
339068

> <s_m_subgroup_title>
dock_pv

> <s_m_subgroupid>
dock_pv1

> <b_m_subgroup_collapsed>
0

$$$$
338717
                    3D
 Schrodinger Suite 2021-1.
 55 58  0  0  1  0            999 V2000
   34.1451    2.6135   27.0047 C   0  0  0  0  0  0
   33.5171    1.3194   27.4455 C   0  0  0  0  0  0
   32.1941    1.0808   27.4318 C   0  0  0  0  0  0
   31.4709   -0.1769   27.9387 C   0  0  2  0  0  0
   30.1771    0.2785   28.6686 C   0  0  0  0  0  0
   30.4490    1.1805   29.8836 C   0  0  0  0  0  0
   31.3910    0.5041   30.8937 C   0  0  1  0  0  0
   32.6489   -0.1368   30.2714 C   0  0  0  0  0  0
   32.3365   -0.9216   28.9878 C   0  0  0  0  0  0
   32.8601   -2.1420   28.7494 C   0  0  0  0  0  0
   32.7234   -2.9303   27.4549 C   0  0  0  0  0  0
   32.2912   -2.0301   26.3177 C   0  0  2  0  0  0
   31.0876   -1.1363   26.7434 C   0  0  2  0  0  0
   30.4415   -0.3958   25.5386 C   0  0  0  0  0  0
   30.2127   -1.2637   24.2866 C   0  0  0  0  0  0
   31.5094   -2.0507   23.8519 C   0  0  1  0  0  0
   32.0233   -2.8865   25.0431 C   0  0  1  0  0  0
   33.2516   -3.6140   24.4643 C   0  0  0  0  0  0
   32.8534   -3.9802   23.0279 C   0  0  0  0  0  0
   31.6674   -3.0713   22.6512 C   0  0  2  0  0  0
   31.7493   -2.6463   21.3108 O   0  0  0  0  0  0
   32.4600   -0.9424   23.5010 C   0  0  0  0  0  0
   31.7502    1.4581   31.8639 O   0  0  0  0  0  0
   30.8600   -0.2812   31.4273 H   0  0  0  0  0  0
   30.8600   -3.7418   22.5448 H   0  0  0  0  0  0
   34.8598    2.4237   26.2084 H   0  0  0  0  0  0
   33.3962    3.3196   26.6469 H   0  0  0  0  0  0
   34.6704    3.0578   27.8500 H   0  0  0  0  0  0
   34.2048    0.5660   27.8041 H   0  0  0  0  0  0
   31.5470    1.8526   27.0416 H   0  0  0  0  0  0
   29.6229   -0.6030   28.9935 H   0  0  0  0  0  0
   29.5108    0.8088   27.9876 H   0  0  0  0  0  0
   30.8828    2.1213   29.5407 H   0  0  0  0  0  0
   29.5102    1.4581   30.3661 H   0  0  0  0  0  0
   33.3725    0.6432   30.0364 H   0  0  0  0  0  0
   33.1390   -0.7720   31.0095 H   0  0  0  0  0  0
   33.4822   -2.5764   29.5174 H   0  0  0  0  0  0
   33.6600   -3.3908   27.2143 H   0  0  0  0  0  0
   32.0597   -3.7741   27.4639 H   0  0  0  0  0  0
   33.1671   -1.4053   26.1645 H   0  0  0  0  0  0
   30.3297   -1.8436   27.0883 H   0  0  0  0  0  0
   29.5309    0.1283   25.8297 H   0  0  0  0  0  0
   31.1255    0.3774   25.2515 H   0  0  0  0  0  0
   29.2916   -1.7420   24.5402 H   0  0  0  0  0  0
   29.9244   -0.6200   23.4640 H   0  0  0  0  0  0
   31.2599   -3.6284   25.2898 H   0  0  0  0  0  0
   34.1105   -2.9422   24.4490 H   0  0  0  0  0  0
   33.5775   -4.4688   25.0483 H   0  0  0  0  0  0
   33.7134   -3.8427   22.3696 H   0  0  0  0  0  0
   32.5337   -5.0173   22.9597 H   0  0  0  0  0  0
   31.7225   -3.4273   20.7476 H   0  0  0  0  0  0
   33.2600   -1.3104   22.8764 H   0  0  0  0  0  0
   31.9818   -0.1411   22.9736 H   0  0  0  0  0  0
   32.8600   -0.5420   24.4168 H   0  0  0  0  0  0
   32.2346    2.1638   31.4294 H   0  0  0  0  0  0
  1  2  1  0  0  0
  1 26  1  0  0  0
  1 27  1  0  0  0
  1 28  1  0  0  0
  2  3  2  0  0  0
  2 29  1  0  0  0
  3  4  1  0  0  0
  3 30  1  0  0  0
  4  9  1  0  0  0
  4 13  1  0  0  0
  4  5  1  0  0  0
  5  6  1  0  0  0
  5 31  1  0  0  0
  5 32  1  0  0  0
  6  7  1  0  0  0
  6 33  1  0  0  0
  6 34  1  0  0  0
  7 24  1  0  0  0
  7  8  1  0  0  0
  7 23  1  0  0  0
  8  9  1  0  0  0
  8 35  1  0  0  0
  8 36  1  0  0  0
  9 10  2  0  0  0
 10 11  1  0  0  0
 10 37  1  0  0  0
 11 12  1  0  0  0
 11 38  1  0  0  0
 11 39  1  0  0  0
 12 17  1  0  0  0
 12 13  1  0  0  0
 12 40  1  0  0  0
 13 14  1  0  0  0
 13 41  1  0  0  0
 14 15  1  0  0  0
 14 42  1  0  0  0
 14 43  1  0  0  0
 15 16  1  0  0  0
 15 44  1  0  0  0
 15 45  1  0  0  0
 16 20  1  0  0  0
 16 17  1  0  0  0
 16 22  1  0  0  0
 17 18  1  0  0  0
 17 46  1  0  0  0
 18 19  1  0  0  0
 18 47  1  0  0  0
 18 48  1  0  0  0
 19 20  1  0  0  0
 19 49  1  0  0  0
 19 50  1  0  0  0
 20 25  1  0  0  0
 20 21  1  0  0  0
 21 51  1  0  0  0
 22 52  1  0  0  0
 22 53  1  0  0  0
 22 54  1  0  0  0
 23 55  1  0  0  0
M  END
> <s_m_entry_id>
17698

> <s_m_entry_name>
ligand_docking-pose.625

> <s_m_Source_Path>
/home/csk/Desktop/cluster/DUD-E-result/esr1

> <s_m_Source_File>
ligand_docking-pose.sdf

> <i_m_Source_File_Index>
625

> <i_lp_mmshare_version>
53161

> <i_f3d_flags>
0

> <r_lp_tautomer_probability>
1

> <s_lp_Force_Field>
OPLS_2005

> <r_lp_Energy>
49.131808

> <b_lp_Chiralities_Consistent>
1

> <s_lp_Variant>
338717-2

> <s_i_glide_gridfile>
glide-grid_1sj0

> <i_i_glide_lignum>
1197

> <i_i_glide_rotatable_bonds>
3

> <r_i_docking_score>
-7.06098000306198

> <r_i_glide_ligand_efficiency>
-0.306999130567912

> <r_i_glide_ligand_efficiency_sa>
-0.873064689352728

> <r_i_glide_ligand_efficiency_ln>
-1.70740899016722

> <r_i_glide_gscore>
-7.06098000306198

> <r_i_glide_lipo>
-4.74433952189298

> <r_i_glide_hbond>
0

> <r_i_glide_metal>
0

> <r_i_glide_rewards>
-2.0609176670416

> <r_i_glide_evdw>
-5.19674158096313

> <r_i_glide_ecoul>
-1.21176826953888

> <r_i_glide_erotb>
0.185879505351595

> <r_i_glide_esite>
0

> <r_i_glide_emodel>
-45.5738381207385

> <r_i_glide_energy>
-6.40850985050201

> <r_i_glide_einternal>
0.281924366950989

> <i_i_glide_confnum>
1

> <i_i_glide_posenum>
193

> <r_i_glide_eff_state_penalty>
0

> <s_user_duplicate_titles>
338717

> <s_m_subgroup_title>
dock_pv

> <s_m_subgroupid>
dock_pv1

> <b_m_subgroup_collapsed>
0

$$$$
330277
                    3D
 Schrodinger Suite 2021-1.
 29 31  0  0  1  0            999 V2000
   33.7165   -3.3838   23.5105 C   0  0  0  0  0  0
   33.9698   -3.9705   22.2644 C   0  0  0  0  0  0
   33.0406   -3.8840   21.2366 C   0  0  0  0  0  0
   31.8826   -3.1440   21.4312 C   0  0  0  0  0  0
   31.6600   -2.5420   22.6640 C   0  0  0  0  0  0
   32.5313   -2.6763   23.7505 C   0  0  0  0  0  0
   32.1842   -2.0925   25.0942 C   0  0  0  0  0  0
   32.8600   -2.4278   26.2729 C   0  0  0  0  0  0
   32.5222   -1.8092   27.4777 C   0  0  0  0  0  0
   31.4591   -0.8672   27.4972 C   0  0  0  0  0  0
   31.0608   -0.1553   28.6576 C   0  0  0  0  0  0
   30.0061    0.7496   28.5942 C   0  0  0  0  0  0
   29.3001    0.9436   27.4134 C   0  0  0  0  0  0
   29.6616    0.2580   26.2580 C   0  0  0  0  0  0
   30.7641   -0.6288   26.2746 C   0  0  0  0  0  0
   31.1362   -1.2229   25.1116 N   0  0  0  0  0  0
   29.6600    1.4580   29.7063 O   0  0  0  0  0  0
   33.5003   -2.2340   29.0625 Br  0  0  0  0  0  0
   30.9663   -3.0091   20.4436 F   0  0  0  0  0  0
   33.2600   -4.5420   20.0571 O   0  0  0  0  0  0
   34.4536   -3.5045   24.2889 H   0  0  0  0  0  0
   34.8600   -4.5480   22.0963 H   0  0  0  0  0  0
   30.7451   -1.9980   22.7854 H   0  0  0  0  0  0
   33.6600   -3.1492   26.2667 H   0  0  0  0  0  0
   31.5888   -0.3101   29.5862 H   0  0  0  0  0  0
   28.4746    1.6404   27.3893 H   0  0  0  0  0  0
   29.1221    0.4217   25.3357 H   0  0  0  0  0  0
   30.2408    1.2910   30.4512 H   0  0  0  0  0  0
   32.5237   -5.1476   19.8640 H   0  0  0  0  0  0
  1  6  1  0  0  0
  1  2  2  0  0  0
  1 21  1  0  0  0
  2  3  1  0  0  0
  2 22  1  0  0  0
  3  4  2  0  0  0
  3 20  1  0  0  0
  4  5  1  0  0  0
  4 19  1  0  0  0
  5  6  2  0  0  0
  5 23  1  0  0  0
  6  7  1  0  0  0
  7 16  1  0  0  0
  7  8  2  0  0  0
  8  9  1  0  0  0
  8 24  1  0  0  0
  9 10  2  0  0  0
  9 18  1  0  0  0
 10 15  1  0  0  0
 10 11  1  0  0  0
 11 12  2  0  0  0
 11 25  1  0  0  0
 12 13  1  0  0  0
 12 17  1  0  0  0
 13 14  2  0  0  0
 13 26  1  0  0  0
 14 15  1  0  0  0
 14 27  1  0  0  0
 15 16  2  0  0  0
 17 28  1  0  0  0
 20 29  1  0  0  0
M  END
> <s_m_entry_id>
17699

> <s_m_entry_name>
ligand_docking-pose.626

> <s_m_Source_Path>
/home/csk/Desktop/cluster/DUD-E-result/esr1

> <s_m_Source_File>
ligand_docking-pose.sdf

> <i_m_Source_File_Index>
626

> <i_lp_mmshare_version>
53161

> <i_f3d_flags>
0

> <r_lp_tautomer_probability>
0.999999999997365

> <s_lp_Force_Field>
OPLS_2005

> <r_lp_Energy>
12.396239

> <b_lp_Chiralities_Consistent>
1

> <s_lp_Variant>
330277-1

> <s_i_glide_gridfile>
glide-grid_1sj0

> <i_i_glide_lignum>
320

> <i_i_glide_rotatable_bonds>
3

> <r_i_docking_score>
-7.05154957793984

> <r_i_glide_ligand_efficiency>
-0.352577478896992

> <r_i_glide_ligand_efficiency_sa>
-0.957042518976933

> <r_i_glide_ligand_efficiency_ln>
-1.76477028368767

> <r_i_glide_gscore>
-7.05154957793984

> <r_i_glide_lipo>
-3.38719628721008

> <r_i_glide_hbond>
-0.16

> <r_i_glide_metal>
0

> <r_i_glide_rewards>
-1.68119468439191

> <r_i_glide_evdw>
-29.3336162567139

> <r_i_glide_ecoul>
-3.05149221420288

> <r_i_glide_erotb>
0.168891630826974

> <r_i_glide_esite>
-0.0676455921986913

> <r_i_glide_emodel>
-44.8489445488644

> <r_i_glide_energy>
-32.3851084709167

> <r_i_glide_einternal>
1.65444839000702

> <i_i_glide_confnum>
1

> <i_i_glide_posenum>
381

> <r_i_glide_eff_state_penalty>
0

> <s_user_duplicate_titles>
330277

> <s_m_subgroup_title>
dock_pv

> <s_m_subgroupid>
dock_pv1

> <b_m_subgroup_collapsed>
0

$$$$
341864
                    3D
 Schrodinger Suite 2021-1.
 34 36  0  0  1  0            999 V2000
   32.1367    1.6704   29.9955 C   0  0  0  0  0  0
   30.9727    0.6791   29.9298 C   0  0  0  0  0  0
   30.4549    0.4962   28.4921 C   0  0  0  0  0  0
   29.3733    1.2931   28.0859 C   0  0  0  0  0  0
   28.7988    1.1461   26.8341 C   0  0  0  0  0  0
   29.3486    0.2580   25.9286 C   0  0  0  0  0  0
   30.4936   -0.4778   26.2523 C   0  0  0  0  0  0
   31.0331   -0.4077   27.5609 C   0  0  0  0  0  0
   32.2069   -1.3028   27.8935 C   0  0  0  0  0  0
   32.8058   -1.3585   28.9658 O   0  0  0  0  0  0
   32.6721   -2.1634   26.9545 O   0  0  0  0  0  0
   32.2379   -2.1223   25.6414 C   0  0  0  0  0  0
   31.1751   -1.3204   25.2247 C   0  0  0  0  0  0
   30.8600   -1.3204   23.8640 C   0  0  0  0  0  0
   31.5364   -2.1420   22.9600 C   0  0  0  0  0  0
   32.5572   -2.9571   23.3755 C   0  0  0  0  0  0
   32.9176   -2.9265   24.7180 C   0  0  0  0  0  0
   34.0600   -3.7420   25.1831 C   0  0  0  0  0  0
   33.1810   -3.7585   22.4529 O   0  0  0  0  0  0
   28.8600    2.2580   28.9008 O   0  0  0  0  0  0
   32.4371    1.8579   31.0268 H   0  0  0  0  0  0
   31.8445    2.6218   29.5490 H   0  0  0  0  0  0
   33.0110    1.3052   29.4560 H   0  0  0  0  0  0
   31.2318   -0.2720   30.3915 H   0  0  0  0  0  0
   30.1774    1.0580   30.5730 H   0  0  0  0  0  0
   27.9477    1.7436   26.5404 H   0  0  0  0  0  0
   28.8899    0.1960   24.9558 H   0  0  0  0  0  0
   30.0708   -0.6975   23.4773 H   0  0  0  0  0  0
   31.2600   -2.1420   21.9180 H   0  0  0  0  0  0
   34.4362   -4.4131   24.4240 H   0  0  0  0  0  0
   34.8299   -3.0282   25.4640 H   0  0  0  0  0  0
   33.6959   -4.3248   26.0339 H   0  0  0  0  0  0
   32.7050   -3.8338   21.6212 H   0  0  0  0  0  0
   28.0680    2.6580   28.5384 H   0  0  0  0  0  0
  1  2  1  0  0  0
  1 21  1  0  0  0
  1 22  1  0  0  0
  1 23  1  0  0  0
  2  3  1  0  0  0
  2 24  1  0  0  0
  2 25  1  0  0  0
  3  8  1  0  0  0
  3  4  2  0  0  0
  4  5  1  0  0  0
  4 20  1  0  0  0
  5  6  2  0  0  0
  5 26  1  0  0  0
  6  7  1  0  0  0
  6 27  1  0  0  0
  7 13  1  0  0  0
  7  8  2  0  0  0
  8  9  1  0  0  0
  9 10  2  0  0  0
  9 11  1  0  0  0
 11 12  1  0  0  0
 12 17  1  0  0  0
 12 13  2  0  0  0
 13 14  1  0  0  0
 14 15  2  0  0  0
 14 28  1  0  0  0
 15 16  1  0  0  0
 15 29  1  0  0  0
 16 17  2  0  0  0
 16 19  1  0  0  0
 17 18  1  0  0  0
 18 30  1  0  0  0
 18 31  1  0  0  0
 18 32  1  0  0  0
 19 33  1  0  0  0
 20 34  1  0  0  0
M  END
> <s_m_entry_id>
17700

> <s_m_entry_name>
ligand_docking-pose.627

> <s_m_Source_Path>
/home/csk/Desktop/cluster/DUD-E-result/esr1

> <s_m_Source_File>
ligand_docking-pose.sdf

> <i_m_Source_File_Index>
627

> <i_lp_mmshare_version>
53161

> <i_f3d_flags>
0

> <r_lp_tautomer_probability>
1

> <s_lp_Force_Field>
OPLS_2005

> <r_lp_Energy>
23.349359

> <b_lp_Chiralities_Consistent>
1

> <s_lp_Variant>
341864-1

> <s_i_glide_gridfile>
glide-grid_1sj0

> <i_i_glide_lignum>
1150

> <i_i_glide_rotatable_bonds>
3

> <r_i_docking_score>
-7.0411755215403

> <r_i_glide_ligand_efficiency>
-0.352058776077015

> <r_i_glide_ligand_efficiency_sa>
-0.955634542906017

> <r_i_glide_ligand_efficiency_ln>
-1.76217399953014

> <r_i_glide_gscore>
-7.0411755215403

> <r_i_glide_lipo>
-3.97937397428803

> <r_i_glide_hbond>
0

> <r_i_glide_metal>
0

> <r_i_glide_rewards>
-2.06777239634905

> <r_i_glide_evdw>
-20.7935771942139

> <r_i_glide_ecoul>
0.304331392049789

> <r_i_glide_erotb>
0

> <r_i_glide_esite>
0

> <r_i_glide_emodel>
-20.8696022880449

> <r_i_glide_energy>
-20.4892458021641

> <r_i_glide_einternal>
1.08710527420044

> <i_i_glide_confnum>
1

> <i_i_glide_posenum>
3

> <r_i_glide_eff_state_penalty>
0

> <s_user_duplicate_titles>
341864

> <s_m_subgroup_title>
dock_pv

> <s_m_subgroupid>
dock_pv1

> <b_m_subgroup_collapsed>
0

$$$$
120892
                    3D
 Schrodinger Suite 2021-1.
 38 40  0  0  1  0            999 V2000
   28.3978    0.5162   26.2831 C   0  0  0  0  0  0
   29.8582    0.2569   25.8966 C   0  0  0  0  0  0
   30.4386   -1.0365   26.5035 C   0  0  1  0  0  0
   31.9142   -1.2853   26.0344 C   0  0  0  0  0  0
   32.8593   -0.8532   26.7867 N   0  0  0  0  0  0
   32.6095   -0.1652   27.9827 C   0  0  0  0  0  0
   33.6589    0.4824   28.6625 C   0  0  0  0  0  0
   33.4076    1.0579   29.9103 C   0  0  0  0  0  0
   32.1168    1.0883   30.4297 C   0  0  0  0  0  0
   31.0636    0.5255   29.7258 C   0  0  0  0  0  0
   31.3318   -0.1735   28.5527 C   0  0  0  0  0  0
   30.3212   -0.8935   27.9437 O   0  0  0  0  0  0
   31.8792    1.6896   31.6274 O   0  0  0  0  0  0
   35.0507    0.6383   28.0689 C   0  0  0  0  0  0
   32.2076   -2.0513   24.7931 C   0  0  0  0  0  0
   33.3263   -2.8938   24.7719 C   0  0  0  0  0  0
   33.6068   -3.6811   23.6614 C   0  0  0  0  0  0
   32.7684   -3.6935   22.5567 C   0  0  0  0  0  0
   31.6602   -2.8517   22.5412 C   0  0  0  0  0  0
   31.4023   -2.0105   23.6420 C   0  0  0  0  0  0
   30.4504   -2.9424   21.0639 Br  0  0  0  0  0  0
   33.0495   -4.5411   21.5120 O   0  0  0  0  0  0
   28.0553    1.4623   25.8641 H   0  0  0  0  0  0
   27.7451   -0.2802   25.9232 H   0  0  0  0  0  0
   28.2743    0.5849   27.3646 H   0  0  0  0  0  0
   30.4558    1.0875   26.2641 H   0  0  0  0  0  0
   29.9357    0.2578   24.8124 H   0  0  0  0  0  0
   29.8264   -1.8908   26.2135 H   0  0  0  0  0  0
   34.2125    1.5315   30.4533 H   0  0  0  0  0  0
   30.0602    0.6497   30.0980 H   0  0  0  0  0  0
   32.6740    2.0748   32.0005 H   0  0  0  0  0  0
   35.6599    1.3264   28.6531 H   0  0  0  0  0  0
   35.5621   -0.3190   28.0136 H   0  0  0  0  0  0
   34.9852    1.0576   27.0644 H   0  0  0  0  0  0
   33.9890   -2.9514   25.6236 H   0  0  0  0  0  0
   34.4565   -4.3237   23.6770 H   0  0  0  0  0  0
   30.5216   -1.3877   23.6038 H   0  0  0  0  0  0
   32.2802   -4.8368   21.0056 H   0  0  0  0  0  0
  1  2  1  0  0  0
  1 23  1  0  0  0
  1 24  1  0  0  0
  1 25  1  0  0  0
  2  3  1  0  0  0
  2 26  1  0  0  0
  2 27  1  0  0  0
  3 12  1  0  0  0
  3  4  1  0  0  0
  3 28  1  0  0  0
  4  5  2  0  0  0
  4 15  1  0  0  0
  5  6  1  0  0  0
  6 11  2  0  0  0
  6  7  1  0  0  0
  7  8  2  0  0  0
  7 14  1  0  0  0
  8  9  1  0  0  0
  8 29  1  0  0  0
  9 10  2  0  0  0
  9 13  1  0  0  0
 10 11  1  0  0  0
 10 30  1  0  0  0
 11 12  1  0  0  0
 13 31  1  0  0  0
 14 32  1  0  0  0
 14 33  1  0  0  0
 14 34  1  0  0  0
 15 20  1  0  0  0
 15 16  2  0  0  0
 16 17  1  0  0  0
 16 35  1  0  0  0
 17 18  2  0  0  0
 17 36  1  0  0  0
 18 19  1  0  0  0
 18 22  1  0  0  0
 19 20  2  0  0  0
 19 21  1  0  0  0
 20 37  1  0  0  0
 22 38  1  0  0  0
M  END
> <s_m_entry_id>
17701

> <s_m_entry_name>
ligand_docking-pose.628

> <s_m_Source_Path>
/home/csk/Desktop/cluster/DUD-E-result/esr1

> <s_m_Source_File>
ligand_docking-pose.sdf

> <i_m_Source_File_Index>
628

> <i_lp_mmshare_version>
53161

> <i_f3d_flags>
0

> <r_lp_tautomer_probability>
0.999601159137504

> <s_lp_Force_Field>
OPLS_2005

> <r_lp_Energy>
22.004164

> <b_lp_Chiralities_Consistent>
1

> <s_lp_Variant>
120892-2

> <s_i_glide_gridfile>
glide-grid_1sj0

> <i_i_glide_lignum>
1179

> <i_i_glide_rotatable_bonds>
4

> <r_i_docking_score>
-7.03459662649704

> <r_i_glide_ligand_efficiency>
-0.319754392113502

> <r_i_glide_ligand_efficiency_sa>
-0.895964381928682

> <r_i_glide_ligand_efficiency_ln>
-1.71951200866233

> <r_i_glide_gscore>
-7.03459662649704

> <r_i_glide_lipo>
-3.5852609182724

> <r_i_glide_hbond>
-0.132100141817173

> <r_i_glide_metal>
0

> <r_i_glide_rewards>
-1.88700700137002

> <r_i_glide_evdw>
-26.9629554748535

> <r_i_glide_ecoul>
-1.52277493476868

> <r_i_glide_erotb>
0.146335448920522

> <r_i_glide_esite>
0

> <r_i_glide_emodel>
-35.2732339559316

> <r_i_glide_energy>
-28.4857304096222

> <r_i_glide_einternal>
1.27010476589203

> <i_i_glide_confnum>
3

> <i_i_glide_posenum>
132

> <r_i_glide_eff_state_penalty>
0

> <s_user_duplicate_titles>
120892

> <s_m_subgroup_title>
dock_pv

> <s_m_subgroupid>
dock_pv1

> <b_m_subgroup_collapsed>
0

$$$$
313707
                    3D
 Schrodinger Suite 2021-1.
 33 35  0  0  1  0            999 V2000
   34.3674    1.4381   27.8664 C   0  0  0  0  0  0
   34.3617    0.2644   28.5262 C   0  0  0  0  0  0
   33.2470   -0.7771   28.5405 C   0  0  0  0  0  0
   32.0029   -0.4422   27.7250 C   0  0  0  0  0  0
   30.9915    0.3547   28.2809 C   0  0  0  0  0  0
   29.8253    0.6762   27.5765 C   0  0  0  0  0  0
   29.6120    0.2214   26.2732 C   0  0  0  0  0  0
   30.6100   -0.5672   25.6855 C   0  0  0  0  0  0
   31.7677   -0.8873   26.4118 C   0  0  0  0  0  0
   32.5484   -1.6706   25.6144 O   0  0  0  0  0  0
   31.8333   -1.7673   24.4475 C   0  0  0  0  0  0
   30.6820   -1.1218   24.4415 N   0  0  0  0  0  0
   32.4249   -2.5441   23.3082 C   0  0  0  0  0  0
   31.6609   -2.8373   22.1718 C   0  0  0  0  0  0
   32.2333   -3.4749   21.0768 C   0  0  0  0  0  0
   33.5785   -3.8188   21.1047 C   0  0  0  0  0  0
   34.3484   -3.5262   22.2245 C   0  0  0  0  0  0
   33.7647   -2.9384   23.3428 C   0  0  0  0  0  0
   34.1484   -4.4470   20.0314 O   0  0  0  0  0  0
   28.8737    1.4541   28.1745 O   0  0  0  0  0  0
   33.5343    1.7566   27.2584 H   0  0  0  0  0  0
   35.2206    2.0987   27.9296 H   0  0  0  0  0  0
   35.2329    0.0101   29.1141 H   0  0  0  0  0  0
   33.6597   -1.7255   28.1928 H   0  0  0  0  0  0
   32.9586   -0.9423   29.5799 H   0  0  0  0  0  0
   31.1093    0.7382   29.2829 H   0  0  0  0  0  0
   28.7177    0.4707   25.7244 H   0  0  0  0  0  0
   30.6270   -2.5439   22.1042 H   0  0  0  0  0  0
   31.6349   -3.7164   20.2105 H   0  0  0  0  0  0
   35.4011   -3.7419   22.2259 H   0  0  0  0  0  0
   34.3789   -2.7270   24.2038 H   0  0  0  0  0  0
   34.9678   -4.9009   20.2575 H   0  0  0  0  0  0
   28.0897    1.5544   27.6300 H   0  0  0  0  0  0
  1  2  2  0  0  0
  1 21  1  0  0  0
  1 22  1  0  0  0
  2  3  1  0  0  0
  2 23  1  0  0  0
  3  4  1  0  0  0
  3 24  1  0  0  0
  3 25  1  0  0  0
  4  9  1  0  0  0
  4  5  2  0  0  0
  5  6  1  0  0  0
  5 26  1  0  0  0
  6  7  2  0  0  0
  6 20  1  0  0  0
  7  8  1  0  0  0
  7 27  1  0  0  0
  8 12  1  0  0  0
  8  9  2  0  0  0
  9 10  1  0  0  0
 10 11  1  0  0  0
 11 12  2  0  0  0
 11 13  1  0  0  0
 13 18  1  0  0  0
 13 14  2  0  0  0
 14 15  1  0  0  0
 14 28  1  0  0  0
 15 16  2  0  0  0
 15 29  1  0  0  0
 16 17  1  0  0  0
 16 19  1  0  0  0
 17 18  2  0  0  0
 17 30  1  0  0  0
 18 31  1  0  0  0
 19 32  1  0  0  0
 20 33  1  0  0  0
M  END
> <s_m_entry_id>
17702

> <s_m_entry_name>
ligand_docking-pose.629

> <s_m_Source_Path>
/home/csk/Desktop/cluster/DUD-E-result/esr1

> <s_m_Source_File>
ligand_docking-pose.sdf

> <i_m_Source_File_Index>
629

> <i_lp_mmshare_version>
53161

> <i_f3d_flags>
0

> <r_lp_tautomer_probability>
0.999999999997365

> <s_lp_Force_Field>
OPLS_2005

> <r_lp_Energy>
12.014887

> <b_lp_Chiralities_Consistent>
1

> <s_lp_Variant>
313707-1

> <s_i_glide_gridfile>
glide-grid_1sj0

> <i_i_glide_lignum>
1256

> <i_i_glide_rotatable_bonds>
5

> <r_i_docking_score>
-7.00808884664668

> <r_i_glide_ligand_efficiency>
-0.350404442332334

> <r_i_glide_ligand_efficiency_sa>
-0.951143990250211

> <r_i_glide_ligand_efficiency_ln>
-1.75389349607584

> <r_i_glide_gscore>
-7.00808884664668

> <r_i_glide_lipo>
-3.21436142097541

> <r_i_glide_hbond>
-0.32

> <r_i_glide_metal>
0

> <r_i_glide_rewards>
-2.27040059081184

> <r_i_glide_evdw>
-31.7965259552002

> <r_i_glide_ecoul>
-2.41487336158752

> <r_i_glide_erotb>
0.748730467138702

> <r_i_glide_esite>
0

> <r_i_glide_emodel>
-47.6906857297686

> <r_i_glide_energy>
-34.2113993167877

> <r_i_glide_einternal>
1.10855352878571

> <i_i_glide_confnum>
4

> <i_i_glide_posenum>
147

> <r_i_glide_eff_state_penalty>
0

> <s_user_duplicate_titles>
313707

> <s_m_subgroup_title>
dock_pv

> <s_m_subgroupid>
dock_pv1

> <b_m_subgroup_collapsed>
0

$$$$
120893
                    3D
 Schrodinger Suite 2021-1.
 35 37  0  0  1  0            999 V2000
   33.4580    1.8700   26.3423 C   0  0  0  0  0  0
   32.6079    0.9142   27.1743 C   0  0  0  0  0  0
   32.2715    1.2983   28.4785 C   0  0  0  0  0  0
   31.5433    0.4511   29.3136 C   0  0  0  0  0  0
   31.1142   -0.7887   28.8490 C   0  0  0  0  0  0
   31.4352   -1.1711   27.5514 C   0  0  0  0  0  0
   32.1834   -0.3435   26.7008 C   0  0  0  0  0  0
   32.4600   -0.7428   25.3797 N   0  0  0  0  0  0
   32.3569   -1.9696   25.0285 C   0  0  0  0  0  0
   31.8540   -3.0004   26.0757 C   0  0  2  0  0  0
   31.0160   -2.4078   27.0987 O   0  0  0  0  0  0
   33.0548   -3.6980   26.7291 C   0  0  0  0  0  0
   32.6736   -2.4800   23.6872 C   0  0  0  0  0  0
   33.9271   -3.0040   23.3593 C   0  0  0  0  0  0
   34.1272   -3.6302   22.1232 C   0  0  0  0  0  0
   33.0723   -3.7734   21.2242 C   0  0  0  0  0  0
   31.8324   -3.2072   21.5250 C   0  0  0  0  0  0
   31.6603   -2.5420   22.7368 C   0  0  0  0  0  0
   30.3483   -3.3417   20.3330 Br  0  0  0  0  0  0
   33.2703   -4.4744   20.0639 O   0  0  0  0  0  0
   31.2602    0.8389   30.5945 O   0  0  0  0  0  0
   34.5157    1.6685   26.5098 H   0  0  0  0  0  0
   33.2621    2.9065   26.6159 H   0  0  0  0  0  0
   33.2598    1.7978   25.2753 H   0  0  0  0  0  0
   32.5917    2.2580   28.8480 H   0  0  0  0  0  0
   30.5501   -1.4523   29.4859 H   0  0  0  0  0  0
   31.2569   -3.7423   25.5542 H   0  0  0  0  0  0
   33.6599   -4.1901   25.9740 H   0  0  0  0  0  0
   33.6598   -2.9683   27.2610 H   0  0  0  0  0  0
   32.7812   -4.4496   27.4618 H   0  0  0  0  0  0
   34.7406   -2.9591   24.0651 H   0  0  0  0  0  0
   35.0884   -4.0523   21.8657 H   0  0  0  0  0  0
   30.7092   -2.0966   22.9575 H   0  0  0  0  0  0
   32.5158   -5.0520   19.8649 H   0  0  0  0  0  0
   31.6300    1.6986   30.8043 H   0  0  0  0  0  0
  1  2  1  0  0  0
  1 22  1  0  0  0
  1 23  1  0  0  0
  1 24  1  0  0  0
  2  7  1  0  0  0
  2  3  2  0  0  0
  3  4  1  0  0  0
  3 25  1  0  0  0
  4  5  2  0  0  0
  4 21  1  0  0  0
  5  6  1  0  0  0
  5 26  1  0  0  0
  6 11  1  0  0  0
  6  7  2  0  0  0
  7  8  1  0  0  0
  8  9  2  0  0  0
  9 10  1  0  0  0
  9 13  1  0  0  0
 10 11  1  0  0  0
 10 12  1  0  0  0
 10 27  1  0  0  0
 12 28  1  0  0  0
 12 29  1  0  0  0
 12 30  1  0  0  0
 13 18  1  0  0  0
 13 14  2  0  0  0
 14 15  1  0  0  0
 14 31  1  0  0  0
 15 16  2  0  0  0
 15 32  1  0  0  0
 16 17  1  0  0  0
 16 20  1  0  0  0
 17 18  2  0  0  0
 17 19  1  0  0  0
 18 33  1  0  0  0
 20 34  1  0  0  0
 21 35  1  0  0  0
M  END
> <s_m_entry_id>
17703

> <s_m_entry_name>
ligand_docking-pose.630

> <s_m_Source_Path>
/home/csk/Desktop/cluster/DUD-E-result/esr1

> <s_m_Source_File>
ligand_docking-pose.sdf

> <i_m_Source_File_Index>
630

> <i_lp_mmshare_version>
53161

> <i_f3d_flags>
0

> <r_lp_tautomer_probability>
0.999601159137504

> <s_lp_Force_Field>
OPLS_2005

> <r_lp_Energy>
21.291849

> <b_lp_Chiralities_Consistent>
1

> <s_lp_Variant>
120893-2

> <s_i_glide_gridfile>
glide-grid_1sj0

> <i_i_glide_lignum>
965

> <i_i_glide_rotatable_bonds>
3

> <r_i_docking_score>
-6.97947840996977

> <r_i_glide_ligand_efficiency>
-0.332356114760465

> <r_i_glide_ligand_efficiency_sa>
-0.916945319250192

> <r_i_glide_ligand_efficiency_ln>
-1.72566193350095

> <r_i_glide_gscore>
-6.97947840996977

> <r_i_glide_lipo>
-2.94776656535176

> <r_i_glide_hbond>
-0.16

> <r_i_glide_metal>
0

> <r_i_glide_rewards>
-1.99253189293901

> <r_i_glide_evdw>
-32.2648468017578

> <r_i_glide_ecoul>
-2.81954836845398

> <r_i_glide_erotb>
0.156994643676991

> <r_i_glide_esite>
0

> <r_i_glide_emodel>
-43.1798404354921

> <r_i_glide_energy>
-35.0843951702118

> <r_i_glide_einternal>
6.02423620223999

> <i_i_glide_confnum>
1

> <i_i_glide_posenum>
224

> <r_i_glide_eff_state_penalty>
0

> <s_user_duplicate_titles>
120893

> <s_m_subgroup_title>
dock_pv

> <s_m_subgroupid>
dock_pv1

> <b_m_subgroup_collapsed>
0

$$$$
338805
                    3D
 Schrodinger Suite 2021-1.
 52 53  0  0  1  0            999 V2000
   34.2277    2.7550   27.7896 C   0  0  0  0  0  0
   34.1343    1.8518   26.5662 C   0  0  0  0  0  0
   32.7401    1.2766   26.2459 C   0  0  0  0  0  0
   32.2027    0.1768   27.0554 N   0  0  0  0  0  0
   32.0225    0.4240   28.4284 C   0  0  0  0  0  0
   30.9043    1.1388   28.9115 C   0  0  0  0  0  0
   30.7819    1.3636   30.2807 C   0  0  0  0  0  0
   31.7456    0.9346   31.1748 C   0  0  0  0  0  0
   32.8313    0.2130   30.7093 C   0  0  0  0  0  0
   32.9693   -0.0743   29.3511 C   0  0  0  0  0  0
   34.1477   -0.9429   28.9284 C   0  0  0  0  0  0
   35.5201   -0.3108   29.2029 C   0  0  0  0  0  0
   29.7677    1.6706   28.0379 C   0  0  0  0  0  0
   28.5240    0.7709   28.0940 C   0  0  0  0  0  0
   31.0689   -0.9459   26.2370 S   0  0  0  0  0  0
   30.6273   -1.9233   27.2388 O   0  0  0  0  0  0
   30.0962   -0.1421   25.4885 O   0  0  0  0  0  0
   31.9958   -1.8573   25.0241 C   0  0  0  0  0  0
   33.0998   -2.6040   25.4147 C   0  0  0  0  0  0
   33.7964   -3.3420   24.4677 C   0  0  0  0  0  0
   33.3565   -3.4015   23.1473 C   0  0  0  0  0  0
   32.1967   -2.7253   22.7648 C   0  0  0  0  0  0
   31.5560   -1.9059   23.6998 C   0  0  0  0  0  0
   31.5982   -2.9418   21.3793 C   0  0  0  0  0  0
   34.0600   -4.1420   22.2406 O   0  0  0  0  0  0
   35.2610    3.0252   28.0094 H   0  0  0  0  0  0
   33.6598    3.6734   27.6508 H   0  0  0  0  0  0
   33.8468    2.2562   28.6640 H   0  0  0  0  0  0
   34.8638    1.0580   26.6641 H   0  0  0  0  0  0
   34.4600    2.4312   25.7028 H   0  0  0  0  0  0
   32.6746    1.0523   25.1839 H   0  0  0  0  0  0
   32.0631    2.1105   26.3943 H   0  0  0  0  0  0
   29.9058    1.8580   30.6639 H   0  0  0  0  0  0
   31.6309    1.1323   32.2299 H   0  0  0  0  0  0
   33.5591   -0.1420   31.4195 H   0  0  0  0  0  0
   34.0723   -1.8984   29.4503 H   0  0  0  0  0  0
   34.0600   -1.1863   27.8764 H   0  0  0  0  0  0
   36.3399   -0.9420   28.8663 H   0  0  0  0  0  0
   35.6468    0.6484   28.7100 H   0  0  0  0  0  0
   35.6604   -0.1420   30.2640 H   0  0  0  0  0  0
   29.5095    2.6577   28.4220 H   0  0  0  0  0  0
   30.0598    1.8578   27.0087 H   0  0  0  0  0  0
   27.6104    1.3364   27.9077 H   0  0  0  0  0  0
   28.5540   -0.0379   27.3690 H   0  0  0  0  0  0
   28.4600    0.2862   29.0639 H   0  0  0  0  0  0
   33.4187   -2.6214   26.4437 H   0  0  0  0  0  0
   34.6657   -3.8912   24.7801 H   0  0  0  0  0  0
   30.6573   -1.3724   23.4304 H   0  0  0  0  0  0
   32.2286   -2.5060   20.6047 H   0  0  0  0  0  0
   31.5213   -4.0104   21.1709 H   0  0  0  0  0  0
   30.5883   -2.5425   21.2946 H   0  0  0  0  0  0
   33.5867   -4.2707   21.4143 H   0  0  0  0  0  0
  1  2  1  0  0  0
  1 26  1  0  0  0
  1 27  1  0  0  0
  1 28  1  0  0  0
  2  3  1  0  0  0
  2 29  1  0  0  0
  2 30  1  0  0  0
  3  4  1  0  0  0
  3 31  1  0  0  0
  3 32  1  0  0  0
  4  5  1  0  0  0
  4 15  1  0  0  0
  5 10  1  0  0  0
  5  6  2  0  0  0
  6  7  1  0  0  0
  6 13  1  0  0  0
  7  8  2  0  0  0
  7 33  1  0  0  0
  8  9  1  0  0  0
  8 34  1  0  0  0
  9 10  2  0  0  0
  9 35  1  0  0  0
 10 11  1  0  0  0
 11 12  1  0  0  0
 11 36  1  0  0  0
 11 37  1  0  0  0
 12 38  1  0  0  0
 12 39  1  0  0  0
 12 40  1  0  0  0
 13 14  1  0  0  0
 13 41  1  0  0  0
 13 42  1  0  0  0
 14 43  1  0  0  0
 14 44  1  0  0  0
 14 45  1  0  0  0
 15 16  2  0  0  0
 15 17  2  0  0  0
 15 18  1  0  0  0
 18 23  1  0  0  0
 18 19  2  0  0  0
 19 20  1  0  0  0
 19 46  1  0  0  0
 20 21  2  0  0  0
 20 47  1  0  0  0
 21 22  1  0  0  0
 21 25  1  0  0  0
 22 23  2  0  0  0
 22 24  1  0  0  0
 23 48  1  0  0  0
 24 49  1  0  0  0
 24 50  1  0  0  0
 24 51  1  0  0  0
 25 52  1  0  0  0
M  END
> <s_m_entry_id>
17704

> <s_m_entry_name>
ligand_docking-pose.631

> <s_m_Source_Path>
/home/csk/Desktop/cluster/DUD-E-result/esr1

> <s_m_Source_File>
ligand_docking-pose.sdf

> <i_m_Source_File_Index>
631

> <i_lp_mmshare_version>
53161

> <i_f3d_flags>
0

> <r_lp_tautomer_probability>
0.999999999997365

> <s_lp_Force_Field>
OPLS_2005

> <r_lp_Energy>
11.168794

> <b_lp_Chiralities_Consistent>
1

> <s_lp_Variant>
338805-1

> <s_i_glide_gridfile>
glide-grid_1sj0

> <i_i_glide_lignum>
1529

> <i_i_glide_rotatable_bonds>
8

> <r_i_docking_score>
-6.97905417058611

> <r_i_glide_ligand_efficiency>
-0.279162166823444

> <r_i_glide_ligand_efficiency_sa>
-0.816275126753861

> <r_i_glide_ligand_efficiency_ln>
-1.6542449838054

> <r_i_glide_gscore>
-6.97905417058611

> <r_i_glide_lipo>
-4.97206283257831

> <r_i_glide_hbond>
0

> <r_i_glide_metal>
0

> <r_i_glide_rewards>
-0.744123056355179

> <r_i_glide_evdw>
-35.2427101135254

> <r_i_glide_ecoul>
-0.587675094604492

> <r_i_glide_erotb>
0.587418488214328

> <r_i_glide_esite>
0

> <r_i_glide_emodel>
-39.5440261028169

> <r_i_glide_energy>
-35.8303852081299

> <r_i_glide_einternal>
5.6696515083313

> <i_i_glide_confnum>
21

> <i_i_glide_posenum>
121

> <r_i_glide_eff_state_penalty>
0

> <s_user_duplicate_titles>
338805

> <s_m_subgroup_title>
dock_pv

> <s_m_subgroupid>
dock_pv1

> <b_m_subgroup_collapsed>
0

$$$$
342101
                    3D
 Schrodinger Suite 2021-1.
 27 29  0  0  1  0            999 V2000
   31.3633   -2.5823   22.2497 C   0  0  0  0  0  0
   32.0600   -2.5320   23.6010 C   0  0  0  0  0  0
   33.1794   -3.3421   23.7488 C   0  0  0  0  0  0
   33.7600   -3.4836   24.9902 C   0  0  0  0  0  0
   33.2477   -2.8336   26.1047 C   0  0  0  0  0  0
   32.2084   -1.9182   25.9740 C   0  0  0  0  0  0
   31.5905   -1.7884   24.7122 C   0  0  0  0  0  0
   30.4856   -0.9737   24.5366 O   0  0  0  0  0  0
   29.9155   -0.2994   25.5876 C   0  0  0  0  0  0
   28.8600    0.2580   25.3361 O   0  0  0  0  0  0
   30.5930   -0.2610   26.9231 C   0  0  0  0  0  0
   31.7256   -1.0766   27.1188 C   0  0  0  0  0  0
   32.3921   -1.0361   28.3564 C   0  0  0  0  0  0
   31.9535   -0.2008   29.3784 C   0  0  0  0  0  0
   30.8483    0.6095   29.1812 C   0  0  0  0  0  0
   30.1606    0.5881   27.9727 C   0  0  0  0  0  0
   28.6578    1.7688   27.8635 Br  0  0  0  0  0  0
   32.8600   -0.1419   31.0479 Br  0  0  0  0  0  0
   33.6923   -4.0632   22.7011 O   0  0  0  0  0  0
   30.3852   -2.1420   22.2640 H   0  0  0  0  0  0
   31.9773   -2.1420   21.4669 H   0  0  0  0  0  0
   31.1973   -3.6204   21.9551 H   0  0  0  0  0  0
   34.6064   -4.1420   25.0640 H   0  0  0  0  0  0
   33.6600   -3.0390   27.0747 H   0  0  0  0  0  0
   33.2722   -1.6291   28.5467 H   0  0  0  0  0  0
   30.5181    1.2612   29.9770 H   0  0  0  0  0  0
   33.1498   -4.0324   21.9090 H   0  0  0  0  0  0
  1  2  1  0  0  0
  1 20  1  0  0  0
  1 21  1  0  0  0
  1 22  1  0  0  0
  2  7  1  0  0  0
  2  3  2  0  0  0
  3  4  1  0  0  0
  3 19  1  0  0  0
  4  5  2  0  0  0
  4 23  1  0  0  0
  5  6  1  0  0  0
  5 24  1  0  0  0
  6 12  1  0  0  0
  6  7  2  0  0  0
  7  8  1  0  0  0
  8  9  1  0  0  0
  9 10  2  0  0  0
  9 11  1  0  0  0
 11 16  1  0  0  0
 11 12  2  0  0  0
 12 13  1  0  0  0
 13 14  2  0  0  0
 13 25  1  0  0  0
 14 15  1  0  0  0
 14 18  1  0  0  0
 15 16  2  0  0  0
 15 26  1  0  0  0
 16 17  1  0  0  0
 19 27  1  0  0  0
M  END
> <s_m_entry_id>
17705

> <s_m_entry_name>
ligand_docking-pose.632

> <s_m_Source_Path>
/home/csk/Desktop/cluster/DUD-E-result/esr1

> <s_m_Source_File>
ligand_docking-pose.sdf

> <i_m_Source_File_Index>
632

> <i_lp_mmshare_version>
53161

> <i_f3d_flags>
0

> <r_lp_tautomer_probability>
1

> <s_lp_Force_Field>
OPLS_2005

> <r_lp_Energy>
20.870788

> <b_lp_Chiralities_Consistent>
1

> <s_lp_Variant>
342101-1

> <s_i_glide_gridfile>
glide-grid_1sj0

> <i_i_glide_lignum>
971

> <i_i_glide_rotatable_bonds>
1

> <r_i_docking_score>
-6.95583107997147

> <r_i_glide_ligand_efficiency>
-0.366096372630077

> <r_i_glide_ligand_efficiency_sa>
-0.976892163358422

> <r_i_glide_ligand_efficiency_ln>
-1.76345257632593

> <r_i_glide_gscore>
-6.95583107997147

> <r_i_glide_lipo>
-3.98968851085697

> <r_i_glide_hbond>
0

> <r_i_glide_metal>
0

> <r_i_glide_rewards>
-1.5100310754078

> <r_i_glide_evdw>
-26.2625274658203

> <r_i_glide_ecoul>
-0.953234136104584

> <r_i_glide_erotb>
0

> <r_i_glide_esite>
0

> <r_i_glide_emodel>
-37.5361393163504

> <r_i_glide_energy>
-27.2157616019249

> <r_i_glide_einternal>
0.00105804961640388

> <i_i_glide_confnum>
1

> <i_i_glide_posenum>
134

> <r_i_glide_eff_state_penalty>
0

> <s_user_duplicate_titles>
342101

> <s_m_subgroup_title>
dock_pv

> <s_m_subgroupid>
dock_pv1

> <b_m_subgroup_collapsed>
0

$$$$
338785
                    3D
 Schrodinger Suite 2021-1.
 38 39  0  0  1  0            999 V2000
   33.0191    1.6900   27.2256 C   0  0  0  0  0  0
   31.7009    1.1501   27.8091 C   0  0  0  0  0  0
   31.0129    0.1988   26.9253 N   0  0  0  0  0  0
   31.6930   -0.9531   26.4801 C   0  0  0  0  0  0
   31.8113   -1.1768   25.1001 C   0  0  0  0  0  0
   32.4437   -2.3184   24.6138 C   0  0  0  0  0  0
   32.9628   -3.2538   25.5025 C   0  0  0  0  0  0
   32.8600   -3.0385   26.8733 C   0  0  0  0  0  0
   32.2540   -1.8808   27.3762 C   0  0  0  0  0  0
   32.1707   -1.6654   28.7340 O   0  0  0  0  0  0
   33.3932   -1.7579   29.4588 C   0  0  0  0  0  0
   29.2916    0.4893   26.5035 S   0  0  0  0  0  0
   29.1676    0.2580   25.0643 O   0  0  0  0  0  0
   28.8844    1.7739   27.0858 O   0  0  0  0  0  0
   28.2651   -0.7772   27.2312 C   0  0  0  0  0  0
   27.0497   -0.3985   27.7963 C   0  0  0  0  0  0
   26.1751   -1.3685   28.2625 C   0  0  0  0  0  0
   26.4986   -2.7161   28.1320 C   0  0  0  0  0  0
   27.7057   -3.1015   27.5542 C   0  0  0  0  0  0
   28.5967   -2.1275   27.1111 C   0  0  0  0  0  0
   25.6604   -3.6565   28.6571 O   0  0  0  0  0  0
   33.4634    2.4308   27.8873 H   0  0  0  0  0  0
   33.7529    0.8951   27.0897 H   0  0  0  0  0  0
   32.8640    2.1720   26.2601 H   0  0  0  0  0  0
   31.0516    1.9957   28.0292 H   0  0  0  0  0  0
   31.8866    0.6931   28.7793 H   0  0  0  0  0  0
   31.4203   -0.4635   24.3904 H   0  0  0  0  0  0
   32.5262   -2.4801   23.5488 H   0  0  0  0  0  0
   33.4512   -4.1416   25.1275 H   0  0  0  0  0  0
   33.2620   -3.7773   27.5491 H   0  0  0  0  0  0
   33.2581   -1.3398   30.4558 H   0  0  0  0  0  0
   33.7126   -2.7936   29.5721 H   0  0  0  0  0  0
   34.1979   -1.1983   28.9787 H   0  0  0  0  0  0
   26.7742    0.6443   27.8660 H   0  0  0  0  0  0
   25.2589   -1.0660   28.7346 H   0  0  0  0  0  0
   27.9693   -4.1456   27.4631 H   0  0  0  0  0  0
   29.5279   -2.4344   26.6636 H   0  0  0  0  0  0
   25.7706   -4.5129   28.2374 H   0  0  0  0  0  0
  1  2  1  0  0  0
  1 22  1  0  0  0
  1 23  1  0  0  0
  1 24  1  0  0  0
  2  3  1  0  0  0
  2 25  1  0  0  0
  2 26  1  0  0  0
  3  4  1  0  0  0
  3 12  1  0  0  0
  4  9  1  0  0  0
  4  5  2  0  0  0
  5  6  1  0  0  0
  5 27  1  0  0  0
  6  7  2  0  0  0
  6 28  1  0  0  0
  7  8  1  0  0  0
  7 29  1  0  0  0
  8  9  2  0  0  0
  8 30  1  0  0  0
  9 10  1  0  0  0
 10 11  1  0  0  0
 11 31  1  0  0  0
 11 32  1  0  0  0
 11 33  1  0  0  0
 12 13  2  0  0  0
 12 14  2  0  0  0
 12 15  1  0  0  0
 15 20  1  0  0  0
 15 16  2  0  0  0
 16 17  1  0  0  0
 16 34  1  0  0  0
 17 18  2  0  0  0
 17 35  1  0  0  0
 18 19  1  0  0  0
 18 21  1  0  0  0
 19 20  2  0  0  0
 19 36  1  0  0  0
 20 37  1  0  0  0
 21 38  1  0  0  0
M  END
> <s_m_entry_id>
17706

> <s_m_entry_name>
ligand_docking-pose.633

> <s_m_Source_Path>
/home/csk/Desktop/cluster/DUD-E-result/esr1

> <s_m_Source_File>
ligand_docking-pose.sdf

> <i_m_Source_File_Index>
633

> <i_lp_mmshare_version>
53161

> <i_f3d_flags>
0

> <r_lp_tautomer_probability>
0.999999999997365

> <s_lp_Force_Field>
OPLS_2005

> <r_lp_Energy>
12.827223

> <b_lp_Chiralities_Consistent>
1

> <s_lp_Variant>
338785-1

> <s_i_glide_gridfile>
glide-grid_1sj0

> <i_i_glide_lignum>
1623

> <i_i_glide_rotatable_bonds>
6

> <r_i_docking_score>
-6.91462572202495

> <r_i_glide_ligand_efficiency>
-0.329267891524998

> <r_i_glide_ligand_efficiency_sa>
-0.908425145512445

> <r_i_glide_ligand_efficiency_ln>
-1.70962723745379

> <r_i_glide_gscore>
-6.91462572202495

> <r_i_glide_lipo>
-3.57318312741223

> <r_i_glide_hbond>
0

> <r_i_glide_metal>
0

> <r_i_glide_rewards>
-1.79327996419745

> <r_i_glide_evdw>
-35.9784774780273

> <r_i_glide_ecoul>
-2.24167442321777

> <r_i_glide_erotb>
0.587012406968765

> <r_i_glide_esite>
0

> <r_i_glide_emodel>
-47.9147132073166

> <r_i_glide_energy>
-38.2201519012451

> <r_i_glide_einternal>
11.8379917144775

> <i_i_glide_confnum>
6

> <i_i_glide_posenum>
277

> <r_i_glide_eff_state_penalty>
0

> <s_user_duplicate_titles>
338785

> <s_m_subgroup_title>
dock_pv

> <s_m_subgroupid>
dock_pv1

> <b_m_subgroup_collapsed>
0

$$$$
552204
                    3D
 Schrodinger Suite 2021-1.
 65 70  0  0  1  0            999 V2000
   31.6220   -2.0886   23.3835 C   0  0  0  0  0  0
   32.3811   -2.7466   22.4232 C   0  0  0  0  0  0
   33.6409   -3.2077   22.7646 C   0  0  0  0  0  0
   34.0601   -3.1012   24.0837 C   0  0  0  0  0  0
   33.2600   -2.5333   25.0565 C   0  0  0  0  0  0
   32.0668   -1.9181   24.7047 C   0  0  0  0  0  0
   31.2874   -1.1431   25.7076 C   0  0  0  0  0  0
   30.0279   -0.7393   25.4770 C   0  0  0  0  0  0
   29.4124   -0.1648   26.7211 C   0  0  1  0  0  0
   28.5859    1.1116   26.5159 C   0  0  0  0  0  0
   27.3062    0.9488   27.3322 C   0  0  0  0  0  0
   27.2038   -0.5413   27.5633 C   0  0  0  0  0  0
   28.4147   -1.1612   27.2681 C   0  0  0  0  0  0
   28.5644   -2.5430   27.4377 C   0  0  0  0  0  0
   27.4876   -3.3099   27.8640 C   0  0  0  0  0  0
   26.2883   -2.6821   28.1851 C   0  0  0  0  0  0
   26.1505   -1.2986   28.0686 C   0  0  0  0  0  0
   25.2600   -3.4240   28.6639 O   0  0  0  0  0  0
   30.6051   -0.0142   27.6240 C   0  0  0  0  0  0
   31.7154   -0.6186   27.0362 C   0  0  0  0  0  0
   32.9330   -0.5863   27.7259 C   0  0  0  0  0  0
   33.0492    0.0956   28.9328 C   0  0  0  0  0  0
   31.9369    0.7050   29.5081 C   0  0  0  0  0  0
   30.7076    0.6430   28.8548 C   0  0  0  0  0  0
   34.2762    0.1874   29.5244 O   0  0  0  0  0  0
   34.4605   -3.7408   21.8041 O   0  0  0  0  0  0
   35.3326   -2.7976   21.1826 C   0  0  0  0  0  0
   35.6650   -3.1703   19.7204 C   0  0  0  0  0  0
   34.5432   -3.1573   18.7706 N   0  0  0  0  0  0
   33.6820   -4.3458   18.8669 C   0  0  0  0  0  0
   32.6646   -4.3835   17.7092 C   0  0  0  0  0  0
   31.8306   -3.0951   17.6330 C   0  0  0  0  0  0
   32.7530   -1.8646   17.6130 C   0  0  0  0  0  0
   33.7843   -1.8974   18.7553 C   0  0  0  0  0  0
   30.6602   -1.7314   23.0680 H   0  0  0  0  0  0
   32.0167   -2.8551   21.4117 H   0  0  0  0  0  0
   35.0632   -3.3420   24.3706 H   0  0  0  0  0  0
   33.6366   -2.5245   26.0611 H   0  0  0  0  0  0
   29.4306   -0.9155   24.5989 H   0  0  0  0  0  0
   29.1307    2.0162   26.7910 H   0  0  0  0  0  0
   28.3301    1.2281   25.4642 H   0  0  0  0  0  0
   26.4600    1.3549   26.7947 H   0  0  0  0  0  0
   27.3898    1.5018   28.2640 H   0  0  0  0  0  0
   29.4971   -3.0338   27.1979 H   0  0  0  0  0  0
   27.5970   -4.3798   27.9638 H   0  0  0  0  0  0
   25.2244   -0.8260   28.3437 H   0  0  0  0  0  0
   25.2908   -4.3358   28.3667 H   0  0  0  0  0  0
   33.8360   -1.0218   27.3541 H   0  0  0  0  0  0
   32.0204    1.2341   30.4458 H   0  0  0  0  0  0
   29.8470    1.1214   29.2984 H   0  0  0  0  0  0
   34.2618    0.7015   30.3332 H   0  0  0  0  0  0
   36.2535   -2.7573   21.7637 H   0  0  0  0  0  0
   34.9340   -1.7833   21.1874 H   0  0  0  0  0  0
   36.1515   -4.1441   19.6922 H   0  0  0  0  0  0
   36.4166   -2.4745   19.3457 H   0  0  0  0  0  0
   33.1789   -4.3901   19.8335 H   0  0  0  0  0  0
   34.3070   -5.2386   18.8087 H   0  0  0  0  0  0
   31.9995   -5.2347   17.8552 H   0  0  0  0  0  0
   33.1794   -4.5818   16.7684 H   0  0  0  0  0  0
   31.1930   -3.1115   16.7498 H   0  0  0  0  0  0
   31.1661   -3.0420   18.4972 H   0  0  0  0  0  0
   33.2779   -1.7626   16.6640 H   0  0  0  0  0  0
   32.1479   -0.9611   17.6989 H   0  0  0  0  0  0
   33.2939   -1.7423   19.7159 H   0  0  0  0  0  0
   34.4838   -1.0710   18.6197 H   0  0  0  0  0  0
  1  6  1  0  0  0
  1  2  2  0  0  0
  1 35  1  0  0  0
  2  3  1  0  0  0
  2 36  1  0  0  0
  3  4  2  0  0  0
  3 26  1  0  0  0
  4  5  1  0  0  0
  4 37  1  0  0  0
  5  6  2  0  0  0
  5 38  1  0  0  0
  6  7  1  0  0  0
  7 20  1  0  0  0
  7  8  2  0  0  0
  8  9  1  0  0  0
  8 39  1  0  0  0
  9 13  1  0  0  0
  9 10  1  0  0  0
  9 19  1  0  0  0
 10 11  1  0  0  0
 10 40  1  0  0  0
 10 41  1  0  0  0
 11 12  1  0  0  0
 11 42  1  0  0  0
 11 43  1  0  0  0
 12 17  2  0  0  0
 12 13  1  0  0  0
 13 14  2  0  0  0
 14 15  1  0  0  0
 14 44  1  0  0  0
 15 16  2  0  0  0
 15 45  1  0  0  0
 16 17  1  0  0  0
 16 18  1  0  0  0
 17 46  1  0  0  0
 18 47  1  0  0  0
 19 24  2  0  0  0
 19 20  1  0  0  0
 20 21  2  0  0  0
 21 22  1  0  0  0
 21 48  1  0  0  0
 22 23  2  0  0  0
 22 25  1  0  0  0
 23 24  1  0  0  0
 23 49  1  0  0  0
 24 50  1  0  0  0
 25 51  1  0  0  0
 26 27  1  0  0  0
 27 28  1  0  0  0
 27 52  1  0  0  0
 27 53  1  0  0  0
 28 29  1  0  0  0
 28 54  1  0  0  0
 28 55  1  0  0  0
 29 34  1  0  0  0
 29 30  1  0  0  0
 30 31  1  0  0  0
 30 56  1  0  0  0
 30 57  1  0  0  0
 31 32  1  0  0  0
 31 58  1  0  0  0
 31 59  1  0  0  0
 32 33  1  0  0  0
 32 60  1  0  0  0
 32 61  1  0  0  0
 33 34  1  0  0  0
 33 62  1  0  0  0
 33 63  1  0  0  0
 34 64  1  0  0  0
 34 65  1  0  0  0
M  END
> <s_m_entry_id>
17707

> <s_m_entry_name>
ligand_docking-pose.634

> <s_m_Source_Path>
/home/csk/Desktop/cluster/DUD-E-result/esr1

> <s_m_Source_File>
ligand_docking-pose.sdf

> <i_m_Source_File_Index>
634

> <i_lp_mmshare_version>
53161

> <i_f3d_flags>
0

> <r_lp_tautomer_probability>
0.999999999997365

> <s_lp_Force_Field>
OPLS_2005

> <r_lp_Energy>
69.188316

> <b_lp_Chiralities_Consistent>
1

> <s_lp_Variant>
552204-1

> <s_i_glide_gridfile>
glide-grid_1sj0

> <i_i_glide_lignum>
214

> <i_i_glide_rotatable_bonds>
7

> <r_i_docking_score>
-6.88496045837332

> <r_i_glide_ligand_efficiency>
-0.20249883701098

> <r_i_glide_ligand_efficiency_sa>
-0.656017621354618

> <r_i_glide_ligand_efficiency_ln>
-1.52108088185423

> <r_i_glide_gscore>
-6.88496045837332

> <r_i_glide_lipo>
-5.93908875537976

> <r_i_glide_hbond>
-0.0246036307222138

> <r_i_glide_metal>
0

> <r_i_glide_rewards>
0.877807191469538

> <r_i_glide_evdw>
-46.1673202514648

> <r_i_glide_ecoul>
0.793229103088379

> <r_i_glide_erotb>
0.390306383369106

> <r_i_glide_esite>
0

> <r_i_glide_emodel>
-40.2237831348682

> <r_i_glide_energy>
-45.3740911483765

> <r_i_glide_einternal>
12.9271097183228

> <i_i_glide_confnum>
10

> <i_i_glide_posenum>
154

> <r_i_glide_eff_state_penalty>
0

> <s_user_duplicate_titles>
552204

> <s_m_subgroup_title>
dock_pv

> <s_m_subgroupid>
dock_pv1

> <b_m_subgroup_collapsed>
0

$$$$
313431
                    3D
 Schrodinger Suite 2021-1.
 27 29  0  0  1  0            999 V2000
   33.7035   -2.9419   23.2538 C   0  0  0  0  0  0
   34.3640   -3.5271   22.1778 C   0  0  0  0  0  0
   33.6721   -3.8263   21.0101 C   0  0  0  0  0  0
   32.3232   -3.5133   20.9018 C   0  0  0  0  0  0
   31.6600   -2.9242   21.9739 C   0  0  0  0  0  0
   32.3537   -2.5983   23.1476 C   0  0  0  0  0  0
   31.6831   -1.8561   24.2599 C   0  0  0  0  0  0
   30.5851   -1.1315   24.1727 N   0  0  0  0  0  0
   30.3799   -0.6812   25.4415 C   0  0  0  0  0  0
   29.3607    0.1213   25.9736 C   0  0  0  0  0  0
   29.4335    0.4582   27.3272 C   0  0  0  0  0  0
   30.4775   -0.0045   28.1392 C   0  0  0  0  0  0
   31.4940   -0.8239   27.6273 C   0  0  0  0  0  0
   31.4132   -1.1408   26.2674 C   0  0  0  0  0  0
   32.2526   -1.8980   25.5041 O   0  0  0  0  0  0
   32.5799   -1.3169   28.4554 C   0  0  0  0  0  0
   33.4449   -1.7125   29.1096 N   0  0  0  0  0  0
   28.4645    1.2589   27.8642 O   0  0  0  0  0  0
   34.3218   -4.4382   19.9732 O   0  0  0  0  0  0
   34.2593   -2.7101   24.1495 H   0  0  0  0  0  0
   35.4171   -3.7414   22.2437 H   0  0  0  0  0  0
   31.7844   -3.7466   19.9950 H   0  0  0  0  0  0
   30.6147   -2.6842   21.8638 H   0  0  0  0  0  0
   28.5591    0.4779   25.3452 H   0  0  0  0  0  0
   30.4907    0.2828   29.1814 H   0  0  0  0  0  0
   27.7682    1.4747   27.2415 H   0  0  0  0  0  0
   35.0931   -4.9387   20.2632 H   0  0  0  0  0  0
  1  6  1  0  0  0
  1  2  2  0  0  0
  1 20  1  0  0  0
  2  3  1  0  0  0
  2 21  1  0  0  0
  3  4  2  0  0  0
  3 19  1  0  0  0
  4  5  1  0  0  0
  4 22  1  0  0  0
  5  6  2  0  0  0
  5 23  1  0  0  0
  6  7  1  0  0  0
  7 15  1  0  0  0
  7  8  2  0  0  0
  8  9  1  0  0  0
  9 14  2  0  0  0
  9 10  1  0  0  0
 10 11  2  0  0  0
 10 24  1  0  0  0
 11 12  1  0  0  0
 11 18  1  0  0  0
 12 13  2  0  0  0
 12 25  1  0  0  0
 13 14  1  0  0  0
 13 16  1  0  0  0
 14 15  1  0  0  0
 16 17  3  0  0  0
 18 26  1  0  0  0
 19 27  1  0  0  0
M  END
> <s_m_entry_id>
17708

> <s_m_entry_name>
ligand_docking-pose.635

> <s_m_Source_Path>
/home/csk/Desktop/cluster/DUD-E-result/esr1

> <s_m_Source_File>
ligand_docking-pose.sdf

> <i_m_Source_File_Index>
635

> <i_lp_mmshare_version>
53161

> <i_f3d_flags>
0

> <r_lp_tautomer_probability>
0.999999999997365

> <s_lp_Force_Field>
OPLS_2005

> <r_lp_Energy>
9.798928

> <b_lp_Chiralities_Consistent>
1

> <s_lp_Variant>
313431-1

> <s_i_glide_gridfile>
glide-grid_1sj0

> <i_i_glide_lignum>
385

> <i_i_glide_rotatable_bonds>
3

> <r_i_docking_score>
-6.87772788877594

> <r_i_glide_ligand_efficiency>
-0.361985678356628

> <r_i_glide_ligand_efficiency_sa>
-0.965923179992525

> <r_i_glide_ligand_efficiency_ln>
-1.74365173985513

> <r_i_glide_gscore>
-6.87772788877594

> <r_i_glide_lipo>
-2.35936807460964

> <r_i_glide_hbond>
-0.32

> <r_i_glide_metal>
0

> <r_i_glide_rewards>
-2.62129764667055

> <r_i_glide_evdw>
-29.0687389373779

> <r_i_glide_ecoul>
-2.66268134117126

> <r_i_glide_erotb>
0.275776980548833

> <r_i_glide_esite>
0

> <r_i_glide_emodel>
-44.054385843773

> <r_i_glide_energy>
-31.7314202785492

> <r_i_glide_einternal>
1.37051236629486

> <i_i_glide_confnum>
2

> <i_i_glide_posenum>
133

> <r_i_glide_eff_state_penalty>
0

> <s_user_duplicate_titles>
313431

> <s_m_subgroup_title>
dock_pv

> <s_m_subgroupid>
dock_pv1

> <b_m_subgroup_collapsed>
0

$$$$
202781
                    3D
 Schrodinger Suite 2021-1.
 54 57  0  0  1  0            999 V2000
   29.0343   -2.1707   27.0714 C   0  0  0  0  0  0
   27.8599   -1.6585   27.6006 C   0  0  0  0  0  0
   27.5689   -0.3164   27.3863 C   0  0  0  0  0  0
   28.3907    0.5319   26.6797 C   0  0  0  0  0  0
   29.5279    0.0072   26.1273 C   0  0  0  0  0  0
   29.8545   -1.3409   26.3049 C   0  0  0  0  0  0
   31.0210   -1.9315   25.5359 C   0  0  2  0  0  0
   32.4431   -1.6984   26.0995 C   0  0  1  0  0  0
   33.4778   -2.2902   25.2854 O   0  0  0  0  0  0
   33.2729   -2.6063   23.9460 C   0  0  0  0  0  0
   34.3363   -3.2156   23.3043 C   0  0  0  0  0  0
   34.2277   -3.6858   21.9922 C   0  0  0  0  0  0
   33.0084   -3.5825   21.3256 C   0  0  0  0  0  0
   31.9623   -2.8866   21.9247 C   0  0  0  0  0  0
   32.1185   -2.3615   23.2121 C   0  0  0  0  0  0
   30.9362   -1.2939   23.8645 S   0  0  0  0  0  0
   32.8526   -4.1393   20.0822 O   0  0  0  0  0  0
   32.7590   -0.2034   26.4216 C   0  0  0  0  0  0
   33.8687    0.0809   27.4653 C   0  0  0  0  0  0
   33.4689    0.7566   28.7941 C   0  0  0  0  0  0
   32.8443   -0.0765   29.8380 N   0  0  0  0  0  0
   32.6793    0.7344   31.0489 C   0  0  0  0  0  0
   31.6218    1.8545   30.8986 C   0  0  0  0  0  0
   30.2532    1.3929   30.3883 C   0  0  0  0  0  0
   30.4506    0.3805   29.2654 C   0  0  0  0  0  0
   31.5409   -0.6750   29.5289 C   0  0  0  0  0  0
   26.4541    0.2247   27.8790 O   0  0  0  0  0  0
   30.8591   -3.0099   25.4814 H   0  0  0  0  0  0
   32.5005   -2.2571   27.0336 H   0  0  0  0  0  0
   29.2631   -3.2197   27.1951 H   0  0  0  0  0  0
   27.1873   -2.2976   28.1523 H   0  0  0  0  0  0
   28.1295    1.5697   26.5355 H   0  0  0  0  0  0
   30.1410    0.6522   25.5260 H   0  0  0  0  0  0
   35.2521   -3.3380   23.8622 H   0  0  0  0  0  0
   35.0671   -4.1617   21.5090 H   0  0  0  0  0  0
   31.0438   -2.7363   21.3752 H   0  0  0  0  0  0
   32.1318   -4.7952   20.0194 H   0  0  0  0  0  0
   31.8869    0.3001   26.8017 H   0  0  0  0  0  0
   32.9372    0.3106   25.4774 H   0  0  0  0  0  0
   34.5506    0.8157   27.0428 H   0  0  0  0  0  0
   34.4689   -0.8128   27.6007 H   0  0  0  0  0  0
   32.8364    1.6138   28.5491 H   0  0  0  0  0  0
   34.3834    1.1855   29.2179 H   0  0  0  0  0  0
   33.6401    1.1638   31.3371 H   0  0  0  0  0  0
   32.4011    0.0688   31.8615 H   0  0  0  0  0  0
   31.9508    2.6465   30.2345 H   0  0  0  0  0  0
   31.5197    2.2609   31.9005 H   0  0  0  0  0  0
   29.6579    1.0599   31.2290 H   0  0  0  0  0  0
   29.6503    2.1908   29.9467 H   0  0  0  0  0  0
   29.5122   -0.1265   29.0652 H   0  0  0  0  0  0
   30.6658    0.9316   28.3574 H   0  0  0  0  0  0
   31.6271   -1.3300   28.6699 H   0  0  0  0  0  0
   31.2513   -1.3167   30.3627 H   0  0  0  0  0  0
   25.8798   -0.4214   28.2912 H   0  0  0  0  0  0
  1  6  1  0  0  0
  1  2  2  0  0  0
  1 30  1  0  0  0
  2  3  1  0  0  0
  2 31  1  0  0  0
  3  4  2  0  0  0
  3 27  1  0  0  0
  4  5  1  0  0  0
  4 32  1  0  0  0
  5  6  2  0  0  0
  5 33  1  0  0  0
  6  7  1  0  0  0
  7 28  1  0  0  0
  7 16  1  0  0  0
  7  8  1  0  0  0
  8 29  1  0  0  0
  8  9  1  0  0  0
  8 18  1  0  0  0
  9 10  1  0  0  0
 10 15  2  0  0  0
 10 11  1  0  0  0
 11 12  2  0  0  0
 11 34  1  0  0  0
 12 13  1  0  0  0
 12 35  1  0  0  0
 13 14  2  0  0  0
 13 17  1  0  0  0
 14 15  1  0  0  0
 14 36  1  0  0  0
 15 16  1  0  0  0
 17 37  1  0  0  0
 18 19  1  0  0  0
 18 38  1  0  0  0
 18 39  1  0  0  0
 19 20  1  0  0  0
 19 40  1  0  0  0
 19 41  1  0  0  0
 20 21  1  0  0  0
 20 42  1  0  0  0
 20 43  1  0  0  0
 21 26  1  0  0  0
 21 22  1  0  0  0
 22 23  1  0  0  0
 22 44  1  0  0  0
 22 45  1  0  0  0
 23 24  1  0  0  0
 23 46  1  0  0  0
 23 47  1  0  0  0
 24 25  1  0  0  0
 24 48  1  0  0  0
 24 49  1  0  0  0
 25 26  1  0  0  0
 25 50  1  0  0  0
 25 51  1  0  0  0
 26 52  1  0  0  0
 26 53  1  0  0  0
 27 54  1  0  0  0
M  END
> <s_m_entry_id>
17709

> <s_m_entry_name>
ligand_docking-pose.636

> <s_m_Source_Path>
/home/csk/Desktop/cluster/DUD-E-result/esr1

> <s_m_Source_File>
ligand_docking-pose.sdf

> <i_m_Source_File_Index>
636

> <i_lp_mmshare_version>
53161

> <i_f3d_flags>
0

> <r_lp_tautomer_probability>
0.999999999997365

> <s_lp_Force_Field>
OPLS_2005

> <r_lp_Energy>
31.153026

> <b_lp_Chiralities_Consistent>
1

> <s_lp_Variant>
202781-1

> <s_i_glide_gridfile>
glide-grid_1sj0

> <i_i_glide_lignum>
544

> <i_i_glide_rotatable_bonds>
7

> <r_i_docking_score>
-6.85443548860835

> <r_i_glide_ligand_efficiency>
-0.253867981059569

> <r_i_glide_ligand_efficiency_sa>
-0.761603942341998

> <r_i_glide_ligand_efficiency_ln>
-1.59559957754724

> <r_i_glide_gscore>
-6.85443548860835

> <r_i_glide_lipo>
-4.64547369248541

> <r_i_glide_hbond>
-0.16

> <r_i_glide_metal>
0

> <r_i_glide_rewards>
-1.21540785308457

> <r_i_glide_evdw>
-13.895339012146

> <r_i_glide_ecoul>
-4.41568040847778

> <r_i_glide_erotb>
0.523565068840593

> <r_i_glide_esite>
0

> <r_i_glide_emodel>
-43.7933298437996

> <r_i_glide_energy>
-18.3110194206238

> <r_i_glide_einternal>
3.52207922935486

> <i_i_glide_confnum>
4

> <i_i_glide_posenum>
300

> <r_i_glide_eff_state_penalty>
0

> <s_user_duplicate_titles>
202781

> <s_m_subgroup_title>
dock_pv

> <s_m_subgroupid>
dock_pv1

> <b_m_subgroup_collapsed>
0

$$$$
313679
                    3D
 Schrodinger Suite 2021-1.
 33 35  0  0  1  0            999 V2000
   33.6401    0.2574   29.8222 C   0  0  0  0  0  0
   33.7627   -1.1759   29.3353 C   0  0  0  0  0  0
   33.0409   -1.7787   28.3698 C   0  0  0  0  0  0
   31.9042   -1.2242   27.6154 C   0  0  0  0  0  0
   30.8889   -0.4570   28.2065 C   0  0  0  0  0  0
   29.8184    0.0550   27.4657 C   0  0  0  0  0  0
   29.7050   -0.1791   26.0932 C   0  0  0  0  0  0
   30.7062   -0.9420   25.4764 C   0  0  0  0  0  0
   31.7723   -1.4472   26.2370 C   0  0  0  0  0  0
   32.5927   -2.1349   25.3907 O   0  0  0  0  0  0
   31.9770   -2.0134   24.1728 C   0  0  0  0  0  0
   30.8601   -1.3167   24.1752 N   0  0  0  0  0  0
   32.6080   -2.6539   22.9818 C   0  0  0  0  0  0
   31.8520   -2.9423   21.8400 C   0  0  0  0  0  0
   32.4583   -3.4945   20.7157 C   0  0  0  0  0  0
   33.8168   -3.7867   20.7363 C   0  0  0  0  0  0
   34.5763   -3.5030   21.8640 C   0  0  0  0  0  0
   33.9714   -2.9495   22.9894 C   0  0  0  0  0  0
   34.4116   -4.3792   19.6559 O   0  0  0  0  0  0
   28.8613    0.7993   28.0976 O   0  0  0  0  0  0
   33.2146    0.2792   30.8254 H   0  0  0  0  0  0
   33.0220    0.8710   29.1696 H   0  0  0  0  0  0
   34.6283    0.7160   29.8597 H   0  0  0  0  0  0
   34.5405   -1.7520   29.8148 H   0  0  0  0  0  0
   33.2915   -2.8022   28.1277 H   0  0  0  0  0  0
   30.9218   -0.2591   29.2678 H   0  0  0  0  0  0
   28.8814    0.2124   25.5159 H   0  0  0  0  0  0
   30.7926   -2.7375   21.8152 H   0  0  0  0  0  0
   31.8663   -3.7375   19.8447 H   0  0  0  0  0  0
   35.6329   -3.7238   21.8644 H   0  0  0  0  0  0
   34.5637   -2.7452   23.8652 H   0  0  0  0  0  0
   35.2121   -4.8526   19.9019 H   0  0  0  0  0  0
   28.1554    1.0731   27.5089 H   0  0  0  0  0  0
  1  2  1  0  0  0
  1 21  1  0  0  0
  1 22  1  0  0  0
  1 23  1  0  0  0
  2  3  2  0  0  0
  2 24  1  0  0  0
  3  4  1  0  0  0
  3 25  1  0  0  0
  4  9  1  0  0  0
  4  5  2  0  0  0
  5  6  1  0  0  0
  5 26  1  0  0  0
  6  7  2  0  0  0
  6 20  1  0  0  0
  7  8  1  0  0  0
  7 27  1  0  0  0
  8 12  1  0  0  0
  8  9  2  0  0  0
  9 10  1  0  0  0
 10 11  1  0  0  0
 11 12  2  0  0  0
 11 13  1  0  0  0
 13 18  1  0  0  0
 13 14  2  0  0  0
 14 15  1  0  0  0
 14 28  1  0  0  0
 15 16  2  0  0  0
 15 29  1  0  0  0
 16 17  1  0  0  0
 16 19  1  0  0  0
 17 18  2  0  0  0
 17 30  1  0  0  0
 18 31  1  0  0  0
 19 32  1  0  0  0
 20 33  1  0  0  0
M  END
> <s_m_entry_id>
17710

> <s_m_entry_name>
ligand_docking-pose.637

> <s_m_Source_Path>
/home/csk/Desktop/cluster/DUD-E-result/esr1

> <s_m_Source_File>
ligand_docking-pose.sdf

> <i_m_Source_File_Index>
637

> <i_lp_mmshare_version>
53161

> <i_f3d_flags>
0

> <r_lp_tautomer_probability>
0.999999999997365

> <s_lp_Force_Field>
OPLS_2005

> <r_lp_Energy>
16.188954

> <b_lp_Chiralities_Consistent>
1

> <s_lp_Variant>
313679-1

> <s_i_glide_gridfile>
glide-grid_1sj0

> <i_i_glide_lignum>
1257

> <i_i_glide_rotatable_bonds>
4

> <r_i_docking_score>
-6.85185653312604

> <r_i_glide_ligand_efficiency>
-0.342592826656302

> <r_i_glide_ligand_efficiency_sa>
-0.929940003066294

> <r_i_glide_ligand_efficiency_ln>
-1.71479370088819

> <r_i_glide_gscore>
-6.85185653312604

> <r_i_glide_lipo>
-3.063175213213

> <r_i_glide_hbond>
-0.295716220121307

> <r_i_glide_metal>
0

> <r_i_glide_rewards>
-2.02633952349297

> <r_i_glide_evdw>
-32.0592956542969

> <r_i_glide_ecoul>
-2.41876292228699

> <r_i_glide_erotb>
0.499153644759134

> <r_i_glide_esite>
0

> <r_i_glide_emodel>
-47.1175977946812

> <r_i_glide_energy>
-34.4780585765839

> <r_i_glide_einternal>
1.32426869869232

> <i_i_glide_confnum>
3

> <i_i_glide_posenum>
386

> <r_i_glide_eff_state_penalty>
0

> <s_user_duplicate_titles>
313679

> <s_m_subgroup_title>
dock_pv

> <s_m_subgroupid>
dock_pv1

> <b_m_subgroup_collapsed>
0

$$$$
305942
                    3D
 Schrodinger Suite 2021-1.
 27 29  0  0  1  0            999 V2000
   33.7357   -3.4094   23.5520 C   0  0  0  0  0  0
   33.9733   -3.9640   22.2920 C   0  0  0  0  0  0
   33.0313   -3.8504   21.2797 C   0  0  0  0  0  0
   31.8710   -3.1094   21.5064 C   0  0  0  0  0  0
   31.6600   -2.5311   22.7593 C   0  0  0  0  0  0
   32.5622   -2.7015   23.8064 C   0  0  0  0  0  0
   32.2811   -2.1647   25.1717 C   0  0  0  0  0  0
   32.8602   -2.4364   26.4039 C   0  0  0  0  0  0
   32.2275   -1.5897   27.3579 C   0  0  0  0  0  0
   32.3718   -1.3395   28.7308 C   0  0  0  0  0  0
   31.5282   -0.4030   29.3309 C   0  0  0  0  0  0
   30.5453    0.2642   28.5977 C   0  0  0  0  0  0
   30.3734    0.0338   27.2314 C   0  0  0  0  0  0
   31.2398   -0.8900   26.6269 C   0  0  0  0  0  0
   31.2774   -1.2421   25.3041 O   0  0  0  0  0  0
   29.0096    0.9451   26.2643 Br  0  0  0  0  0  0
   31.6664   -0.1351   30.6642 O   0  0  0  0  0  0
   30.9508   -2.9429   20.5277 F   0  0  0  0  0  0
   33.2600   -4.4887   20.0890 O   0  0  0  0  0  0
   34.4599   -3.5520   24.3392 H   0  0  0  0  0  0
   34.8601   -4.5415   22.1016 H   0  0  0  0  0  0
   30.7725   -1.9533   22.9394 H   0  0  0  0  0  0
   33.6599   -3.1383   26.5746 H   0  0  0  0  0  0
   33.1270   -1.8575   29.3026 H   0  0  0  0  0  0
   29.9046    0.9750   29.0989 H   0  0  0  0  0  0
   32.3967   -0.6123   31.0633 H   0  0  0  0  0  0
   32.5150   -5.0713   19.8639 H   0  0  0  0  0  0
  1  6  1  0  0  0
  1  2  2  0  0  0
  1 20  1  0  0  0
  2  3  1  0  0  0
  2 21  1  0  0  0
  3  4  2  0  0  0
  3 19  1  0  0  0
  4  5  1  0  0  0
  4 18  1  0  0  0
  5  6  2  0  0  0
  5 22  1  0  0  0
  6  7  1  0  0  0
  7 15  1  0  0  0
  7  8  2  0  0  0
  8  9  1  0  0  0
  8 23  1  0  0  0
  9 14  2  0  0  0
  9 10  1  0  0  0
 10 11  2  0  0  0
 10 24  1  0  0  0
 11 12  1  0  0  0
 11 17  1  0  0  0
 12 13  2  0  0  0
 12 25  1  0  0  0
 13 14  1  0  0  0
 13 16  1  0  0  0
 14 15  1  0  0  0
 17 26  1  0  0  0
 19 27  1  0  0  0
M  END
> <s_m_entry_id>
17711

> <s_m_entry_name>
ligand_docking-pose.638

> <s_m_Source_Path>
/home/csk/Desktop/cluster/DUD-E-result/esr1

> <s_m_Source_File>
ligand_docking-pose.sdf

> <i_m_Source_File_Index>
638

> <i_lp_mmshare_version>
53161

> <i_f3d_flags>
0

> <r_lp_tautomer_probability>
0.999999999997365

> <s_lp_Force_Field>
OPLS_2005

> <r_lp_Energy>
9.176579

> <b_lp_Chiralities_Consistent>
1

> <s_lp_Variant>
305942-1

> <s_i_glide_gridfile>
glide-grid_1sj0

> <i_i_glide_lignum>
239

> <i_i_glide_rotatable_bonds>
3

> <r_i_docking_score>
-6.8309223392097

> <r_i_glide_ligand_efficiency>
-0.359522228379458

> <r_i_glide_ligand_efficiency_sa>
-0.959349706018351

> <r_i_glide_ligand_efficiency_ln>
-1.73178552774906

> <r_i_glide_gscore>
-6.8309223392097

> <r_i_glide_lipo>
-3.23760070624388

> <r_i_glide_hbond>
-0.16

> <r_i_glide_metal>
0

> <r_i_glide_rewards>
-1.65426488188379

> <r_i_glide_evdw>
-28.1531581878662

> <r_i_glide_ecoul>
-3.27899122238159

> <r_i_glide_erotb>
0.17920622674394

> <r_i_glide_esite>
-0.0587563850754278

> <r_i_glide_emodel>
-43.054953894405

> <r_i_glide_energy>
-31.4321494102478

> <r_i_glide_einternal>
2.59155011177063

> <i_i_glide_confnum>
1

> <i_i_glide_posenum>
391

> <r_i_glide_eff_state_penalty>
0

> <s_user_duplicate_titles>
305942

> <s_m_subgroup_title>
dock_pv

> <s_m_subgroupid>
dock_pv1

> <b_m_subgroup_collapsed>
0

$$$$
313660
                    3D
 Schrodinger Suite 2021-1.
 35 37  0  0  1  0            999 V2000
   33.8268    0.6282   29.6822 C   0  0  0  0  0  0
   34.2791   -0.5422   28.7969 C   0  0  0  0  0  0
   33.2005   -1.6128   28.5137 C   0  0  0  0  0  0
   32.0192   -1.1343   27.6742 C   0  0  0  0  0  0
   30.9763   -0.4227   28.2863 C   0  0  0  0  0  0
   29.8662    0.0407   27.5718 C   0  0  0  0  0  0
   29.7270   -0.2008   26.2051 C   0  0  0  0  0  0
   30.7412   -0.9266   25.5655 C   0  0  0  0  0  0
   31.8542   -1.3766   26.2964 C   0  0  0  0  0  0
   32.6599   -2.0550   25.4271 O   0  0  0  0  0  0
   31.9891   -1.9832   24.2310 C   0  0  0  0  0  0
   30.8594   -1.3096   24.2640 N   0  0  0  0  0  0
   32.5733   -2.6493   23.0241 C   0  0  0  0  0  0
   33.9326   -2.9578   23.0034 C   0  0  0  0  0  0
   34.5074   -3.5220   21.8677 C   0  0  0  0  0  0
   33.7281   -3.8041   20.7561 C   0  0  0  0  0  0
   32.3732   -3.5027   20.7622 C   0  0  0  0  0  0
   31.7936   -2.9423   21.8964 C   0  0  0  0  0  0
   34.2991   -4.3963   19.6641 O   0  0  0  0  0  0
   28.8942    0.7458   28.2257 O   0  0  0  0  0  0
   34.6649    1.2901   29.9059 H   0  0  0  0  0  0
   33.4229    0.2785   30.6347 H   0  0  0  0  0  0
   33.0652    1.2324   29.1904 H   0  0  0  0  0  0
   34.6714   -0.1444   27.8640 H   0  0  0  0  0  0
   35.1253   -1.0230   29.2885 H   0  0  0  0  0  0
   33.6497   -2.4747   28.0187 H   0  0  0  0  0  0
   32.8269   -2.0015   29.4633 H   0  0  0  0  0  0
   31.0268   -0.2149   29.3444 H   0  0  0  0  0  0
   28.8693    0.1464   25.6492 H   0  0  0  0  0  0
   34.5480   -2.7480   23.8627 H   0  0  0  0  0  0
   35.5633   -3.7428   21.8626 H   0  0  0  0  0  0
   31.7617   -3.7417   19.9032 H   0  0  0  0  0  0
   30.7374   -2.7217   21.8706 H   0  0  0  0  0  0
   35.1109   -4.8597   19.8901 H   0  0  0  0  0  0
   28.1690    0.9952   27.6492 H   0  0  0  0  0  0
  1  2  1  0  0  0
  1 21  1  0  0  0
  1 22  1  0  0  0
  1 23  1  0  0  0
  2  3  1  0  0  0
  2 24  1  0  0  0
  2 25  1  0  0  0
  3  4  1  0  0  0
  3 26  1  0  0  0
  3 27  1  0  0  0
  4  9  1  0  0  0
  4  5  2  0  0  0
  5  6  1  0  0  0
  5 28  1  0  0  0
  6  7  2  0  0  0
  6 20  1  0  0  0
  7  8  1  0  0  0
  7 29  1  0  0  0
  8 12  1  0  0  0
  8  9  2  0  0  0
  9 10  1  0  0  0
 10 11  1  0  0  0
 11 12  2  0  0  0
 11 13  1  0  0  0
 13 18  1  0  0  0
 13 14  2  0  0  0
 14 15  1  0  0  0
 14 30  1  0  0  0
 15 16  2  0  0  0
 15 31  1  0  0  0
 16 17  1  0  0  0
 16 19  1  0  0  0
 17 18  2  0  0  0
 17 32  1  0  0  0
 18 33  1  0  0  0
 19 34  1  0  0  0
 20 35  1  0  0  0
M  END
> <s_m_entry_id>
17712

> <s_m_entry_name>
ligand_docking-pose.639

> <s_m_Source_Path>
/home/csk/Desktop/cluster/DUD-E-result/esr1

> <s_m_Source_File>
ligand_docking-pose.sdf

> <i_m_Source_File_Index>
639

> <i_lp_mmshare_version>
53161

> <i_f3d_flags>
0

> <r_lp_tautomer_probability>
0.999999999997365

> <s_lp_Force_Field>
OPLS_2005

> <r_lp_Energy>
10.320442

> <b_lp_Chiralities_Consistent>
1

> <s_lp_Variant>
313660-1

> <s_i_glide_gridfile>
glide-grid_1sj0

> <i_i_glide_lignum>
1258

> <i_i_glide_rotatable_bonds>
5

> <r_i_docking_score>
-6.83059624155924

> <r_i_glide_ligand_efficiency>
-0.341529812077962

> <r_i_glide_ligand_efficiency_sa>
-0.927054537571032

> <r_i_glide_ligand_efficiency_ln>
-1.70947295112037

> <r_i_glide_gscore>
-6.83059624155924

> <r_i_glide_lipo>
-3.02521385219684

> <r_i_glide_hbond>
-0.246010122811354

> <r_i_glide_metal>
0

> <r_i_glide_rewards>
-2.12814761690955

> <r_i_glide_evdw>
-32.264820098877

> <r_i_glide_ecoul>
-2.07130932807922

> <r_i_glide_erotb>
0.492712754514241

> <r_i_glide_esite>
0

> <r_i_glide_emodel>
-46.7763632409807

> <r_i_glide_energy>
-34.3361294269562

> <r_i_glide_einternal>
1.6634840965271

> <i_i_glide_confnum>
5

> <i_i_glide_posenum>
207

> <r_i_glide_eff_state_penalty>
0

> <s_user_duplicate_titles>
313660

> <s_m_subgroup_title>
dock_pv

> <s_m_subgroupid>
dock_pv1

> <b_m_subgroup_collapsed>
0

$$$$
308649
                    3D
 Schrodinger Suite 2021-1.
 31 33  0  0  1  0            999 V2000
   33.8546   -1.1992   29.4278 C   0  0  0  0  0  0
   33.2601   -1.6868   28.2311 O   0  0  0  0  0  0
   32.1365   -1.0490   27.7607 C   0  0  0  0  0  0
   31.2934   -0.2046   28.4960 C   0  0  0  0  0  0
   30.1760    0.3875   27.9088 C   0  0  0  0  0  0
   29.8518    0.1589   26.5674 C   0  0  0  0  0  0
   30.6896   -0.6720   25.7994 C   0  0  0  0  0  0
   31.8099   -1.2684   26.4155 C   0  0  0  0  0  0
   32.5161   -2.0265   25.5208 O   0  0  0  0  0  0
   31.8765   -1.9230   24.3174 C   0  0  0  0  0  0
   30.7493   -1.1164   24.4408 C   0  0  0  0  0  0
   32.4920   -2.6293   23.1497 C   0  0  0  0  0  0
   33.8538   -2.9426   23.1680 C   0  0  0  0  0  0
   34.4593   -3.5086   22.0482 C   0  0  0  0  0  0
   33.7026   -3.8033   20.9223 C   0  0  0  0  0  0
   32.3451   -3.5088   20.8959 C   0  0  0  0  0  0
   31.7373   -2.9407   22.0110 C   0  0  0  0  0  0
   34.3008   -4.3911   19.8400 O   0  0  0  0  0  0
   28.4610    0.9103   25.8641 Cl  0  0  0  0  0  0
   29.3963    1.2185   28.6669 O   0  0  0  0  0  0
   34.7831   -1.7433   29.6063 H   0  0  0  0  0  0
   34.1103   -0.1409   29.3458 H   0  0  0  0  0  0
   33.2076   -1.3413   30.2927 H   0  0  0  0  0  0
   31.4959    0.0026   29.5379 H   0  0  0  0  0  0
   30.0614   -0.8692   23.6465 H   0  0  0  0  0  0
   34.4592   -2.7134   24.0325 H   0  0  0  0  0  0
   35.5166   -3.7173   22.0518 H   0  0  0  0  0  0
   31.7568   -3.7421   20.0185 H   0  0  0  0  0  0
   30.6878   -2.7069   21.9588 H   0  0  0  0  0  0
   35.1163   -4.8508   20.0743 H   0  0  0  0  0  0
   28.6280    1.5248   28.1763 H   0  0  0  0  0  0
  1  2  1  0  0  0
  1 21  1  0  0  0
  1 22  1  0  0  0
  1 23  1  0  0  0
  2  3  1  0  0  0
  3  8  1  0  0  0
  3  4  2  0  0  0
  4  5  1  0  0  0
  4 24  1  0  0  0
  5  6  2  0  0  0
  5 20  1  0  0  0
  6  7  1  0  0  0
  6 19  1  0  0  0
  7 11  1  0  0  0
  7  8  2  0  0  0
  8  9  1  0  0  0
  9 10  1  0  0  0
 10 11  2  0  0  0
 10 12  1  0  0  0
 11 25  1  0  0  0
 12 17  1  0  0  0
 12 13  2  0  0  0
 13 14  1  0  0  0
 13 26  1  0  0  0
 14 15  2  0  0  0
 14 27  1  0  0  0
 15 16  1  0  0  0
 15 18  1  0  0  0
 16 17  2  0  0  0
 16 28  1  0  0  0
 17 29  1  0  0  0
 18 30  1  0  0  0
 20 31  1  0  0  0
M  END
> <s_m_entry_id>
17713

> <s_m_entry_name>
ligand_docking-pose.640

> <s_m_Source_Path>
/home/csk/Desktop/cluster/DUD-E-result/esr1

> <s_m_Source_File>
ligand_docking-pose.sdf

> <i_m_Source_File_Index>
640

> <i_lp_mmshare_version>
53161

> <i_f3d_flags>
0

> <r_lp_tautomer_probability>
0.999999999997365

> <s_lp_Force_Field>
OPLS_2005

> <r_lp_Energy>
14.08968

> <b_lp_Chiralities_Consistent>
1

> <s_lp_Variant>
308649-1

> <s_i_glide_gridfile>
glide-grid_1sj0

> <i_i_glide_lignum>
1776

> <i_i_glide_rotatable_bonds>
4

> <r_i_docking_score>
-6.81471164562049

> <r_i_glide_ligand_efficiency>
-0.340735582281025

> <r_i_glide_ligand_efficiency_sa>
-0.924898666220754

> <r_i_glide_ligand_efficiency_ln>
-1.70549756066594

> <r_i_glide_gscore>
-6.81471164562049

> <r_i_glide_lipo>
-3.09939563574593

> <r_i_glide_hbond>
-0.32

> <r_i_glide_metal>
0

> <r_i_glide_rewards>
-1.74236298133315

> <r_i_glide_evdw>
-30.3915023803711

> <r_i_glide_ecoul>
-2.32729315757751

> <r_i_glide_erotb>
0.215716064113763

> <r_i_glide_esite>
0

> <r_i_glide_emodel>
-45.0385554943969

> <r_i_glide_energy>
-32.7187955379486

> <r_i_glide_einternal>
1.66419184207916

> <i_i_glide_confnum>
2

> <i_i_glide_posenum>
34

> <r_i_glide_eff_state_penalty>
0

> <s_user_duplicate_titles>
308649

> <s_m_subgroup_title>
dock_pv

> <s_m_subgroupid>
dock_pv1

> <b_m_subgroup_collapsed>
0

$$$$
