CHEMBL1994_lig1004
                    3D
 Schrodinger Suite 2021-1.
 54 57  0  0  1  0            999 V2000
   18.8158   74.0526   21.5963 C   0  0  1  0  0  0
   18.6814   70.3041   19.0923 C   0  0  1  0  0  0
   19.7975   70.1731   18.0150 C   0  0  0  0  0  0
   19.8591   73.8311   20.4733 C   0  0  2  0  0  0
   18.6077   71.7949   19.5955 C   0  0  2  0  0  0
   19.9991   72.3492   20.0356 C   0  0  1  0  0  0
   18.9937   75.5858   21.7808 C   0  0  2  0  0  0
   19.6270   69.4899   16.8591 C   0  0  0  0  0  0
   17.4539   73.6198   20.9845 C   0  0  0  0  0  0
   17.4444   72.1173   20.6097 C   0  0  2  0  0  0
   21.1060   74.5952   20.9155 C   0  0  0  0  0  0
   17.3066   69.9567   18.4345 C   0  0  0  0  0  0
   20.5348   75.8000   21.6720 C   0  0  0  0  0  0
   20.9788   72.2290   18.8471 C   0  0  0  0  0  0
   18.3670   76.1456   23.0867 C   0  0  0  0  0  0
   21.1545   70.7793   18.3819 C   0  0  0  0  0  0
   18.4050   68.7976   16.4781 C   0  0  0  0  0  0
   19.0400   76.6616   23.9737 O   0  0  0  0  0  0
   18.2666   68.2630   15.3819 O   0  0  0  0  0  0
   17.3222   68.7076   17.5504 C   0  0  0  0  0  0
   19.1495   73.2971   22.9255 C   0  0  0  0  0  0
   19.0414   69.2827   20.2078 C   0  0  0  0  0  0
   16.8632   76.0370   23.2704 C   0  0  0  0  0  0
   20.3750   71.7489   20.8635 H   0  0  0  0  0  0
   18.3501   72.3934   18.7177 H   0  0  0  0  0  0
   19.5067   74.3586   19.5807 H   0  0  0  0  0  0
   17.3793   71.3331   21.7810 O   0  0  0  0  0  0
   18.5107   76.1193   20.9609 H   0  0  0  0  0  0
   20.4636   69.4455   16.1786 H   0  0  0  0  0  0
   16.6343   73.8328   21.6674 H   0  0  0  0  0  0
   17.2319   74.2119   20.0947 H   0  0  0  0  0  0
   16.5017   71.9026   20.1167 H   0  0  0  0  0  0
   21.7163   74.9143   20.0710 H   0  0  0  0  0  0
   21.7359   73.9803   21.5606 H   0  0  0  0  0  0
   16.5367   69.8352   19.1912 H   0  0  0  0  0  0
   16.9629   70.7910   17.8198 H   0  0  0  0  0  0
   20.7517   76.7222   21.1332 H   0  0  0  0  0  0
   21.0329   75.8615   22.6415 H   0  0  0  0  0  0
   20.6356   72.8461   18.0144 H   0  0  0  0  0  0
   21.9462   72.6508   19.1169 H   0  0  0  0  0  0
   21.6410   70.1929   19.1619 H   0  0  0  0  0  0
   21.8383   70.7528   17.5307 H   0  0  0  0  0  0
   16.3554   68.4900   17.0977 H   0  0  0  0  0  0
   17.5808   67.8628   18.1802 H   0  0  0  0  0  0
   19.4295   72.2570   22.7793 H   0  0  0  0  0  0
   19.9832   73.7516   23.4595 H   0  0  0  0  0  0
   18.3017   73.3025   23.6109 H   0  0  0  0  0  0
   18.3378   69.2813   21.0306 H   0  0  0  0  0  0
   19.0223   68.2621   19.8293 H   0  0  0  0  0  0
   20.0242   69.4561   20.6450 H   0  0  0  0  0  0
   16.3343   76.1327   22.3251 H   0  0  0  0  0  0
   16.5080   76.8019   23.9612 H   0  0  0  0  0  0
   16.6394   75.0637   23.6995 H   0  0  0  0  0  0
   16.7509   71.7480   22.3827 H   0  0  0  0  0  0
  1  4  1  0  0  0
  1  7  1  0  0  0
  1  9  1  0  0  0
  1 21  1  0  0  0
  2  5  1  0  0  0
  2  3  1  0  0  0
  2 12  1  0  0  0
  2 22  1  0  0  0
  3  8  2  0  0  0
  3 16  1  0  0  0
  4  6  1  0  0  0
  4 11  1  0  0  0
  4 26  1  0  0  0
  5 10  1  0  0  0
  5 25  1  0  0  0
  5  6  1  0  0  0
  6 14  1  0  0  0
  6 24  1  0  0  0
  7 13  1  0  0  0
  7 15  1  0  0  0
  7 28  1  0  0  0
  8 17  1  0  0  0
  8 29  1  0  0  0
  9 10  1  0  0  0
  9 30  1  0  0  0
  9 31  1  0  0  0
 10 27  1  0  0  0
 10 32  1  0  0  0
 11 13  1  0  0  0
 11 33  1  0  0  0
 11 34  1  0  0  0
 12 20  1  0  0  0
 12 35  1  0  0  0
 12 36  1  0  0  0
 13 37  1  0  0  0
 13 38  1  0  0  0
 14 16  1  0  0  0
 14 39  1  0  0  0
 14 40  1  0  0  0
 15 18  2  0  0  0
 15 23  1  0  0  0
 16 41  1  0  0  0
 16 42  1  0  0  0
 17 20  1  0  0  0
 17 19  2  0  0  0
 20 43  1  0  0  0
 20 44  1  0  0  0
 21 45  1  0  0  0
 21 46  1  0  0  0
 21 47  1  0  0  0
 22 48  1  0  0  0
 22 49  1  0  0  0
 22 50  1  0  0  0
 23 51  1  0  0  0
 23 52  1  0  0  0
 23 53  1  0  0  0
 27 54  1  0  0  0
M  END
> <s_m_entry_id>
9562

> <s_m_entry_name>
dock_pv.2

> <s_m_Source_Path>
/home/csk/Desktop/cluster/DUD-E-result/mcr

> <s_m_Source_File>
dock_pv.maegz

> <i_m_Source_File_Index>
2

> <chembl_id>
CHEMBL2440888

> <chembl_pref_name>
11BETA-HYDROXYPROGESTERONE

> <i_lp_mmshare_version>
53161

> <i_f3d_flags>
0

> <r_lp_tautomer_probability>
0.99999997

> <s_lp_Force_Field>
OPLS_2005

> <r_lp_Energy>
57.782901

> <b_lp_Chiralities_Consistent>
1

> <s_lp_Variant>
CHEMBL1994_lig1004-1

> <s_i_glide_gridfile>
glide-grid_2aa2

> <i_i_glide_lignum>
1446

> <i_i_glide_rotatable_bonds>
2

> <r_i_docking_score>
-11.5606377311478

> <r_i_glide_ligand_efficiency>
-0.481693238797823

> <r_i_glide_ligand_efficiency_sa>
-1.38944373188038

> <r_i_glide_ligand_efficiency_ln>
-2.7669910921624

> <r_i_glide_gscore>
-11.5606377311478

> <r_i_glide_lipo>
-5.19637803533059

> <r_i_glide_hbond>
-0.336126585683766

> <r_i_glide_metal>
0

> <r_i_glide_rewards>
-2.9150519886887

> <r_i_glide_evdw>
-45.3553199768066

> <r_i_glide_ecoul>
-5.6354341506958

> <r_i_glide_erotb>
0

> <r_i_glide_esite>
0

> <r_i_glide_emodel>
-83.113739227622

> <r_i_glide_energy>
-50.9907541275024

> <r_i_glide_einternal>
3.28180408477783

> <i_i_glide_confnum>
2

> <i_i_glide_posenum>
68

> <r_i_glide_eff_state_penalty>
0

> <s_user_duplicate_titles>
CHEMBL1994_lig1004

> <s_m_subgroup_title>
dock_pv

> <s_m_subgroupid>
dock_pv

> <b_m_subgroup_collapsed>
1

$$$$
CHEMBL1994_lig107
                    3D
 Schrodinger Suite 2021-1.
 57 60  0  0  1  0            999 V2000
   17.4228   69.4390   18.5382 C   0  0  0  0  0  0
   17.2862   68.9110   17.3116 C   0  0  0  0  0  0
   18.3896   68.7539   16.3817 C   0  0  0  0  0  0
   19.6498   69.3223   16.8425 C   0  0  0  0  0  0
   19.8543   69.8620   18.0646 C   0  0  0  0  0  0
   21.2202   70.4257   18.4702 C   0  0  0  0  0  0
   21.0575   71.8693   18.9650 C   0  0  0  0  0  0
   20.0098   71.9827   20.1006 C   0  0  2  0  0  0
   18.6184   71.4392   19.6083 C   0  0  1  0  0  0
   18.7398   69.9402   19.1529 C   0  0  1  0  0  0
   17.3988   71.7863   20.5517 C   0  0  2  0  0  0
   17.4186   73.2460   20.9794 C   0  0  0  0  0  0
   18.7663   73.6242   21.6625 C   0  0  1  0  0  0
   19.8791   73.4347   20.6090 C   0  0  1  0  0  0
   21.0862   74.1351   21.2298 C   0  0  0  0  0  0
   20.4669   75.3989   21.8844 C   0  0  2  0  0  0
   18.9030   75.1586   21.9073 C   0  0  2  0  0  0
   19.0487   72.7779   22.9654 C   0  0  0  0  0  0
   19.1134   68.9642   20.3047 C   0  0  0  0  0  0
   18.1751   75.5682   23.2329 C   0  0  0  0  0  0
   16.8074   76.2624   23.1786 C   0  0  0  0  0  0
   20.9641   76.6325   21.1005 C   0  0  0  0  0  0
   18.3241   72.1394   18.4991 F   0  0  0  0  0  0
   18.2410   68.2620   15.2700 O   0  0  0  0  0  0
   17.2227   71.0620   21.7379 O   0  0  0  0  0  0
   18.2411   75.8622   20.8714 O   0  0  0  0  0  0
   18.6410   75.2784   24.3316 O   0  0  0  0  0  0
   16.2410   76.2620   24.4700 O   0  0  0  0  0  0
   19.6223   74.0120   19.7156 H   0  0  0  0  0  0
   20.3499   71.3545   20.9208 H   0  0  0  0  0  0
   16.5212   69.5012   19.1283 H   0  0  0  0  0  0
   16.3001   68.5902   17.0100 H   0  0  0  0  0  0
   20.4828   69.3045   16.1550 H   0  0  0  0  0  0
   21.6908   69.8179   19.2420 H   0  0  0  0  0  0
   21.9173   70.4098   17.6307 H   0  0  0  0  0  0
   20.7793   72.5178   18.1320 H   0  0  0  0  0  0
   22.0214   72.2583   19.2949 H   0  0  0  0  0  0
   16.4841   71.6125   19.9966 H   0  0  0  0  0  0
   16.5918   73.4709   21.6565 H   0  0  0  0  0  0
   17.2195   73.8411   20.0876 H   0  0  0  0  0  0
   21.8406   74.3508   20.4717 H   0  0  0  0  0  0
   21.5923   73.5164   21.9622 H   0  0  0  0  0  0
   20.8464   75.4697   22.9060 H   0  0  0  0  0  0
   19.3526   71.7514   22.7759 H   0  0  0  0  0  0
   19.8415   73.2039   23.5744 H   0  0  0  0  0  0
   18.1733   72.7288   23.6121 H   0  0  0  0  0  0
   19.0410   67.9231   19.9878 H   0  0  0  0  0  0
   20.1256   69.1085   20.6788 H   0  0  0  0  0  0
   18.4698   69.0618   21.1697 H   0  0  0  0  0  0
   16.1388   75.7626   22.4767 H   0  0  0  0  0  0
   16.9478   77.2952   22.8700 H   0  0  0  0  0  0
   21.1626   76.3648   20.0701 H   0  0  0  0  0  0
   20.2418   77.4460   21.0662 H   0  0  0  0  0  0
   21.9045   77.0065   21.5019 H   0  0  0  0  0  0
   16.6400   71.5673   22.3149 H   0  0  0  0  0  0
   18.8878   76.1101   20.2030 H   0  0  0  0  0  0
   16.9120   76.5923   25.0835 H   0  0  0  0  0  0
  1  2  2  0  0  0
  1 10  1  0  0  0
  1 31  1  0  0  0
  2  3  1  0  0  0
  2 32  1  0  0  0
  3  4  1  0  0  0
  3 24  2  0  0  0
  4  5  2  0  0  0
  4 33  1  0  0  0
  5  6  1  0  0  0
  5 10  1  0  0  0
  6  7  1  0  0  0
  6 34  1  0  0  0
  6 35  1  0  0  0
  7  8  1  0  0  0
  7 36  1  0  0  0
  7 37  1  0  0  0
  8  9  1  0  0  0
  8 14  1  0  0  0
  8 30  1  0  0  0
  9 10  1  0  0  0
  9 11  1  0  0  0
  9 23  1  0  0  0
 10 19  1  0  0  0
 11 12  1  0  0  0
 11 25  1  0  0  0
 11 38  1  0  0  0
 12 13  1  0  0  0
 12 39  1  0  0  0
 12 40  1  0  0  0
 13 14  1  0  0  0
 13 17  1  0  0  0
 13 18  1  0  0  0
 14 15  1  0  0  0
 14 29  1  0  0  0
 15 16  1  0  0  0
 15 41  1  0  0  0
 15 42  1  0  0  0
 16 17  1  0  0  0
 16 22  1  0  0  0
 16 43  1  0  0  0
 17 20  1  0  0  0
 17 26  1  0  0  0
 18 44  1  0  0  0
 18 45  1  0  0  0
 18 46  1  0  0  0
 19 47  1  0  0  0
 19 48  1  0  0  0
 19 49  1  0  0  0
 20 21  1  0  0  0
 20 27  2  0  0  0
 21 28  1  0  0  0
 21 50  1  0  0  0
 21 51  1  0  0  0
 22 52  1  0  0  0
 22 53  1  0  0  0
 22 54  1  0  0  0
 25 55  1  0  0  0
 26 56  1  0  0  0
 28 57  1  0  0  0
M  END
> <s_m_entry_id>
9563

> <s_m_entry_name>
dock_pv.3

> <s_m_Source_Path>
/home/csk/Desktop/cluster/DUD-E-result/mcr

> <s_m_Source_File>
dock_pv.maegz

> <i_m_Source_File_Index>
3

> <chembl_id>
CHEMBL384467

> <chembl_pref_name>
DEXAMETHASONE

> <i_lp_mmshare_version>
53161

> <i_f3d_flags>
0

> <r_lp_tautomer_probability>
1

> <s_lp_Force_Field>
OPLS_2005

> <r_lp_Energy>
61.72611

> <b_lp_Chiralities_Consistent>
1

> <s_lp_Variant>
CHEMBL1994_lig107-1

> <s_i_glide_gridfile>
glide-grid_2aa2

> <i_i_glide_lignum>
167

> <i_i_glide_rotatable_bonds>
5

> <r_i_docking_score>
-11.2599931189122

> <r_i_glide_ligand_efficiency>
-0.40214261138972

> <r_i_glide_ligand_efficiency_sa>
-1.22114181751094

> <r_i_glide_ligand_efficiency_ln>
-2.5991370196087

> <r_i_glide_gscore>
-11.2599931189122

> <r_i_glide_lipo>
-5.03343648268847

> <r_i_glide_hbond>
-0.238958845443214

> <r_i_glide_metal>
0

> <r_i_glide_rewards>
-2.88544410978281

> <r_i_glide_evdw>
-32.7103843688965

> <r_i_glide_ecoul>
-11.4677562713623

> <r_i_glide_erotb>
0.253528978151508

> <r_i_glide_esite>
0

> <r_i_glide_emodel>
-52.2518020319029

> <r_i_glide_energy>
-44.1781406402588

> <r_i_glide_einternal>
1.89557182788849

> <i_i_glide_confnum>
4

> <i_i_glide_posenum>
47

> <r_i_glide_eff_state_penalty>
0

> <s_user_duplicate_titles>
CHEMBL1994_lig107,365281

> <s_m_subgroup_title>
dock_pv

> <s_m_subgroupid>
dock_pv

> <b_m_subgroup_collapsed>
1

$$$$
CHEMBL1994_lig8
                    3D
 Schrodinger Suite 2021-1.
 53 56  0  0  1  0            999 V2000
   17.3306   69.9345   18.3196 C   0  0  0  0  0  0
   17.3769   68.6730   17.4622 C   0  0  0  0  0  0
   18.4563   68.7687   16.3922 C   0  0  0  0  0  0
   18.3062   68.2626   15.2843 O   0  0  0  0  0  0
   19.6773   69.4620   16.7678 C   0  0  0  0  0  0
   19.8339   70.1679   17.9130 C   0  0  0  0  0  0
   21.1787   70.8072   18.2740 C   0  0  0  0  0  0
   20.9804   72.2520   18.7594 C   0  0  0  0  0  0
   20.0006   72.3118   19.9483 C   0  0  2  0  0  0
   18.6153   71.7863   19.4584 C   0  0  1  0  0  0
   18.7009   70.3039   18.9723 C   0  0  1  0  0  0
   17.4484   72.0428   20.4704 C   0  0  0  0  0  0
   17.4350   73.4933   20.9733 C   0  0  0  0  0  0
   18.7793   73.7939   21.6565 C   0  0  1  0  0  0
   19.8544   73.7334   20.5402 C   0  0  1  0  0  0
   21.0861   74.4025   21.1474 C   0  0  0  0  0  0
   20.4947   75.4622   22.0881 C   0  0  0  0  0  0
   18.9518   75.2749   22.0710 C   0  0  2  0  0  0
   19.0336   72.8007   22.8467 C   0  0  0  0  0  0
   19.0398   69.3261   20.1349 C   0  0  0  0  0  0
   18.2412   75.6450   23.3968 C   0  0  0  0  0  0
   18.5546   75.1419   24.4697 O   0  0  0  0  0  0
   17.0905   76.6367   23.3462 C   0  0  0  0  0  0
   19.5405   74.3730   19.7088 H   0  0  0  0  0  0
   18.3669   72.4126   18.5964 H   0  0  0  0  0  0
   20.3926   71.6592   20.7249 H   0  0  0  0  0  0
   16.5628   69.7999   19.0800 H   0  0  0  0  0  0
   16.9735   70.7556   17.6934 H   0  0  0  0  0  0
   16.4154   68.4099   17.0207 H   0  0  0  0  0  0
   17.6669   67.8619   18.1227 H   0  0  0  0  0  0
   20.5150   69.4059   16.0890 H   0  0  0  0  0  0
   21.6779   70.2218   19.0456 H   0  0  0  0  0  0
   21.8567   70.7990   17.4197 H   0  0  0  0  0  0
   20.6396   72.8975   17.9481 H   0  0  0  0  0  0
   21.9436   72.6628   19.0565 H   0  0  0  0  0  0
   16.4869   71.8075   20.0347 H   0  0  0  0  0  0
   17.5053   71.3678   21.3213 H   0  0  0  0  0  0
   16.6076   73.6324   21.6697 H   0  0  0  0  0  0
   17.2416   74.1838   20.1496 H   0  0  0  0  0  0
   21.7098   74.8617   20.3789 H   0  0  0  0  0  0
   21.7143   73.6877   21.6762 H   0  0  0  0  0  0
   20.7459   76.4368   21.6701 H   0  0  0  0  0  0
   20.9338   75.4023   23.0870 H   0  0  0  0  0  0
   18.5326   75.9296   21.3045 H   0  0  0  0  0  0
   19.2837   71.7874   22.5425 H   0  0  0  0  0  0
   19.8412   73.1331   23.4942 H   0  0  0  0  0  0
   18.1544   72.7141   23.4824 H   0  0  0  0  0  0
   18.3211   69.3864   20.9475 H   0  0  0  0  0  0
   19.0402   68.2866   19.8083 H   0  0  0  0  0  0
   20.0178   69.5089   20.5777 H   0  0  0  0  0  0
   17.4414   77.6106   23.0083 H   0  0  0  0  0  0
   16.6580   76.7657   24.3407 H   0  0  0  0  0  0
   16.3073   76.2690   22.6805 H   0  0  0  0  0  0
  1  2  1  0  0  0
  1 11  1  0  0  0
  1 27  1  0  0  0
  1 28  1  0  0  0
  2  3  1  0  0  0
  2 29  1  0  0  0
  2 30  1  0  0  0
  3  4  2  0  0  0
  3  5  1  0  0  0
  5  6  2  0  0  0
  5 31  1  0  0  0
  6  7  1  0  0  0
  6 11  1  0  0  0
  7  8  1  0  0  0
  7 32  1  0  0  0
  7 33  1  0  0  0
  8  9  1  0  0  0
  8 34  1  0  0  0
  8 35  1  0  0  0
  9 10  1  0  0  0
  9 15  1  0  0  0
  9 26  1  0  0  0
 10 11  1  0  0  0
 10 12  1  0  0  0
 10 25  1  0  0  0
 11 20  1  0  0  0
 12 13  1  0  0  0
 12 36  1  0  0  0
 12 37  1  0  0  0
 13 14  1  0  0  0
 13 38  1  0  0  0
 13 39  1  0  0  0
 14 15  1  0  0  0
 14 18  1  0  0  0
 14 19  1  0  0  0
 15 16  1  0  0  0
 15 24  1  0  0  0
 16 17  1  0  0  0
 16 40  1  0  0  0
 16 41  1  0  0  0
 17 18  1  0  0  0
 17 42  1  0  0  0
 17 43  1  0  0  0
 18 21  1  0  0  0
 18 44  1  0  0  0
 19 45  1  0  0  0
 19 46  1  0  0  0
 19 47  1  0  0  0
 20 48  1  0  0  0
 20 49  1  0  0  0
 20 50  1  0  0  0
 21 22  2  0  0  0
 21 23  1  0  0  0
 23 51  1  0  0  0
 23 52  1  0  0  0
 23 53  1  0  0  0
M  END
> <s_m_entry_id>
9564

> <s_m_entry_name>
dock_pv.4

> <s_m_Source_Path>
/home/csk/Desktop/cluster/DUD-E-result/mcr

> <s_m_Source_File>
dock_pv.maegz

> <i_m_Source_File_Index>
4

> <chembl_id>
CHEMBL103

> <chembl_pref_name>
PROGESTERONE

> <i_lp_mmshare_version>
53161

> <i_f3d_flags>
0

> <r_lp_tautomer_probability>
0.99999997

> <s_lp_Force_Field>
OPLS_2005

> <r_lp_Energy>
48.124674

> <b_lp_Chiralities_Consistent>
1

> <s_lp_Variant>
CHEMBL1994_lig8-1

> <s_i_glide_gridfile>
glide-grid_2aa2

> <i_i_glide_lignum>
8

> <i_i_glide_rotatable_bonds>
1

> <r_i_docking_score>
-11.1752112359491

> <r_i_glide_ligand_efficiency>
-0.485878749389092

> <r_i_glide_ligand_efficiency_sa>
-1.38177453015503

> <r_i_glide_ligand_efficiency_ln>
-2.70226740806559

> <r_i_glide_gscore>
-11.1752112359491

> <r_i_glide_lipo>
-5.29870918656223

> <r_i_glide_hbond>
-0.0698497410741802

> <r_i_glide_metal>
0

> <r_i_glide_rewards>
-3.04143939098482

> <r_i_glide_evdw>
-47.2788429260254

> <r_i_glide_ecoul>
-2.67513847351074

> <r_i_glide_erotb>
0

> <r_i_glide_esite>
0

> <r_i_glide_emodel>
-79.8036451943389

> <r_i_glide_energy>
-49.9539813995361

> <r_i_glide_einternal>
1.8286817073822

> <i_i_glide_confnum>
1

> <i_i_glide_posenum>
259

> <r_i_glide_eff_state_penalty>
0

> <s_user_duplicate_titles>
CHEMBL1994_lig8

> <s_m_subgroup_title>
dock_pv

> <s_m_subgroupid>
dock_pv

> <b_m_subgroup_collapsed>
1

$$$$
CHEMBL1994_lig361
                    3D
 Schrodinger Suite 2021-1.
 54 57  0  0  1  0            999 V2000
   19.7511   73.8717   20.4828 C   0  0  2  0  0  0
   17.3520   73.5497   21.0676 C   0  0  0  0  0  0
   19.1939   73.3356   22.9167 C   0  0  0  0  0  0
   18.6723   70.3162   19.0924 C   0  0  1  0  0  0
   19.7944   70.2097   18.0237 C   0  0  0  0  0  0
   19.6576   69.4651   16.9050 C   0  0  0  0  0  0
   18.4979   68.6395   16.6131 C   0  0  0  0  0  0
   19.0405   69.2745   20.1921 C   0  0  0  0  0  0
   20.4145   75.8615   21.6854 C   0  0  0  0  0  0
   18.8745   75.6201   21.8339 C   0  0  2  0  0  0
   18.3032   76.1661   23.1782 C   0  0  0  0  0  0
   16.8034   76.0527   23.4515 C   0  0  0  0  0  0
   20.9882   74.6949   20.8669 C   0  0  0  0  0  0
   18.7157   74.0776   21.6222 C   0  0  1  0  0  0
   19.9332   72.3949   20.0365 C   0  0  1  0  0  0
   18.5615   71.8069   19.5876 C   0  0  2  0  0  0
   17.3934   72.0769   20.5967 C   0  0  1  0  0  0
   17.3507   71.2280   21.7165 O   0  0  0  0  0  0
   18.4678   72.6637   23.6417 O   0  0  0  0  0  0
   18.4987   67.8625   15.6700 O   0  0  0  0  0  0
   17.3325   68.6689   17.6009 C   0  0  0  0  0  0
   17.3067   69.9532   18.4258 C   0  0  0  0  0  0
   21.1275   70.8781   18.3700 C   0  0  0  0  0  0
   20.8947   72.3174   18.8330 C   0  0  0  0  0  0
   19.0412   76.6620   24.0254 O   0  0  0  0  0  0
   16.5670   76.2620   24.8308 O   0  0  0  0  0  0
   18.2866   72.4050   18.7148 H   0  0  0  0  0  0
   20.3253   71.7982   20.8611 H   0  0  0  0  0  0
   19.3555   74.3820   19.5990 H   0  0  0  0  0  0
   16.4805   73.7680   21.6706 H   0  0  0  0  0  0
   17.1198   74.1465   20.1838 H   0  0  0  0  0  0
   20.2424   73.4737   23.1640 H   0  0  0  0  0  0
   20.5007   69.4118   16.2331 H   0  0  0  0  0  0
   18.3308   69.2211   21.0056 H   0  0  0  0  0  0
   19.0433   68.2611   19.7931 H   0  0  0  0  0  0
   20.0155   69.4621   20.6409 H   0  0  0  0  0  0
   20.6110   76.8111   21.1873 H   0  0  0  0  0  0
   20.9415   75.8620   22.6419 H   0  0  0  0  0  0
   18.3549   76.1590   21.0404 H   0  0  0  0  0  0
   16.4282   75.0705   23.1918 H   0  0  0  0  0  0
   16.2683   76.8002   22.8715 H   0  0  0  0  0  0
   21.5373   75.0611   20.0024 H   0  0  0  0  0  0
   21.6926   74.1013   21.4529 H   0  0  0  0  0  0
   16.4529   71.8623   20.0992 H   0  0  0  0  0  0
   17.4647   71.7676   22.5129 H   0  0  0  0  0  0
   16.3917   68.4616   17.0917 H   0  0  0  0  0  0
   17.5080   67.8621   18.3032 H   0  0  0  0  0  0
   16.5338   69.8554   19.1865 H   0  0  0  0  0  0
   16.9730   70.7631   17.7737 H   0  0  0  0  0  0
   21.6445   70.3174   19.1494 H   0  0  0  0  0  0
   21.8018   70.8739   17.5120 H   0  0  0  0  0  0
   20.5162   72.9202   18.0052 H   0  0  0  0  0  0
   21.8416   72.7816   19.0916 H   0  0  0  0  0  0
   17.2534   76.8522   25.1865 H   0  0  0  0  0  0
  1 13  1  0  0  0
  1 14  1  0  0  0
  1 15  1  0  0  0
  1 29  1  0  0  0
  2 14  1  0  0  0
  2 17  1  0  0  0
  2 30  1  0  0  0
  2 31  1  0  0  0
  3 14  1  0  0  0
  3 19  2  0  0  0
  3 32  1  0  0  0
  4  5  1  0  0  0
  4  8  1  0  0  0
  4 16  1  0  0  0
  4 22  1  0  0  0
  5  6  2  0  0  0
  5 23  1  0  0  0
  6  7  1  0  0  0
  6 33  1  0  0  0
  7 20  2  0  0  0
  7 21  1  0  0  0
  8 34  1  0  0  0
  8 35  1  0  0  0
  8 36  1  0  0  0
  9 10  1  0  0  0
  9 13  1  0  0  0
  9 37  1  0  0  0
  9 38  1  0  0  0
 10 11  1  0  0  0
 10 14  1  0  0  0
 10 39  1  0  0  0
 11 12  1  0  0  0
 11 25  2  0  0  0
 12 26  1  0  0  0
 12 40  1  0  0  0
 12 41  1  0  0  0
 13 42  1  0  0  0
 13 43  1  0  0  0
 15 16  1  0  0  0
 15 24  1  0  0  0
 15 28  1  0  0  0
 16 17  1  0  0  0
 16 27  1  0  0  0
 17 18  1  0  0  0
 17 44  1  0  0  0
 18 45  1  0  0  0
 21 22  1  0  0  0
 21 46  1  0  0  0
 21 47  1  0  0  0
 22 48  1  0  0  0
 22 49  1  0  0  0
 23 24  1  0  0  0
 23 50  1  0  0  0
 23 51  1  0  0  0
 24 52  1  0  0  0
 24 53  1  0  0  0
 26 54  1  0  0  0
M  END
> <s_m_entry_id>
9565

> <s_m_entry_name>
dock_pv.5

> <s_m_Source_Path>
/home/csk/Desktop/cluster/DUD-E-result/mcr

> <s_m_Source_File>
dock_pv.maegz

> <i_m_Source_File_Index>
5

> <chembl_id>
CHEMBL273453

> <chembl_pref_name>
ALDOSTERONE

> <i_lp_mmshare_version>
53161

> <i_f3d_flags>
0

> <r_lp_tautomer_probability>
0.99990000499975

> <s_lp_Force_Field>
OPLS_2005

> <r_lp_Energy>
55.916606

> <b_lp_Chiralities_Consistent>
1

> <s_lp_Variant>
CHEMBL1994_lig361-1

> <s_i_glide_gridfile>
glide-grid_2aa2

> <i_i_glide_lignum>
600

> <i_i_glide_rotatable_bonds>
5

> <r_i_docking_score>
-11.1586584801486

> <r_i_glide_ligand_efficiency>
-0.429179172313407

> <r_i_glide_ligand_efficiency_sa>
-1.27144160923997

> <r_i_glide_ligand_efficiency_ln>
-2.620574329518

> <r_i_glide_gscore>
-11.1586584801486

> <r_i_glide_lipo>
-4.94292665097585

> <r_i_glide_hbond>
-0.185196631782197

> <r_i_glide_metal>
0

> <r_i_glide_rewards>
-3.02832259034197

> <r_i_glide_evdw>
-35.6734199523926

> <r_i_glide_ecoul>
-10.0919055938721

> <r_i_glide_erotb>
0.295244229651889

> <r_i_glide_esite>
0

> <r_i_glide_emodel>
-74.3097311533286

> <r_i_glide_energy>
-45.7653255462646

> <r_i_glide_einternal>
0.94500720500946

> <i_i_glide_confnum>
9

> <i_i_glide_posenum>
203

> <r_i_glide_eff_state_penalty>
0

> <s_user_duplicate_titles>
CHEMBL1994_lig361,11212

> <s_m_subgroup_title>
dock_pv

> <s_m_subgroupid>
dock_pv

> <b_m_subgroup_collapsed>
1

$$$$
CHEMBL1994_lig1
                    3D
 Schrodinger Suite 2021-1.
 54 57  0  0  1  0            999 V2000
   19.1570   72.6887   22.9890 C   0  0  0  0  0  0
   18.9517   73.6186   21.7354 C   0  0  2  0  0  0
   17.6078   73.3301   21.0118 C   0  0  0  0  0  0
   17.5287   71.8724   20.5444 C   0  0  2  0  0  0
   17.2651   71.0620   21.6657 O   0  0  0  0  0  0
   18.7632   71.4884   19.6411 C   0  0  1  0  0  0
   20.1640   71.9979   20.1402 C   0  0  1  0  0  0
   21.1676   71.8838   18.9683 C   0  0  0  0  0  0
   21.3040   70.4378   18.4628 C   0  0  0  0  0  0
   19.9243   69.8832   18.0860 C   0  0  0  0  0  0
   19.6883   69.3426   16.8698 C   0  0  0  0  0  0
   18.4101   68.7916   16.4367 C   0  0  0  0  0  0
   18.2409   68.2620   15.3431 O   0  0  0  0  0  0
   17.3208   69.0070   17.3739 C   0  0  0  0  0  0
   17.4911   69.5397   18.5951 C   0  0  0  0  0  0
   18.8335   69.9872   19.1934 C   0  0  2  0  0  0
   19.1946   68.9906   20.3317 C   0  0  0  0  0  0
   20.0546   73.4557   20.6589 C   0  0  2  0  0  0
   21.2847   74.1962   21.2158 C   0  0  0  0  0  0
   20.7102   75.2413   22.2080 C   0  0  0  0  0  0
   19.1655   75.1189   22.0961 C   0  0  1  0  0  0
   18.7122   75.9729   21.0745 O   0  0  0  0  0  0
   18.3833   75.5463   23.3717 C   0  0  0  0  0  0
   18.6410   75.0619   24.4700 O   0  0  0  0  0  0
   17.2460   76.5632   23.2315 C   0  0  0  0  0  0
   16.6410   76.7752   24.4700 O   0  0  0  0  0  0
   19.4407   71.6669   22.7503 H   0  0  0  0  0  0
   19.9175   73.0621   23.6699 H   0  0  0  0  0  0
   18.2439   72.6232   23.5820 H   0  0  0  0  0  0
   16.7697   73.5613   21.6700 H   0  0  0  0  0  0
   17.4633   73.9818   20.1487 H   0  0  0  0  0  0
   16.6410   71.8000   19.9267 H   0  0  0  0  0  0
   16.6409   71.5287   22.2308 H   0  0  0  0  0  0
   18.5748   72.0726   18.7361 H   0  0  0  0  0  0
   20.5166   71.3499   20.9395 H   0  0  0  0  0  0
   20.8637   72.5387   18.1495 H   0  0  0  0  0  0
   22.1448   72.2624   19.2696 H   0  0  0  0  0  0
   21.7869   69.8224   19.2211 H   0  0  0  0  0  0
   21.9803   70.4193   17.6067 H   0  0  0  0  0  0
   20.5071   69.3106   16.1659 H   0  0  0  0  0  0
   16.3199   68.7231   17.0838 H   0  0  0  0  0  0
   16.6017   69.6425   19.1984 H   0  0  0  0  0  0
   19.0410   67.9583   20.0130 H   0  0  0  0  0  0
   20.2288   69.0765   20.6612 H   0  0  0  0  0  0
   18.5966   69.1095   21.2264 H   0  0  0  0  0  0
   19.7629   74.0273   19.7733 H   0  0  0  0  0  0
   21.8274   74.6969   20.4128 H   0  0  0  0  0  0
   21.9922   73.5117   21.6775 H   0  0  0  0  0  0
   21.0692   76.2406   21.9563 H   0  0  0  0  0  0
   21.0585   75.0415   23.2207 H   0  0  0  0  0  0
   19.3340   75.9478   20.3424 H   0  0  0  0  0  0
   16.5012   76.1981   22.5236 H   0  0  0  0  0  0
   17.6501   77.5019   22.8701 H   0  0  0  0  0  0
   17.3150   77.0624   25.1096 H   0  0  0  0  0  0
  1  2  1  0  0  0
  1 27  1  0  0  0
  1 28  1  0  0  0
  1 29  1  0  0  0
  2  3  1  0  0  0
  2 18  1  0  0  0
  2 21  1  0  0  0
  3  4  1  0  0  0
  3 30  1  0  0  0
  3 31  1  0  0  0
  4  5  1  0  0  0
  4  6  1  0  0  0
  4 32  1  0  0  0
  5 33  1  0  0  0
  6  7  1  0  0  0
  6 16  1  0  0  0
  6 34  1  0  0  0
  7  8  1  0  0  0
  7 18  1  0  0  0
  7 35  1  0  0  0
  8  9  1  0  0  0
  8 36  1  0  0  0
  8 37  1  0  0  0
  9 10  1  0  0  0
  9 38  1  0  0  0
  9 39  1  0  0  0
 10 11  2  0  0  0
 10 16  1  0  0  0
 11 12  1  0  0  0
 11 40  1  0  0  0
 12 13  2  0  0  0
 12 14  1  0  0  0
 14 15  2  0  0  0
 14 41  1  0  0  0
 15 16  1  0  0  0
 15 42  1  0  0  0
 16 17  1  0  0  0
 17 43  1  0  0  0
 17 44  1  0  0  0
 17 45  1  0  0  0
 18 19  1  0  0  0
 18 46  1  0  0  0
 19 20  1  0  0  0
 19 47  1  0  0  0
 19 48  1  0  0  0
 20 21  1  0  0  0
 20 49  1  0  0  0
 20 50  1  0  0  0
 21 22  1  0  0  0
 21 23  1  0  0  0
 22 51  1  0  0  0
 23 24  2  0  0  0
 23 25  1  0  0  0
 25 26  1  0  0  0
 25 52  1  0  0  0
 25 53  1  0  0  0
 26 54  1  0  0  0
M  END
> <s_m_entry_id>
9566

> <s_m_entry_name>
dock_pv.6

> <s_m_Source_Path>
/home/csk/Desktop/cluster/DUD-E-result/mcr

> <s_m_Source_File>
dock_pv.maegz

> <i_m_Source_File_Index>
6

> <chembl_id>
CHEMBL131

> <chembl_pref_name>
PREDNISOLONE

> <i_lp_mmshare_version>
53161

> <i_f3d_flags>
0

> <r_lp_tautomer_probability>
1

> <s_lp_Force_Field>
OPLS_2005

> <r_lp_Energy>
54.785196

> <b_lp_Chiralities_Consistent>
1

> <s_lp_Variant>
CHEMBL1994_lig1-1

> <s_i_glide_gridfile>
glide-grid_2aa2

> <i_i_glide_lignum>
1

> <i_i_glide_rotatable_bonds>
5

> <r_i_docking_score>
-10.9132707257913

> <r_i_glide_ligand_efficiency>
-0.419741181761204

> <r_i_glide_ligand_efficiency_sa>
-1.24348159936577

> <r_i_glide_ligand_efficiency_ln>
-2.5629458205901

> <r_i_glide_gscore>
-10.9132707257913

> <r_i_glide_lipo>
-4.89424338437539

> <r_i_glide_hbond>
-0.189819905842432

> <r_i_glide_metal>
0

> <r_i_glide_rewards>
-2.70618732387101

> <r_i_glide_evdw>
-36.7017707824707

> <r_i_glide_ecoul>
-10.5545053482056

> <r_i_glide_erotb>
0.295244229651889

> <r_i_glide_esite>
0

> <r_i_glide_emodel>
-75.0434123326502

> <r_i_glide_energy>
-47.2562761306763

> <r_i_glide_einternal>
2.44687843322754

> <i_i_glide_confnum>
5

> <i_i_glide_posenum>
373

> <r_i_glide_eff_state_penalty>
0

> <s_user_duplicate_titles>
CHEMBL1994_lig1,27370

> <s_m_subgroup_title>
dock_pv

> <s_m_subgroupid>
dock_pv

> <b_m_subgroup_collapsed>
1

$$$$
CHEMBL1994_lig836
                    3D
 Schrodinger Suite 2021-1.
 51 55  0  0  1  0            999 V2000
   19.0410   72.4400   22.9766 C   0  0  0  0  0  0
   18.8807   73.4916   21.8335 C   0  0  2  0  0  0
   17.5388   73.2177   21.0864 C   0  0  0  0  0  0
   17.5597   71.8194   20.4855 C   0  0  0  0  0  0
   18.7247   71.6915   19.4701 C   0  0  1  0  0  0
   20.1051   72.1088   20.0544 C   0  0  1  0  0  0
   21.1355   72.0981   18.9116 C   0  0  0  0  0  0
   21.3184   70.6712   18.3876 C   0  0  0  0  0  0
   19.9741   70.1038   17.9332 C   0  0  0  0  0  0
   19.8538   69.4418   16.7699 C   0  0  0  0  0  0
   18.6400   68.7735   16.3622 C   0  0  0  0  0  0
   18.5286   68.2605   15.2700 O   0  0  0  0  0  0
   17.5207   68.6621   17.3815 C   0  0  0  0  0  0
   17.4294   69.9220   18.2087 C   0  0  0  0  0  0
   18.7762   70.2672   18.9022 C   0  0  2  0  0  0
   19.9537   73.4942   20.7102 C   0  0  2  0  0  0
   21.1725   74.2303   21.2492 C   0  0  0  0  0  0
   20.5413   75.3418   22.0842 C   0  0  0  0  0  0
   19.0803   74.9260   22.4056 C   0  0  2  0  0  0
   18.9494   74.9917   23.8185 O   0  0  0  0  0  0
   17.6662   75.4686   24.1520 C   0  0  0  0  0  0
   17.1509   76.0990   22.9036 C   0  0  0  0  0  0
   18.0198   75.8622   21.9210 C   0  0  0  0  0  0
   19.2623   71.4325   22.6344 H   0  0  0  0  0  0
   19.8408   72.7091   23.6638 H   0  0  0  0  0  0
   18.1361   72.3785   23.5812 H   0  0  0  0  0  0
   16.6786   73.3134   21.7379 H   0  0  0  0  0  0
   17.3569   73.9402   20.2887 H   0  0  0  0  0  0
   16.6062   71.6284   20.0099 H   0  0  0  0  0  0
   17.6281   71.0576   21.2605 H   0  0  0  0  0  0
   18.5034   72.3889   18.6577 H   0  0  0  0  0  0
   20.4173   71.3845   20.8064 H   0  0  0  0  0  0
   20.8479   72.7898   18.1174 H   0  0  0  0  0  0
   22.0933   72.4739   19.2714 H   0  0  0  0  0  0
   21.7454   70.0392   19.1679 H   0  0  0  0  0  0
   22.0447   70.6682   17.5730 H   0  0  0  0  0  0
   20.7209   69.3600   16.1308 H   0  0  0  0  0  0
   16.5808   68.3893   16.9008 H   0  0  0  0  0  0
   17.7978   67.8617   18.0572 H   0  0  0  0  0  0
   16.6435   69.7586   18.9431 H   0  0  0  0  0  0
   17.0855   70.7540   17.5909 H   0  0  0  0  0  0
   18.9330   69.5695   19.7276 H   0  0  0  0  0  0
   19.5973   74.1477   19.9066 H   0  0  0  0  0  0
   21.8047   73.5786   21.8455 H   0  0  0  0  0  0
   21.7949   74.6397   20.4528 H   0  0  0  0  0  0
   20.5535   76.2679   21.5104 H   0  0  0  0  0  0
   21.1326   75.5226   22.9836 H   0  0  0  0  0  0
   17.0419   74.6741   24.5567 H   0  0  0  0  0  0
   17.7644   76.2612   24.8753 H   0  0  0  0  0  0
   16.2419   76.6796   22.8712 H   0  0  0  0  0  0
   17.9610   76.1960   20.8950 H   0  0  0  0  0  0
  1  2  1  0  0  0
  1 24  1  0  0  0
  1 25  1  0  0  0
  1 26  1  0  0  0
  2  3  1  0  0  0
  2 16  1  0  0  0
  2 19  1  0  0  0
  3  4  1  0  0  0
  3 27  1  0  0  0
  3 28  1  0  0  0
  4  5  1  0  0  0
  4 29  1  0  0  0
  4 30  1  0  0  0
  5  6  1  0  0  0
  5 15  1  0  0  0
  5 31  1  0  0  0
  6  7  1  0  0  0
  6 16  1  0  0  0
  6 32  1  0  0  0
  7  8  1  0  0  0
  7 33  1  0  0  0
  7 34  1  0  0  0
  8  9  1  0  0  0
  8 35  1  0  0  0
  8 36  1  0  0  0
  9 10  2  0  0  0
  9 15  1  0  0  0
 10 11  1  0  0  0
 10 37  1  0  0  0
 11 12  2  0  0  0
 11 13  1  0  0  0
 13 14  1  0  0  0
 13 38  1  0  0  0
 13 39  1  0  0  0
 14 15  1  0  0  0
 14 40  1  0  0  0
 14 41  1  0  0  0
 15 42  1  0  0  0
 16 17  1  0  0  0
 16 43  1  0  0  0
 17 18  1  0  0  0
 17 44  1  0  0  0
 17 45  1  0  0  0
 18 19  1  0  0  0
 18 46  1  0  0  0
 18 47  1  0  0  0
 19 20  1  0  0  0
 19 23  1  0  0  0
 20 21  1  0  0  0
 21 22  1  0  0  0
 21 48  1  0  0  0
 21 49  1  0  0  0
 22 23  2  0  0  0
 22 50  1  0  0  0
 23 51  1  0  0  0
M  END
> <s_m_entry_id>
9567

> <s_m_entry_name>
dock_pv.7

> <s_m_Source_Path>
/home/csk/Desktop/cluster/DUD-E-result/mcr

> <s_m_Source_File>
dock_pv.maegz

> <i_m_Source_File_Index>
7

> <chembl_id>
CHEMBL3687970

> <chembl_pref_name>
None

> <i_lp_mmshare_version>
53161

> <i_f3d_flags>
0

> <r_lp_tautomer_probability>
1

> <s_lp_Force_Field>
OPLS_2005

> <r_lp_Energy>
59.472878

> <b_lp_Chiralities_Consistent>
1

> <s_lp_Variant>
CHEMBL1994_lig836-1

> <s_i_glide_gridfile>
glide-grid_2aa2

> <i_i_glide_lignum>
1267

> <i_i_glide_rotatable_bonds>
0

> <r_i_docking_score>
-10.8084498795152

> <r_i_glide_ligand_efficiency>
-0.469932603457184

> <r_i_glide_ligand_efficiency_sa>
-1.33642581233078

> <r_i_glide_ligand_efficiency_ln>
-2.61358118647176

> <r_i_glide_gscore>
-10.8084498795152

> <r_i_glide_lipo>
-5.49611270315688

> <r_i_glide_hbond>
-0.0259158827029514

> <r_i_glide_metal>
0

> <r_i_glide_rewards>
-2.6287785

> <r_i_glide_evdw>
-42.7980842590332

> <r_i_glide_ecoul>
-3.4515905380249

> <r_i_glide_erotb>
0

> <r_i_glide_esite>
0

> <r_i_glide_emodel>
-63.1442611116782

> <r_i_glide_energy>
-46.2496747970581

> <r_i_glide_einternal>
0

> <i_i_glide_confnum>
1

> <i_i_glide_posenum>
350

> <r_i_glide_eff_state_penalty>
0

> <s_user_duplicate_titles>
CHEMBL1994_lig836

> <s_m_subgroup_title>
dock_pv

> <s_m_subgroupid>
dock_pv

> <b_m_subgroup_collapsed>
1

$$$$
CHEMBL1994_lig104
                    3D
 Schrodinger Suite 2021-1.
 51 54  0  0  1  0            999 V2000
   17.2105   68.6916   17.4533 C   0  0  0  0  0  0
   18.3099   68.6990   16.3972 C   0  0  0  0  0  0
   19.5923   69.2441   16.7953 C   0  0  0  0  0  0
   17.2735   69.9372   18.3235 C   0  0  0  0  0  0
   18.6679   70.1843   18.9834 C   0  0  1  0  0  0
   19.7978   69.9284   17.9416 C   0  0  0  0  0  0
   21.1896   70.4476   18.3142 C   0  0  0  0  0  0
   21.1005   71.9131   18.7463 C   0  0  0  0  0  0
   18.6956   71.6780   19.4381 C   0  0  2  0  0  0
   20.1065   72.0997   19.9141 C   0  0  2  0  0  0
   17.6370   73.5178   20.9443 C   0  0  0  0  0  0
   17.5865   72.0464   20.4784 C   0  0  0  0  0  0
   19.0401   73.8402   21.5172 C   0  0  1  0  0  0
   20.0220   73.5625   20.3669 C   0  0  1  0  0  0
   21.2968   74.2713   20.7003 C   0  0  0  0  0  0
   20.7735   75.5682   21.2700 C   0  0  0  0  0  0
   19.3981   75.2979   21.7857 C   0  0  0  0  0  0
   18.6606   76.2179   22.4433 C   0  0  0  0  0  0
   17.3246   76.0130   23.1337 C   0  0  0  0  0  0
   21.3906   76.6274   21.2700 O   0  0  0  0  0  0
   19.6405   74.0847   19.4789 H   0  0  0  0  0  0
   18.4833   72.2969   18.5620 H   0  0  0  0  0  0
   18.9245   69.2006   20.1584 C   0  0  0  0  0  0
   19.2792   73.0621   22.8374 C   0  0  0  0  0  0
   18.1238   68.2620   15.2700 O   0  0  0  0  0  0
   20.4187   71.4785   20.7527 H   0  0  0  0  0  0
   17.4011   67.8620   18.1157 H   0  0  0  0  0  0
   16.2376   68.5326   16.9907 H   0  0  0  0  0  0
   20.4293   69.1075   16.1260 H   0  0  0  0  0  0
   16.4975   69.8620   19.0831 H   0  0  0  0  0  0
   16.9863   70.7895   17.7033 H   0  0  0  0  0  0
   21.8795   70.3578   17.4736 H   0  0  0  0  0  0
   21.6286   69.8556   19.1168 H   0  0  0  0  0  0
   20.8134   72.5405   17.9000 H   0  0  0  0  0  0
   22.0915   72.2700   19.0279 H   0  0  0  0  0  0
   17.4066   74.1769   20.1051 H   0  0  0  0  0  0
   16.8459   73.6916   21.6700 H   0  0  0  0  0  0
   16.6039   71.8391   20.0708 H   0  0  0  0  0  0
   17.6530   71.4068   21.3563 H   0  0  0  0  0  0
   21.8410   74.4794   19.7865 H   0  0  0  0  0  0
   21.9294   73.7427   21.4129 H   0  0  0  0  0  0
   19.0410   77.2031   22.5616 H   0  0  0  0  0  0
   17.2619   76.6559   24.0124 H   0  0  0  0  0  0
   16.4979   76.2620   22.4700 H   0  0  0  0  0  0
   17.1887   74.9927   23.4758 H   0  0  0  0  0  0
   18.2410   69.3636   20.9862 H   0  0  0  0  0  0
   18.7946   68.1625   19.8520 H   0  0  0  0  0  0
   19.9282   69.2818   20.5740 H   0  0  0  0  0  0
   19.4410   71.9971   22.6820 H   0  0  0  0  0  0
   20.1341   73.4620   23.3878 H   0  0  0  0  0  0
   18.4241   73.1374   23.5086 H   0  0  0  0  0  0
  1  2  1  0  0  0
  1  4  1  0  0  0
  1 27  1  0  0  0
  1 28  1  0  0  0
  2  3  1  0  0  0
  2 25  2  0  0  0
  3  6  2  0  0  0
  3 29  1  0  0  0
  4  5  1  0  0  0
  4 30  1  0  0  0
  4 31  1  0  0  0
  5  9  1  0  0  0
  5  6  1  0  0  0
  5 23  1  0  0  0
  6  7  1  0  0  0
  7  8  1  0  0  0
  7 32  1  0  0  0
  7 33  1  0  0  0
  8 10  1  0  0  0
  8 34  1  0  0  0
  8 35  1  0  0  0
  9 10  1  0  0  0
  9 22  1  0  0  0
  9 12  1  0  0  0
 10 14  1  0  0  0
 10 26  1  0  0  0
 11 13  1  0  0  0
 11 12  1  0  0  0
 11 36  1  0  0  0
 11 37  1  0  0  0
 12 38  1  0  0  0
 12 39  1  0  0  0
 13 14  1  0  0  0
 13 17  1  0  0  0
 13 24  1  0  0  0
 14 15  1  0  0  0
 14 21  1  0  0  0
 15 16  1  0  0  0
 15 40  1  0  0  0
 15 41  1  0  0  0
 16 17  1  0  0  0
 16 20  2  0  0  0
 17 18  2  0  0  0
 18 19  1  0  0  0
 18 42  1  0  0  0
 19 43  1  0  0  0
 19 44  1  0  0  0
 19 45  1  0  0  0
 23 46  1  0  0  0
 23 47  1  0  0  0
 23 48  1  0  0  0
 24 49  1  0  0  0
 24 50  1  0  0  0
 24 51  1  0  0  0
M  END
> <s_m_entry_id>
9568

> <s_m_entry_name>
dock_pv.8

> <s_m_Source_Path>
/home/csk/Desktop/cluster/DUD-E-result/mcr

> <s_m_Source_File>
dock_pv.maegz

> <i_m_Source_File_Index>
8

> <chembl_id>
CHEMBL402063

> <chembl_pref_name>
E-GUGGULSTERONE

> <i_lp_mmshare_version>
53161

> <i_f3d_flags>
0

> <r_lp_tautomer_probability>
1

> <s_lp_Force_Field>
OPLS_2005

> <r_lp_Energy>
44.804579

> <b_lp_Chiralities_Consistent>
1

> <s_lp_Variant>
CHEMBL1994_lig104-1

> <s_i_glide_gridfile>
glide-grid_2aa2

> <i_i_glide_lignum>
164

> <i_i_glide_rotatable_bonds>
0

> <r_i_docking_score>
-10.7052308865823

> <r_i_glide_ligand_efficiency>
-0.465444821155751

> <r_i_glide_ligand_efficiency_sa>
-1.32366315644431

> <r_i_glide_ligand_efficiency_ln>
-2.5886218980425

> <r_i_glide_gscore>
-10.7052308865823

> <r_i_glide_lipo>
-5.02764853303048

> <r_i_glide_hbond>
-0.164579600593392

> <r_i_glide_metal>
0

> <r_i_glide_rewards>
-3.03883038729297

> <r_i_glide_evdw>
-38.2255859375

> <r_i_glide_ecoul>
-3.75262045860291

> <r_i_glide_erotb>
0

> <r_i_glide_esite>
0

> <r_i_glide_emodel>
-51.8458743748503

> <r_i_glide_energy>
-41.9782063961029

> <r_i_glide_einternal>
0

> <i_i_glide_confnum>
1

> <i_i_glide_posenum>
13

> <r_i_glide_eff_state_penalty>
0

> <s_user_duplicate_titles>
CHEMBL1994_lig104,CHEMBL1994_lig103,329430,329423

> <s_m_subgroup_title>
dock_pv

> <s_m_subgroupid>
dock_pv

> <b_m_subgroup_collapsed>
1

$$$$
CHEMBL1994_lig1119
                    3D
 Schrodinger Suite 2021-1.
 49 51  0  0  1  0            999 V2000
   16.2415   76.2169   24.6552 O   0  0  0  0  0  0
   17.2305   76.0134   23.5982 S   0  0  0  0  0  0
   18.1816   77.0620   23.2680 O   0  0  0  0  0  0
   20.1013   72.6903   17.8531 C   0  0  0  0  0  0
   19.7340   71.5035   18.8101 C   0  0  0  0  0  0
   21.0013   70.6657   19.1813 C   0  0  0  0  0  0
   21.2231   74.8439   21.8226 C   0  0  0  0  0  0
   20.3370   75.0590   22.8698 C   0  0  0  0  0  0
   19.1840   74.2910   23.0407 C   0  0  0  0  0  0
   20.9701   73.8626   20.8703 C   0  0  0  0  0  0
   19.8148   73.0656   20.9848 C   0  0  0  0  0  0
   18.9663   73.2730   22.1129 C   0  0  0  0  0  0
   17.9708   72.3301   22.0472 N   0  0  0  0  0  0
   18.1587   71.5510   20.9437 C   0  0  0  0  0  0
   19.2211   72.0217   20.1766 C   0  0  0  0  0  0
   18.6736   70.6317   18.0858 C   0  0  0  0  0  0
   22.1434   70.5386   18.1558 C   0  0  0  0  0  0
   19.0574   73.8202   17.6802 C   0  0  0  0  0  0
   17.3226   70.9917   18.1432 C   0  0  0  0  0  0
   16.3324   70.1445   17.6700 C   0  0  0  0  0  0
   16.6949   68.9583   17.0471 C   0  0  0  0  0  0
   18.0346   68.6375   16.8705 C   0  0  0  0  0  0
   19.0182   69.4610   17.3956 C   0  0  0  0  0  0
   18.2411   74.6396   24.0081 N   0  0  0  0  0  0
   16.3657   75.4618   22.0088 C   0  0  0  0  0  0
   21.0345   73.1549   18.1599 H   0  0  0  0  0  0
   20.3329   72.2814   16.8702 H   0  0  0  0  0  0
   21.4410   71.1055   20.0690 H   0  0  0  0  0  0
   20.7018   69.6748   19.5243 H   0  0  0  0  0  0
   22.1093   75.4578   21.7416 H   0  0  0  0  0  0
   20.5396   75.8622   23.5632 H   0  0  0  0  0  0
   21.6753   73.7149   20.0720 H   0  0  0  0  0  0
   17.1993   72.2097   22.6939 H   0  0  0  0  0  0
   17.4670   70.7419   20.7563 H   0  0  0  0  0  0
   22.8337   69.7630   18.4858 H   0  0  0  0  0  0
   21.8060   70.2858   17.1527 H   0  0  0  0  0  0
   22.7073   71.4678   18.0782 H   0  0  0  0  0  0
   19.4091   74.5647   16.9653 H   0  0  0  0  0  0
   18.1037   73.4605   17.3015 H   0  0  0  0  0  0
   18.8629   74.3392   18.6184 H   0  0  0  0  0  0
   17.0411   71.9179   18.6170 H   0  0  0  0  0  0
   15.2935   70.4130   17.7819 H   0  0  0  0  0  0
   15.9363   68.2828   16.6843 H   0  0  0  0  0  0
   18.3134   67.7174   16.3801 H   0  0  0  0  0  0
   20.0379   69.1366   17.2860 H   0  0  0  0  0  0
   17.7072   73.8818   24.4096 H   0  0  0  0  0  0
   15.4640   76.0506   21.8625 H   0  0  0  0  0  0
   17.0543   75.5992   21.1767 H   0  0  0  0  0  0
   16.0907   74.4149   22.0698 H   0  0  0  0  0  0
  1  2  2  0  0  0
  2  3  2  0  0  0
  2 24  1  0  0  0
  2 25  1  0  0  0
  4  5  1  0  0  0
  4 18  1  0  0  0
  4 26  1  0  0  0
  4 27  1  0  0  0
  5  6  1  0  0  0
  5 15  1  0  0  0
  5 16  1  0  0  0
  6 17  1  0  0  0
  6 28  1  0  0  0
  6 29  1  0  0  0
  7  8  2  0  0  0
  7 10  1  0  0  0
  7 30  1  0  0  0
  8  9  1  0  0  0
  8 31  1  0  0  0
  9 12  2  0  0  0
  9 24  1  0  0  0
 10 11  2  0  0  0
 10 32  1  0  0  0
 11 12  1  0  0  0
 11 15  1  0  0  0
 12 13  1  0  0  0
 13 14  1  0  0  0
 13 33  1  0  0  0
 14 15  2  0  0  0
 14 34  1  0  0  0
 16 19  2  0  0  0
 16 23  1  0  0  0
 17 35  1  0  0  0
 17 36  1  0  0  0
 17 37  1  0  0  0
 18 38  1  0  0  0
 18 39  1  0  0  0
 18 40  1  0  0  0
 19 20  1  0  0  0
 19 41  1  0  0  0
 20 21  2  0  0  0
 20 42  1  0  0  0
 21 22  1  0  0  0
 21 43  1  0  0  0
 22 23  2  0  0  0
 22 44  1  0  0  0
 23 45  1  0  0  0
 24 46  1  0  0  0
 25 47  1  0  0  0
 25 48  1  0  0  0
 25 49  1  0  0  0
M  END
> <s_m_entry_id>
9569

> <s_m_entry_name>
dock_pv.9

> <s_m_Source_Path>
/home/csk/Desktop/cluster/DUD-E-result/mcr

> <s_m_Source_File>
dock_pv.maegz

> <i_m_Source_File_Index>
9

> <chembl_id>
CHEMBL4066039

> <chembl_pref_name>
None

> <i_lp_mmshare_version>
53161

> <i_f3d_flags>
0

> <r_lp_tautomer_probability>
1

> <s_lp_Force_Field>
OPLS_2005

> <r_lp_Energy>
13.376727

> <b_lp_Chiralities_Consistent>
1

> <s_lp_Variant>
CHEMBL1994_lig1119-1

> <s_i_glide_gridfile>
glide-grid_2aa2

> <i_i_glide_lignum>
1605

> <i_i_glide_rotatable_bonds>
6

> <r_i_docking_score>
-10.678176005876

> <r_i_glide_ligand_efficiency>
-0.42712704023504

> <r_i_glide_ligand_efficiency_sa>
-1.24892704077757

> <r_i_glide_ligand_efficiency_ln>
-2.53104771250516

> <r_i_glide_gscore>
-10.678176005876

> <r_i_glide_lipo>
-5.11822836450162

> <r_i_glide_hbond>
-0.420963491194582

> <r_i_glide_metal>
0

> <r_i_glide_rewards>
-2.32852663636364

> <r_i_glide_evdw>
-42.3619079589844

> <r_i_glide_ecoul>
-7.33287811279297

> <r_i_glide_erotb>
0.451673309008905

> <r_i_glide_esite>
-0.0441037079569049

> <r_i_glide_emodel>
-68.9223731070537

> <r_i_glide_energy>
-49.6947860717773

> <r_i_glide_einternal>
9.5067310333252

> <i_i_glide_confnum>
23

> <i_i_glide_posenum>
355

> <r_i_glide_eff_state_penalty>
0

> <s_user_duplicate_titles>
CHEMBL1994_lig1119

> <s_m_subgroup_title>
dock_pv

> <s_m_subgroupid>
dock_pv

> <b_m_subgroup_collapsed>
1

$$$$
CHEMBL1994_lig838
                    3D
 Schrodinger Suite 2021-1.
 54 58  0  0  1  0            999 V2000
   20.7916   72.7528   18.0643 C   0  0  0  0  0  0
   20.9591   71.7299   19.1800 C   0  0  2  0  0  0
   20.9751   70.2831   18.6504 C   0  0  0  0  0  0
   19.6105   69.8621   18.1082 C   0  0  0  0  0  0
   19.4889   69.2372   16.9164 C   0  0  0  0  0  0
   18.2414   68.7117   16.4039 C   0  0  0  0  0  0
   18.1567   68.2620   15.2700 O   0  0  0  0  0  0
   17.0496   68.7223   17.3553 C   0  0  0  0  0  0
   17.0709   69.9484   18.2579 C   0  0  0  0  0  0
   18.4037   70.1148   19.0412 C   0  0  2  0  0  0
   18.4754   71.5180   19.6879 C   0  0  1  0  0  0
   17.3885   71.7140   20.7652 C   0  0  0  0  0  0
   17.4452   73.1575   21.2699 C   0  0  0  0  0  0
   18.8104   73.4431   21.9635 C   0  0  1  0  0  0
   19.0030   72.4614   23.1546 C   0  0  0  0  0  0
   19.8313   73.3289   20.8204 C   0  0  1  0  0  0
   21.0899   74.0825   21.2535 C   0  0  0  0  0  0
   20.5350   75.2516   22.0695 C   0  0  0  0  0  0
   19.0675   74.9090   22.4354 C   0  0  2  0  0  0
   18.9558   75.0665   23.8419 O   0  0  0  0  0  0
   17.6473   75.4887   24.1487 C   0  0  0  0  0  0
   17.1544   76.1137   22.8882 C   0  0  0  0  0  0
   18.0342   75.8620   21.9166 C   0  0  0  0  0  0
   19.8863   71.8805   20.2565 C   0  0  2  0  0  0
   19.7981   72.7882   17.6250 H   0  0  0  0  0  0
   21.0731   73.7642   18.3566 H   0  0  0  0  0  0
   21.4440   72.4645   17.2671 H   0  0  0  0  0  0
   21.9324   71.9108   19.6322 H   0  0  0  0  0  0
   21.2484   69.6157   19.4689 H   0  0  0  0  0  0
   21.7634   70.1579   17.9056 H   0  0  0  0  0  0
   20.3809   69.0904   16.3246 H   0  0  0  0  0  0
   16.1191   68.6091   16.8015 H   0  0  0  0  0  0
   17.1542   67.8620   18.0046 H   0  0  0  0  0  0
   16.2415   69.8513   18.9520 H   0  0  0  0  0  0
   16.8540   70.8419   17.6697 H   0  0  0  0  0  0
   18.4514   69.3661   19.8343 H   0  0  0  0  0  0
   18.2363   72.2448   18.9117 H   0  0  0  0  0  0
   16.4058   71.5462   20.3424 H   0  0  0  0  0  0
   17.4684   70.9772   21.5634 H   0  0  0  0  0  0
   16.6410   73.3437   21.9549 H   0  0  0  0  0  0
   17.2501   73.8380   20.4388 H   0  0  0  0  0  0
   19.1576   71.4245   22.8703 H   0  0  0  0  0  0
   19.8409   72.7510   23.7698 H   0  0  0  0  0  0
   18.1354   72.4752   23.8138 H   0  0  0  0  0  0
   19.4544   73.9473   20.0000 H   0  0  0  0  0  0
   21.7603   73.4622   21.8369 H   0  0  0  0  0  0
   21.6716   74.4497   20.4087 H   0  0  0  0  0  0
   20.5776   76.1674   21.4773 H   0  0  0  0  0  0
   21.1534   75.4309   22.9506 H   0  0  0  0  0  0
   17.0411   74.6621   24.5115 H   0  0  0  0  0  0
   17.6824   76.2606   24.9003 H   0  0  0  0  0  0
   16.2447   76.6888   22.8454 H   0  0  0  0  0  0
   17.9904   76.1762   20.8840 H   0  0  0  0  0  0
   20.1472   71.1781   21.0465 H   0  0  0  0  0  0
  1  2  1  0  0  0
  1 25  1  0  0  0
  1 26  1  0  0  0
  1 27  1  0  0  0
  2  3  1  0  0  0
  2 24  1  0  0  0
  2 28  1  0  0  0
  3  4  1  0  0  0
  3 29  1  0  0  0
  3 30  1  0  0  0
  4  5  2  0  0  0
  4 10  1  0  0  0
  5  6  1  0  0  0
  5 31  1  0  0  0
  6  7  2  0  0  0
  6  8  1  0  0  0
  8  9  1  0  0  0
  8 32  1  0  0  0
  8 33  1  0  0  0
  9 10  1  0  0  0
  9 34  1  0  0  0
  9 35  1  0  0  0
 10 11  1  0  0  0
 10 36  1  0  0  0
 11 12  1  0  0  0
 11 24  1  0  0  0
 11 37  1  0  0  0
 12 13  1  0  0  0
 12 38  1  0  0  0
 12 39  1  0  0  0
 13 14  1  0  0  0
 13 40  1  0  0  0
 13 41  1  0  0  0
 14 15  1  0  0  0
 14 16  1  0  0  0
 14 19  1  0  0  0
 15 42  1  0  0  0
 15 43  1  0  0  0
 15 44  1  0  0  0
 16 17  1  0  0  0
 16 24  1  0  0  0
 16 45  1  0  0  0
 17 18  1  0  0  0
 17 46  1  0  0  0
 17 47  1  0  0  0
 18 19  1  0  0  0
 18 48  1  0  0  0
 18 49  1  0  0  0
 19 20  1  0  0  0
 19 23  1  0  0  0
 20 21  1  0  0  0
 21 22  1  0  0  0
 21 50  1  0  0  0
 21 51  1  0  0  0
 22 23  2  0  0  0
 22 52  1  0  0  0
 23 53  1  0  0  0
 24 54  1  0  0  0
M  END
> <s_m_entry_id>
9570

> <s_m_entry_name>
dock_pv.10

> <s_m_Source_Path>
/home/csk/Desktop/cluster/DUD-E-result/mcr

> <s_m_Source_File>
dock_pv.maegz

> <i_m_Source_File_Index>
10

> <chembl_id>
CHEMBL3692347

> <chembl_pref_name>
None

> <i_lp_mmshare_version>
53161

> <i_f3d_flags>
0

> <r_lp_tautomer_probability>
1

> <s_lp_Force_Field>
OPLS_2005

> <r_lp_Energy>
64.5234

> <b_lp_Chiralities_Consistent>
1

> <s_lp_Variant>
CHEMBL1994_lig838-1

> <s_i_glide_gridfile>
glide-grid_2aa2

> <i_i_glide_lignum>
1269

> <i_i_glide_rotatable_bonds>
0

> <r_i_docking_score>
-10.669258075848

> <r_i_glide_ligand_efficiency>
-0.444552419827002

> <r_i_glide_ligand_efficiency_sa>
-1.28231107159081

> <r_i_glide_ligand_efficiency_ln>
-2.55364303790205

> <r_i_glide_gscore>
-10.669258075848

> <r_i_glide_lipo>
-5.58738057172864

> <r_i_glide_hbond>
-0.147868045854168

> <r_i_glide_metal>
0

> <r_i_glide_rewards>
-2.47694833441727

> <r_i_glide_evdw>
-36.2866821289062

> <r_i_glide_ecoul>
-4.28484678268433

> <r_i_glide_erotb>
0

> <r_i_glide_esite>
0

> <r_i_glide_emodel>
-60.8608465431756

> <r_i_glide_energy>
-40.5715289115906

> <r_i_glide_einternal>
0

> <i_i_glide_confnum>
1

> <i_i_glide_posenum>
172

> <r_i_glide_eff_state_penalty>
0

> <s_user_duplicate_titles>
CHEMBL1994_lig838

> <s_m_subgroup_title>
dock_pv

> <s_m_subgroupid>
dock_pv

> <b_m_subgroup_collapsed>
1

$$$$
CHEMBL1994_lig1120
                    3D
 Schrodinger Suite 2021-1.
 50 52  0  0  1  0            999 V2000
   16.2410   76.0459   24.8699 O   0  0  0  0  0  0
   17.2386   76.1969   23.8160 S   0  0  0  0  0  0
   17.9514   77.4620   23.6700 O   0  0  0  0  0  0
   20.2218   72.9705   17.8472 C   0  0  0  0  0  0
   19.9636   71.8062   18.8497 C   0  0  0  0  0  0
   21.3054   71.1381   19.2721 C   0  0  0  0  0  0
   21.3333   75.2974   21.7902 C   0  0  0  0  0  0
   20.4762   75.4613   22.8700 C   0  0  0  0  0  0
   19.3424   74.6751   23.0415 C   0  0  0  0  0  0
   21.0808   74.3246   20.8291 C   0  0  0  0  0  0
   19.9807   73.4577   20.9791 C   0  0  0  0  0  0
   19.1552   73.6372   22.1288 C   0  0  0  0  0  0
   18.2410   72.6167   22.1266 N   0  0  0  0  0  0
   18.4781   71.8025   21.0601 C   0  0  0  0  0  0
   19.4407   72.3465   20.2121 C   0  0  0  0  0  0
   19.0190   70.8049   18.1342 C   0  0  0  0  0  0
   22.2410   70.3861   18.3319 C   0  0  0  0  0  0
   19.0410   73.9434   17.6473 C   0  0  0  0  0  0
   17.6386   70.7426   18.3927 C   0  0  0  0  0  0
   16.8352   69.8169   17.7470 C   0  0  0  0  0  0
   17.4145   68.9947   16.7946 C   0  0  0  0  0  0
   18.7515   69.0620   16.4703 C   0  0  0  0  0  0
   19.5283   70.0050   17.1008 C   0  0  0  0  0  0
   18.4451   74.9430   24.0723 N   0  0  0  0  0  0
   16.4955   75.6936   22.1590 C   0  0  0  0  0  0
   16.6410   68.2620   15.9683 O   0  0  0  0  0  0
   21.1017   73.5400   18.1320 H   0  0  0  0  0  0
   20.4949   72.5552   16.8770 H   0  0  0  0  0  0
   21.9320   71.9314   19.6700 H   0  0  0  0  0  0
   21.0831   70.4460   20.0863 H   0  0  0  0  0  0
   22.2076   75.9276   21.7042 H   0  0  0  0  0  0
   20.7042   76.1889   23.6374 H   0  0  0  0  0  0
   21.7704   74.2187   20.0125 H   0  0  0  0  0  0
   17.5194   72.4378   22.8150 H   0  0  0  0  0  0
   17.8856   70.9033   20.9715 H   0  0  0  0  0  0
   23.1613   70.1861   18.8700 H   0  0  0  0  0  0
   21.8639   69.4030   18.0698 H   0  0  0  0  0  0
   22.4802   70.9552   17.4349 H   0  0  0  0  0  0
   19.2666   74.6719   16.8694 H   0  0  0  0  0  0
   18.1297   73.4278   17.3478 H   0  0  0  0  0  0
   18.8157   74.5012   18.5564 H   0  0  0  0  0  0
   17.1433   71.4405   19.0457 H   0  0  0  0  0  0
   15.7718   69.7998   17.9360 H   0  0  0  0  0  0
   19.1615   68.4661   15.6700 H   0  0  0  0  0  0
   20.5142   70.1341   16.6989 H   0  0  0  0  0  0
   18.0697   74.1374   24.5493 H   0  0  0  0  0  0
   15.5965   76.2620   21.9700 H   0  0  0  0  0  0
   17.2343   75.8620   21.3770 H   0  0  0  0  0  0
   16.2280   74.6488   22.1822 H   0  0  0  0  0  0
   15.7206   68.2869   16.2452 H   0  0  0  0  0  0
  1  2  2  0  0  0
  2  3  2  0  0  0
  2 24  1  0  0  0
  2 25  1  0  0  0
  4  5  1  0  0  0
  4 18  1  0  0  0
  4 27  1  0  0  0
  4 28  1  0  0  0
  5  6  1  0  0  0
  5 15  1  0  0  0
  5 16  1  0  0  0
  6 17  1  0  0  0
  6 29  1  0  0  0
  6 30  1  0  0  0
  7  8  2  0  0  0
  7 10  1  0  0  0
  7 31  1  0  0  0
  8  9  1  0  0  0
  8 32  1  0  0  0
  9 12  2  0  0  0
  9 24  1  0  0  0
 10 11  2  0  0  0
 10 33  1  0  0  0
 11 12  1  0  0  0
 11 15  1  0  0  0
 12 13  1  0  0  0
 13 14  1  0  0  0
 13 34  1  0  0  0
 14 15  2  0  0  0
 14 35  1  0  0  0
 16 19  2  0  0  0
 16 23  1  0  0  0
 17 36  1  0  0  0
 17 37  1  0  0  0
 17 38  1  0  0  0
 18 39  1  0  0  0
 18 40  1  0  0  0
 18 41  1  0  0  0
 19 20  1  0  0  0
 19 42  1  0  0  0
 20 21  2  0  0  0
 20 43  1  0  0  0
 21 22  1  0  0  0
 21 26  1  0  0  0
 22 23  2  0  0  0
 22 44  1  0  0  0
 23 45  1  0  0  0
 24 46  1  0  0  0
 25 47  1  0  0  0
 25 48  1  0  0  0
 25 49  1  0  0  0
 26 50  1  0  0  0
M  END
> <s_m_entry_id>
9571

> <s_m_entry_name>
dock_pv.11

> <s_m_Source_Path>
/home/csk/Desktop/cluster/DUD-E-result/mcr

> <s_m_Source_File>
dock_pv.maegz

> <i_m_Source_File_Index>
11

> <chembl_id>
CHEMBL4095106

> <chembl_pref_name>
None

> <i_lp_mmshare_version>
53161

> <i_f3d_flags>
0

> <r_lp_tautomer_probability>
0.999999999997365

> <s_lp_Force_Field>
OPLS_2005

> <r_lp_Energy>
11.538818

> <b_lp_Chiralities_Consistent>
1

> <s_lp_Variant>
CHEMBL1994_lig1120-1

> <s_i_glide_gridfile>
glide-grid_2aa2

> <i_i_glide_lignum>
1606

> <i_i_glide_rotatable_bonds>
7

> <r_i_docking_score>
-10.5622663475627

> <r_i_glide_ligand_efficiency>
-0.406241013367797

> <r_i_glide_ligand_efficiency_sa>
-1.2034874036209

> <r_i_glide_ligand_efficiency_ln>
-2.48051359410242

> <r_i_glide_gscore>
-10.5622663475627

> <r_i_glide_lipo>
-5.19598389792208

> <r_i_glide_hbond>
-0.481783366430898

> <r_i_glide_metal>
0

> <r_i_glide_rewards>
-2.20930766443259

> <r_i_glide_evdw>
-29.9281845092773

> <r_i_glide_ecoul>
-9.88484382629395

> <r_i_glide_erotb>
0.417634576185734

> <r_i_glide_esite>
-0.113690195554925

> <r_i_glide_emodel>
-43.5050255964481

> <r_i_glide_energy>
-39.8130283355713

> <r_i_glide_einternal>
9.83224296569824

> <i_i_glide_confnum>
43

> <i_i_glide_posenum>
295

> <r_i_glide_eff_state_penalty>
0

> <s_user_duplicate_titles>
CHEMBL1994_lig1120

> <s_m_subgroup_title>
dock_pv

> <s_m_subgroupid>
dock_pv

> <b_m_subgroup_collapsed>
1

$$$$
CHEMBL1994_lig1118
                    3D
 Schrodinger Suite 2021-1.
 45 48  0  0  1  0            999 V2000
   17.3538   70.0039   18.0636 C   0  0  0  0  0  0
   17.5958   68.6617   17.3786 C   0  0  0  0  0  0
   18.7133   68.7518   16.3546 C   0  0  0  0  0  0
   19.8961   69.4669   16.7857 C   0  0  0  0  0  0
   19.9067   70.3409   17.8150 C   0  0  0  0  0  0
   21.2122   71.0427   18.1840 C   0  0  0  0  0  0
   20.9161   72.3952   18.8529 C   0  0  0  0  0  0
   19.9923   72.2062   20.0685 C   0  0  2  0  0  0
   18.6850   71.5119   19.6045 C   0  0  0  0  0  0
   18.6657   70.6559   18.5513 C   0  0  0  0  0  0
   17.4413   71.8837   20.2677 C   0  0  0  0  0  0
   17.3669   72.7327   21.2957 C   0  0  0  0  0  0
   18.6122   73.3051   21.9667 C   0  0  1  0  0  0
   19.6274   73.5273   20.8071 C   0  0  1  0  0  0
   20.7149   74.4145   21.4121 C   0  0  0  0  0  0
   19.9384   75.3381   22.3676 C   0  0  0  0  0  0
   18.5401   74.7109   22.6321 C   0  0  1  0  0  0
   19.0408   72.2572   23.0288 C   0  0  0  0  0  0
   17.3997   75.5676   22.0682 C   0  0  0  0  0  0
   18.6378   68.2015   15.2697 O   0  0  0  0  0  0
   18.2408   74.7054   24.0187 O   0  0  0  0  0  0
   20.5119   71.5473   20.7631 H   0  0  0  0  0  0
   19.1518   74.1580   20.0484 H   0  0  0  0  0  0
   16.6756   69.7648   18.8803 H   0  0  0  0  0  0
   16.8239   70.6896   17.4008 H   0  0  0  0  0  0
   16.6914   68.2784   16.9071 H   0  0  0  0  0  0
   17.9030   67.9185   18.1153 H   0  0  0  0  0  0
   20.8146   69.3038   16.2410 H   0  0  0  0  0  0
   21.8221   71.2128   17.2958 H   0  0  0  0  0  0
   21.8107   70.4090   18.8404 H   0  0  0  0  0  0
   20.4700   73.0904   18.1394 H   0  0  0  0  0  0
   21.8412   72.8582   19.1801 H   0  0  0  0  0  0
   16.5018   71.5031   19.9154 H   0  0  0  0  0  0
   16.3801   72.9504   21.6700 H   0  0  0  0  0  0
   21.2401   74.9869   20.6458 H   0  0  0  0  0  0
   21.4678   73.8485   21.9563 H   0  0  0  0  0  0
   19.8374   76.3164   21.9022 H   0  0  0  0  0  0
   20.5144   75.4612   23.2854 H   0  0  0  0  0  0
   19.8395   72.6308   23.6698 H   0  0  0  0  0  0
   18.2129   72.0185   23.6992 H   0  0  0  0  0  0
   19.3694   71.3115   22.6001 H   0  0  0  0  0  0
   17.4645   75.6557   20.9829 H   0  0  0  0  0  0
   16.4139   75.1631   22.3071 H   0  0  0  0  0  0
   17.4411   76.5807   22.4711 H   0  0  0  0  0  0
   17.4016   74.2434   24.1291 H   0  0  0  0  0  0
  1  2  1  0  0  0
  1 10  1  0  0  0
  1 24  1  0  0  0
  1 25  1  0  0  0
  2  3  1  0  0  0
  2 26  1  0  0  0
  2 27  1  0  0  0
  3  4  1  0  0  0
  3 20  2  0  0  0
  4  5  2  0  0  0
  4 28  1  0  0  0
  5  6  1  0  0  0
  5 10  1  0  0  0
  6  7  1  0  0  0
  6 29  1  0  0  0
  6 30  1  0  0  0
  7  8  1  0  0  0
  7 31  1  0  0  0
  7 32  1  0  0  0
  8  9  1  0  0  0
  8 14  1  0  0  0
  8 22  1  0  0  0
  9 10  2  0  0  0
  9 11  1  0  0  0
 11 12  2  0  0  0
 11 33  1  0  0  0
 12 13  1  0  0  0
 12 34  1  0  0  0
 13 14  1  0  0  0
 13 17  1  0  0  0
 13 18  1  0  0  0
 14 15  1  0  0  0
 14 23  1  0  0  0
 15 16  1  0  0  0
 15 35  1  0  0  0
 15 36  1  0  0  0
 16 17  1  0  0  0
 16 37  1  0  0  0
 16 38  1  0  0  0
 17 19  1  0  0  0
 17 21  1  0  0  0
 18 39  1  0  0  0
 18 40  1  0  0  0
 18 41  1  0  0  0
 19 42  1  0  0  0
 19 43  1  0  0  0
 19 44  1  0  0  0
 21 45  1  0  0  0
M  END
> <s_m_entry_id>
9572

> <s_m_entry_name>
dock_pv.12

> <s_m_Source_Path>
/home/csk/Desktop/cluster/DUD-E-result/mcr

> <s_m_Source_File>
dock_pv.maegz

> <i_m_Source_File_Index>
12

> <chembl_id>
CHEMBL166444

> <chembl_pref_name>
METRIBOLONE

> <i_lp_mmshare_version>
53161

> <i_f3d_flags>
0

> <r_lp_tautomer_probability>
1

> <s_lp_Force_Field>
OPLS_2005

> <r_lp_Energy>
54.545456

> <b_lp_Chiralities_Consistent>
1

> <s_lp_Variant>
CHEMBL1994_lig1118-1

> <s_i_glide_gridfile>
glide-grid_2aa2

> <i_i_glide_lignum>
1604

> <i_i_glide_rotatable_bonds>
1

> <r_i_docking_score>
-10.5538075722138

> <r_i_glide_ligand_efficiency>
-0.502562265343516

> <r_i_glide_ligand_efficiency_sa>
-1.38653118258598

> <r_i_glide_ligand_efficiency_ln>
-2.60940759625365

> <r_i_glide_gscore>
-10.5538075722138

> <r_i_glide_lipo>
-4.53561849461294

> <r_i_glide_hbond>
-0.355567245571795

> <r_i_glide_metal>
0

> <r_i_glide_rewards>
-2.81298506273437

> <r_i_glide_evdw>
-39.8537673950195

> <r_i_glide_ecoul>
-5.71298933029175

> <r_i_glide_erotb>
0

> <r_i_glide_esite>
0

> <r_i_glide_emodel>
-66.8341054953098

> <r_i_glide_energy>
-45.5667567253113

> <r_i_glide_einternal>
0.0765936225652695

> <i_i_glide_confnum>
1

> <i_i_glide_posenum>
261

> <r_i_glide_eff_state_penalty>
0

> <s_user_duplicate_titles>
CHEMBL1994_lig1118

> <s_m_subgroup_title>
dock_pv

> <s_m_subgroupid>
dock_pv

> <b_m_subgroup_collapsed>
1

$$$$
CHEMBL1994_lig841
                    3D
 Schrodinger Suite 2021-1.
 55 60  0  0  1  0            999 V2000
   19.0413   72.0398   22.7296 C   0  0  0  0  0  0
   18.7204   72.9923   21.5316 C   0  0  2  0  0  0
   17.3793   72.5272   20.9197 C   0  0  0  0  0  0
   17.5534   71.0967   20.3778 C   0  0  0  0  0  0
   18.6359   70.9978   19.2880 C   0  0  1  0  0  0
   19.9834   71.6127   19.7327 C   0  0  1  0  0  0
   20.9664   71.6615   18.5337 C   0  0  0  0  0  0
   21.2259   70.2623   17.9678 C   0  0  0  0  0  0
   19.8750   69.6248   17.6668 C   0  0  0  0  0  0
   19.5236   69.2035   16.4450 C   0  0  0  0  0  0
   18.2234   68.6619   16.1246 C   0  0  0  0  0  0
   17.9503   68.2621   15.0098 O   0  0  0  0  0  0
   17.1288   68.8377   17.1675 C   0  0  0  0  0  0
   17.7071   68.6621   18.5636 C   0  0  0  0  0  0
   18.9257   69.5497   18.8721 C   0  0  2  0  0  0
   19.7022   72.9916   20.3132 C   0  0  2  0  0  0
   20.9190   73.7631   20.7028 C   0  0  0  0  0  0
   20.2907   74.8353   21.5453 C   0  0  0  0  0  0
   21.2258   75.5040   22.4805 C   0  0  0  0  0  0
   20.7349   76.2555   21.2699 C   0  0  0  0  0  0
   18.8467   74.4750   22.0133 C   0  0  2  0  0  0
   18.7752   74.5616   23.4441 O   0  0  0  0  0  0
   17.7777   75.4655   23.8620 C   0  0  0  0  0  0
   17.0820   75.8621   22.5997 C   0  0  0  0  0  0
   17.7353   75.3806   21.5420 C   0  0  0  0  0  0
   19.4024   71.0554   22.4388 H   0  0  0  0  0  0
   19.8167   72.4509   23.3789 H   0  0  0  0  0  0
   18.1673   71.8941   23.3673 H   0  0  0  0  0  0
   16.5898   72.5528   21.6683 H   0  0  0  0  0  0
   17.0445   73.1867   20.1188 H   0  0  0  0  0  0
   16.6352   70.7181   19.9712 H   0  0  0  0  0  0
   17.8061   70.4175   21.1897 H   0  0  0  0  0  0
   18.2623   71.5710   18.4352 H   0  0  0  0  0  0
   20.4260   70.9839   20.5070 H   0  0  0  0  0  0
   20.5675   72.3130   17.7521 H   0  0  0  0  0  0
   21.9120   72.1234   18.8187 H   0  0  0  0  0  0
   21.7925   69.6605   18.6795 H   0  0  0  0  0  0
   21.8432   70.3365   17.0717 H   0  0  0  0  0  0
   20.2614   69.3054   15.6699 H   0  0  0  0  0  0
   16.7404   69.8505   17.0609 H   0  0  0  0  0  0
   16.3031   68.1561   16.9646 H   0  0  0  0  0  0
   18.0350   67.6337   18.7178 H   0  0  0  0  0  0
   16.8996   68.7653   19.2697 H   0  0  0  0  0  0
   19.4434   69.0547   19.6961 H   0  0  0  0  0  0
   19.2423   73.5697   19.5042 H   0  0  0  0  0  0
   21.4405   74.1738   19.8409 H   0  0  0  0  0  0
   21.6145   73.1404   21.2642 H   0  0  0  0  0  0
   20.8950   75.8227   23.4691 H   0  0  0  0  0  0
   22.2413   75.1428   22.4718 H   0  0  0  0  0  0
   21.4546   76.4508   20.4752 H   0  0  0  0  0  0
   19.9555   77.0169   21.2769 H   0  0  0  0  0  0
   17.1015   74.9973   24.5763 H   0  0  0  0  0  0
   18.2463   76.3195   24.3518 H   0  0  0  0  0  0
   16.2305   76.5204   22.6032 H   0  0  0  0  0  0
   17.5105   75.5444   20.4979 H   0  0  0  0  0  0
  1  2  1  0  0  0
  1 26  1  0  0  0
  1 27  1  0  0  0
  1 28  1  0  0  0
  2  3  1  0  0  0
  2 16  1  0  0  0
  2 21  1  0  0  0
  3  4  1  0  0  0
  3 29  1  0  0  0
  3 30  1  0  0  0
  4  5  1  0  0  0
  4 31  1  0  0  0
  4 32  1  0  0  0
  5  6  1  0  0  0
  5 15  1  0  0  0
  5 33  1  0  0  0
  6  7  1  0  0  0
  6 16  1  0  0  0
  6 34  1  0  0  0
  7  8  1  0  0  0
  7 35  1  0  0  0
  7 36  1  0  0  0
  8  9  1  0  0  0
  8 37  1  0  0  0
  8 38  1  0  0  0
  9 10  2  0  0  0
  9 15  1  0  0  0
 10 11  1  0  0  0
 10 39  1  0  0  0
 11 12  2  0  0  0
 11 13  1  0  0  0
 13 14  1  0  0  0
 13 40  1  0  0  0
 13 41  1  0  0  0
 14 15  1  0  0  0
 14 42  1  0  0  0
 14 43  1  0  0  0
 15 44  1  0  0  0
 16 17  1  0  0  0
 16 45  1  0  0  0
 17 18  1  0  0  0
 17 46  1  0  0  0
 17 47  1  0  0  0
 18 19  1  0  0  0
 18 20  1  0  0  0
 18 21  1  0  0  0
 19 20  1  0  0  0
 19 48  1  0  0  0
 19 49  1  0  0  0
 20 50  1  0  0  0
 20 51  1  0  0  0
 21 22  1  0  0  0
 21 25  1  0  0  0
 22 23  1  0  0  0
 23 24  1  0  0  0
 23 52  1  0  0  0
 23 53  1  0  0  0
 24 25  2  0  0  0
 24 54  1  0  0  0
 25 55  1  0  0  0
M  END
> <s_m_entry_id>
9573

> <s_m_entry_name>
dock_pv.13

> <s_m_Source_Path>
/home/csk/Desktop/cluster/DUD-E-result/mcr

> <s_m_Source_File>
dock_pv.maegz

> <i_m_Source_File_Index>
13

> <chembl_id>
CHEMBL3692350

> <chembl_pref_name>
None

> <i_lp_mmshare_version>
53161

> <i_f3d_flags>
0

> <r_lp_tautomer_probability>
1

> <s_lp_Force_Field>
OPLS_2005

> <r_lp_Energy>
71.225467

> <b_lp_Chiralities_Consistent>
1

> <s_lp_Variant>
CHEMBL1994_lig841-1

> <s_i_glide_gridfile>
glide-grid_2aa2

> <i_i_glide_lignum>
1272

> <i_i_glide_rotatable_bonds>
0

> <r_i_docking_score>
-10.2530596521283

> <r_i_glide_ligand_efficiency>
-0.410122386085133

> <r_i_glide_ligand_efficiency_sa>
-1.19920513046442

> <r_i_glide_ligand_efficiency_ln>
-2.43028239695788

> <r_i_glide_gscore>
-10.2530596521283

> <r_i_glide_lipo>
-5.63032084306756

> <r_i_glide_hbond>
-0.209189772659267

> <r_i_glide_metal>
0

> <r_i_glide_rewards>
-2.39799129428266

> <r_i_glide_evdw>
-31.0642871856689

> <r_i_glide_ecoul>
-3.08228921890259

> <r_i_glide_erotb>
0

> <r_i_glide_esite>
0

> <r_i_glide_emodel>
-82.9306501872241

> <r_i_glide_energy>
-34.1465764045715

> <r_i_glide_einternal>
0

> <i_i_glide_confnum>
2

> <i_i_glide_posenum>
49

> <r_i_glide_eff_state_penalty>
0

> <s_user_duplicate_titles>
CHEMBL1994_lig841

> <s_m_subgroup_title>
dock_pv

> <s_m_subgroupid>
dock_pv

> <b_m_subgroup_collapsed>
1

$$$$
CHEMBL1994_lig958 
                    3D
 Schrodinger Suite 2021-1.
 40 43  0  0  1  0            999 V2000
   17.3970   68.6620   16.4700 C   0  0  0  0  0  0
   16.8483   69.0623   17.6825 C   0  0  0  0  0  0
   17.6648   69.6942   18.6168 C   0  0  0  0  0  0
   18.7279   68.8526   16.1936 C   0  0  0  0  0  0
   19.5370   69.5043   17.1059 C   0  0  0  0  0  0
   19.0296   69.9245   18.3486 C   0  0  0  0  0  0
   19.8729   70.7129   19.1764 N   0  0  0  0  0  0
   21.0411   71.3545   18.5695 C   0  0  1  0  0  0
   21.6801   70.2844   17.6698 C   0  0  0  0  0  0
   20.7942   69.8337   16.6534 O   0  0  0  0  0  0
   19.5576   70.9963   20.4680 C   0  0  0  0  0  0
   19.6431   72.4267   20.9578 C   0  0  0  0  0  0
   19.0290   70.1619   21.2080 O   0  0  0  0  0  0
   20.8060   73.2351   20.9249 C   0  0  0  0  0  0
   20.8849   74.4116   21.6666 C   0  0  0  0  0  0
   18.4962   72.9400   21.5675 C   0  0  0  0  0  0
   18.5559   74.1535   22.2270 C   0  0  0  0  0  0
   19.7606   74.8280   22.3549 C   0  0  0  0  0  0
   19.8354   75.8617   23.2533 O   0  0  0  0  0  0
   18.6388   76.6620   23.2919 C   0  0  0  0  0  0
   17.3384   75.8637   23.4650 C   0  0  0  0  0  0
   17.4410   74.6854   22.8330 N   0  0  0  0  0  0
   16.3454   76.2621   24.0694 O   0  0  0  0  0  0
   20.6620   72.6386   17.8229 C   0  0  0  0  0  0
   16.6410   68.2620   15.4426 F   0  0  0  0  0  0
   15.7927   68.9442   17.8751 H   0  0  0  0  0  0
   17.2019   70.0697   19.5158 H   0  0  0  0  0  0
   19.0410   68.5953   15.2035 H   0  0  0  0  0  0
   21.8276   71.5221   19.2933 H   0  0  0  0  0  0
   22.5923   70.6632   17.2141 H   0  0  0  0  0  0
   21.9838   69.4455   18.2940 H   0  0  0  0  0  0
   21.7461   72.9370   20.5062 H   0  0  0  0  0  0
   21.8171   74.9506   21.7584 H   0  0  0  0  0  0
   17.5694   72.3794   21.5740 H   0  0  0  0  0  0
   18.5294   77.0620   22.2866 H   0  0  0  0  0  0
   18.6928   77.4712   24.0196 H   0  0  0  0  0  0
   16.6009   74.1118   22.8700 H   0  0  0  0  0  0
   21.5531   73.2427   17.6728 H   0  0  0  0  0  0
   20.2410   72.4141   16.8487 H   0  0  0  0  0  0
   19.9269   73.2476   18.3485 H   0  0  0  0  0  0
  1  2  2  0  0  0
  1  4  1  0  0  0
  1 25  1  0  0  0
  2  3  1  0  0  0
  2 26  1  0  0  0
  3  6  2  0  0  0
  3 27  1  0  0  0
  4  5  2  0  0  0
  4 28  1  0  0  0
  5  6  1  0  0  0
  5 10  1  0  0  0
  6  7  1  0  0  0
  7  8  1  0  0  0
  7 11  1  0  0  0
  8  9  1  0  0  0
  8 24  1  0  0  0
  8 29  1  0  0  0
  9 10  1  0  0  0
  9 30  1  0  0  0
  9 31  1  0  0  0
 11 12  1  0  0  0
 11 13  2  0  0  0
 12 14  2  0  0  0
 12 16  1  0  0  0
 14 15  1  0  0  0
 14 32  1  0  0  0
 15 18  2  0  0  0
 15 33  1  0  0  0
 16 17  2  0  0  0
 16 34  1  0  0  0
 17 18  1  0  0  0
 17 22  1  0  0  0
 18 19  1  0  0  0
 19 20  1  0  0  0
 20 21  1  0  0  0
 20 35  1  0  0  0
 20 36  1  0  0  0
 21 22  1  0  0  0
 21 23  2  0  0  0
 22 37  1  0  0  0
 24 38  1  0  0  0
 24 39  1  0  0  0
 24 40  1  0  0  0
M  END
> <s_m_entry_id>
9574

> <s_m_entry_name>
dock_pv.14

> <s_m_Source_Path>
/home/csk/Desktop/cluster/DUD-E-result/mcr

> <s_m_Source_File>
dock_pv.maegz

> <i_m_Source_File_Index>
14

> <chembl_id>
CHEMBL4445440

> <chembl_pref_name>
None

> <i_lp_mmshare_version>
53161

> <i_f3d_flags>
0

> <r_lp_tautomer_probability>
1

> <s_lp_Force_Field>
OPLS_2005

> <r_lp_Energy>
48.809188

> <b_lp_Chiralities_Consistent>
1

> <s_lp_Variant>
CHEMBL1994_lig958 -1

> <s_i_glide_gridfile>
glide-grid_2aa2

> <i_i_glide_lignum>
1400

> <i_i_glide_rotatable_bonds>
2

> <r_i_docking_score>
-10.2312231579797

> <r_i_glide_ligand_efficiency>
-0.40924892631919

> <r_i_glide_ligand_efficiency_sa>
-1.19665111861792

> <r_i_glide_ligand_efficiency_ln>
-2.42510649345774

> <r_i_glide_gscore>
-10.2312231579797

> <r_i_glide_lipo>
-3.93157381215824

> <r_i_glide_hbond>
-0.558472901323129

> <r_i_glide_metal>
0

> <r_i_glide_rewards>
-3.03409508531851

> <r_i_glide_evdw>
-30.4239559173584

> <r_i_glide_ecoul>
-8.92478370666504

> <r_i_glide_erotb>
0.22652846769322

> <r_i_glide_esite>
-0.0736944750054129

> <r_i_glide_emodel>
-42.3453934039989

> <r_i_glide_energy>
-39.3487396240234

> <r_i_glide_einternal>
0.960495352745056

> <i_i_glide_confnum>
13

> <i_i_glide_posenum>
181

> <r_i_glide_eff_state_penalty>
0

> <s_user_duplicate_titles>
CHEMBL1994_lig958 

> <s_m_subgroup_title>
dock_pv

> <s_m_subgroupid>
dock_pv

> <b_m_subgroup_collapsed>
1

$$$$
CHEMBL1994_lig840
                    3D
 Schrodinger Suite 2021-1.
 55 59  0  0  1  0            999 V2000
   19.0393   72.4841   23.2468 C   0  0  0  0  0  0
   18.7926   73.4985   22.0937 C   0  0  2  0  0  0
   17.4400   73.1943   21.3951 C   0  0  0  0  0  0
   17.3678   71.7239   20.9447 C   0  0  0  0  0  0
   18.4202   71.5136   19.8403 C   0  0  2  0  0  0
   18.4003   70.1202   19.1629 C   0  0  1  0  0  0
   17.0484   69.9245   18.4157 C   0  0  0  0  0  0
   17.0355   68.7179   17.4877 C   0  0  0  0  0  0
   18.1948   68.7411   16.4934 C   0  0  0  0  0  0
   18.0881   68.2621   15.3689 O   0  0  0  0  0  0
   19.4351   69.3286   16.9683 C   0  0  0  0  0  0
   19.5745   69.9513   18.1612 C   0  0  0  0  0  0
   20.9288   70.5017   18.6095 C   0  0  0  0  0  0
   20.8073   71.9568   19.1119 C   0  0  1  0  0  0
   20.4929   72.9011   17.9596 C   0  0  0  0  0  0
   19.4412   73.7055   17.6700 C   0  0  0  0  0  0
   19.8365   72.0177   20.2850 C   0  0  1  0  0  0
   19.7843   73.4374   20.9278 C   0  0  2  0  0  0
   21.0416   74.1847   21.3575 C   0  0  0  0  0  0
   20.4854   75.3143   22.2335 C   0  0  0  0  0  0
   19.0214   74.9552   22.6170 C   0  0  2  0  0  0
   18.9254   75.0650   24.0311 O   0  0  0  0  0  0
   17.6278   75.5006   24.3781 C   0  0  0  0  0  0
   17.1406   76.2168   23.1581 C   0  0  0  0  0  0
   17.9791   75.9349   22.1536 C   0  0  0  0  0  0
   19.8404   72.8014   23.8947 H   0  0  0  0  0  0
   18.1607   72.4001   23.8869 H   0  0  0  0  0  0
   19.2828   71.4799   22.9088 H   0  0  0  0  0  0
   17.2372   73.8624   20.5556 H   0  0  0  0  0  0
   16.6404   73.4041   22.0696 H   0  0  0  0  0  0
   16.3710   71.5391   20.5603 H   0  0  0  0  0  0
   17.4822   71.0101   21.7590 H   0  0  0  0  0  0
   18.0600   72.1712   19.0702 H   0  0  0  0  0  0
   18.5131   69.3561   19.9342 H   0  0  0  0  0  0
   16.7852   70.8157   17.8425 H   0  0  0  0  0  0
   16.2428   69.8008   19.1335 H   0  0  0  0  0  0
   16.0882   68.5779   16.9693 H   0  0  0  0  0  0
   17.1925   67.8620   18.1293 H   0  0  0  0  0  0
   20.3035   69.2543   16.3296 H   0  0  0  0  0  0
   21.6703   70.4367   17.8107 H   0  0  0  0  0  0
   21.3079   69.8674   19.4126 H   0  0  0  0  0  0
   21.7905   72.2406   19.4924 H   0  0  0  0  0  0
   21.3088   72.8969   17.2700 H   0  0  0  0  0  0
   18.5658   73.8661   18.2704 H   0  0  0  0  0  0
   19.4409   74.2771   16.7538 H   0  0  0  0  0  0
   20.2231   71.3207   21.0282 H   0  0  0  0  0  0
   19.3915   74.1094   20.1696 H   0  0  0  0  0  0
   21.7292   73.5463   21.9035 H   0  0  0  0  0  0
   21.5914   74.5820   20.5029 H   0  0  0  0  0  0
   21.1187   75.4604   23.1098 H   0  0  0  0  0  0
   20.5131   76.2502   21.6741 H   0  0  0  0  0  0
   17.6377   76.1473   25.2425 H   0  0  0  0  0  0
   17.0203   74.6597   24.6570 H   0  0  0  0  0  0
   16.2441   76.8244   23.1379 H   0  0  0  0  0  0
   17.9146   76.2595   21.1263 H   0  0  0  0  0  0
  1  2  1  0  0  0
  1 26  1  0  0  0
  1 27  1  0  0  0
  1 28  1  0  0  0
  2  3  1  0  0  0
  2 18  1  0  0  0
  2 21  1  0  0  0
  3  4  1  0  0  0
  3 29  1  0  0  0
  3 30  1  0  0  0
  4  5  1  0  0  0
  4 31  1  0  0  0
  4 32  1  0  0  0
  5  6  1  0  0  0
  5 17  1  0  0  0
  5 33  1  0  0  0
  6  7  1  0  0  0
  6 12  1  0  0  0
  6 34  1  0  0  0
  7  8  1  0  0  0
  7 35  1  0  0  0
  7 36  1  0  0  0
  8  9  1  0  0  0
  8 37  1  0  0  0
  8 38  1  0  0  0
  9 10  2  0  0  0
  9 11  1  0  0  0
 11 12  2  0  0  0
 11 39  1  0  0  0
 12 13  1  0  0  0
 13 14  1  0  0  0
 13 40  1  0  0  0
 13 41  1  0  0  0
 14 15  1  0  0  0
 14 17  1  0  0  0
 14 42  1  0  0  0
 15 16  2  0  0  0
 15 43  1  0  0  0
 16 44  1  0  0  0
 16 45  1  0  0  0
 17 18  1  0  0  0
 17 46  1  0  0  0
 18 19  1  0  0  0
 18 47  1  0  0  0
 19 20  1  0  0  0
 19 48  1  0  0  0
 19 49  1  0  0  0
 20 21  1  0  0  0
 20 50  1  0  0  0
 20 51  1  0  0  0
 21 22  1  0  0  0
 21 25  1  0  0  0
 22 23  1  0  0  0
 23 24  1  0  0  0
 23 52  1  0  0  0
 23 53  1  0  0  0
 24 25  2  0  0  0
 24 54  1  0  0  0
 25 55  1  0  0  0
M  END
> <s_m_entry_id>
9575

> <s_m_entry_name>
dock_pv.15

> <s_m_Source_Path>
/home/csk/Desktop/cluster/DUD-E-result/mcr

> <s_m_Source_File>
dock_pv.maegz

> <i_m_Source_File_Index>
15

> <chembl_id>
CHEMBL3692349

> <chembl_pref_name>
None

> <i_lp_mmshare_version>
53161

> <i_f3d_flags>
0

> <r_lp_tautomer_probability>
1

> <s_lp_Force_Field>
OPLS_2005

> <r_lp_Energy>
62.381533

> <b_lp_Chiralities_Consistent>
1

> <s_lp_Variant>
CHEMBL1994_lig840-1

> <s_i_glide_gridfile>
glide-grid_2aa2

> <i_i_glide_lignum>
1271

> <i_i_glide_rotatable_bonds>
1

> <r_i_docking_score>
-10.2206339850923

> <r_i_glide_ligand_efficiency>
-0.408825359403692

> <r_i_glide_ligand_efficiency_sa>
-1.19541260144502

> <r_i_glide_ligand_efficiency_ln>
-2.42259654215151

> <r_i_glide_gscore>
-10.2206339850923

> <r_i_glide_lipo>
-5.59470667739465

> <r_i_glide_hbond>
-0.187656008221548

> <r_i_glide_metal>
0

> <r_i_glide_rewards>
-2.38264835192592

> <r_i_glide_evdw>
-30.6845207214355

> <r_i_glide_ecoul>
-4.57646656036377

> <r_i_glide_erotb>
0.165073072576151

> <r_i_glide_esite>
0

> <r_i_glide_emodel>
-43.3376513170446

> <r_i_glide_energy>
-35.2609872817993

> <r_i_glide_einternal>
17.3335781097412

> <i_i_glide_confnum>
3

> <i_i_glide_posenum>
72

> <r_i_glide_eff_state_penalty>
0

> <s_user_duplicate_titles>
CHEMBL1994_lig840

> <s_m_subgroup_title>
dock_pv

> <s_m_subgroupid>
dock_pv

> <b_m_subgroup_collapsed>
1

$$$$
CHEMBL1994_lig900
                    3D
 Schrodinger Suite 2021-1.
 51 54  0  0  1  0            999 V2000
   18.5338   70.4409   19.0862 C   0  0  2  0  0  0
   19.0113   74.0681   21.7302 C   0  0  2  0  0  0
   18.5862   71.9067   19.6636 C   0  0  2  0  0  0
   19.9950   73.8113   20.5623 C   0  0  2  0  0  0
   20.0358   72.3288   20.0997 C   0  0  2  0  0  0
   19.5127   70.4178   17.8668 C   0  0  2  0  0  0
   17.5993   73.7050   21.2117 C   0  0  0  0  0  0
   17.5481   72.2173   20.7925 C   0  0  0  0  0  0
   17.1233   70.1633   18.4929 C   0  0  0  0  0  0
   21.0580   72.1221   18.9477 C   0  0  0  0  0  0
   21.2802   74.5454   20.9401 C   0  0  0  0  0  0
   19.2603   75.5785   21.9494 C   0  0  2  0  0  0
   19.4070   69.1726   16.9283 C   0  0  0  0  0  0
   20.9659   70.7316   18.2892 C   0  0  0  0  0  0
   17.9839   68.6625   16.6614 C   0  0  0  0  0  0
   20.7768   75.7782   21.7117 C   0  0  0  0  0  0
   17.6395   68.2607   15.5534 O   0  0  0  0  0  0
   16.9923   68.7840   17.8225 C   0  0  0  0  0  0
   18.9230   69.3889   20.1668 C   0  0  0  0  0  0
   19.3256   73.2923   23.0451 C   0  0  0  0  0  0
   18.7403   76.1665   23.1280 O   0  0  0  0  0  0
   19.6178   74.3579   19.6920 H   0  0  0  0  0  0
   20.3380   71.6945   20.9304 H   0  0  0  0  0  0
   18.3352   72.5823   18.8422 H   0  0  0  0  0  0
   19.2119   71.2713   17.2697 H   0  0  0  0  0  0
   16.8542   73.9229   21.9742 H   0  0  0  0  0  0
   17.3288   74.3285   20.3574 H   0  0  0  0  0  0
   16.5362   71.9975   20.4690 H   0  0  0  0  0  0
   17.6936   71.5602   21.6488 H   0  0  0  0  0  0
   16.3720   70.2231   19.2699 H   0  0  0  0  0  0
   16.8454   70.9476   17.7848 H   0  0  0  0  0  0
   20.8476   72.8555   18.1669 H   0  0  0  0  0  0
   22.0731   72.3474   19.2728 H   0  0  0  0  0  0
   21.8332   74.8457   20.0502 H   0  0  0  0  0  0
   21.9325   73.9202   21.5521 H   0  0  0  0  0  0
   18.7545   76.1051   21.1367 H   0  0  0  0  0  0
   19.8307   69.4373   15.9592 H   0  0  0  0  0  0
   19.9766   68.3199   17.2699 H   0  0  0  0  0  0
   21.3890   69.9405   18.9082 H   0  0  0  0  0  0
   21.5958   70.7452   17.3987 H   0  0  0  0  0  0
   20.9636   76.6972   21.1543 H   0  0  0  0  0  0
   21.3153   75.8594   22.6577 H   0  0  0  0  0  0
   15.9829   68.6529   17.4335 H   0  0  0  0  0  0
   17.1787   67.9741   18.5262 H   0  0  0  0  0  0
   18.9042   68.3700   19.7831 H   0  0  0  0  0  0
   19.9211   69.5419   20.5731 H   0  0  0  0  0  0
   18.2412   69.4304   21.0139 H   0  0  0  0  0  0
   19.4372   72.2197   22.8998 H   0  0  0  0  0  0
   20.2408   73.6470   23.5142 H   0  0  0  0  0  0
   18.5306   73.4304   23.7792 H   0  0  0  0  0  0
   17.7827   76.1064   23.1033 H   0  0  0  0  0  0
  1  3  1  0  0  0
  1  6  1  0  0  0
  1  9  1  0  0  0
  1 19  1  0  0  0
  2  7  1  0  0  0
  2 12  1  0  0  0
  2 20  1  0  0  0
  2  4  1  0  0  0
  3  5  1  0  0  0
  3  8  1  0  0  0
  3 24  1  0  0  0
  4  5  1  0  0  0
  4 11  1  0  0  0
  4 22  1  0  0  0
  5 10  1  0  0  0
  5 23  1  0  0  0
  6 13  1  0  0  0
  6 14  1  0  0  0
  6 25  1  0  0  0
  7  8  1  0  0  0
  7 26  1  0  0  0
  7 27  1  0  0  0
  8 28  1  0  0  0
  8 29  1  0  0  0
  9 18  1  0  0  0
  9 30  1  0  0  0
  9 31  1  0  0  0
 10 14  1  0  0  0
 10 32  1  0  0  0
 10 33  1  0  0  0
 11 16  1  0  0  0
 11 34  1  0  0  0
 11 35  1  0  0  0
 12 21  1  0  0  0
 12 16  1  0  0  0
 12 36  1  0  0  0
 13 15  1  0  0  0
 13 37  1  0  0  0
 13 38  1  0  0  0
 14 39  1  0  0  0
 14 40  1  0  0  0
 15 18  1  0  0  0
 15 17  2  0  0  0
 16 41  1  0  0  0
 16 42  1  0  0  0
 18 43  1  0  0  0
 18 44  1  0  0  0
 19 45  1  0  0  0
 19 46  1  0  0  0
 19 47  1  0  0  0
 20 48  1  0  0  0
 20 49  1  0  0  0
 20 50  1  0  0  0
 21 51  1  0  0  0
M  END
> <s_m_entry_id>
9576

> <s_m_entry_name>
dock_pv.16

> <s_m_Source_Path>
/home/csk/Desktop/cluster/DUD-E-result/mcr

> <s_m_Source_File>
dock_pv.maegz

> <i_m_Source_File_Index>
16

> <chembl_id>
CHEMBL27769

> <chembl_pref_name>
STANOLONE

> <i_lp_mmshare_version>
53161

> <i_f3d_flags>
0

> <r_lp_tautomer_probability>
0.99999998

> <s_lp_Force_Field>
OPLS_2005

> <r_lp_Energy>
55.26858

> <b_lp_Chiralities_Consistent>
1

> <s_lp_Variant>
CHEMBL1994_lig900-1

> <s_i_glide_gridfile>
glide-grid_2aa2

> <i_i_glide_lignum>
1333

> <i_i_glide_rotatable_bonds>
1

> <r_i_docking_score>
-10.2049030206752

> <r_i_glide_ligand_efficiency>
-0.485947762889293

> <r_i_glide_ligand_efficiency_sa>
-1.340693030133

> <r_i_glide_ligand_efficiency_ln>
-2.52314165091374

> <r_i_glide_gscore>
-10.2049030206752

> <r_i_glide_lipo>
-4.92698247100483

> <r_i_glide_hbond>
-0.32

> <r_i_glide_metal>
0

> <r_i_glide_rewards>
-2.69052886799918

> <r_i_glide_evdw>
-33.1426010131836

> <r_i_glide_ecoul>
-4.06841087341309

> <r_i_glide_erotb>
0

> <r_i_glide_esite>
0

> <r_i_glide_emodel>
-50.6450735442492

> <r_i_glide_energy>
-37.2110118865967

> <r_i_glide_einternal>
0.58103996515274

> <i_i_glide_confnum>
1

> <i_i_glide_posenum>
35

> <r_i_glide_eff_state_penalty>
0

> <s_user_duplicate_titles>
CHEMBL1994_lig900

> <s_m_subgroup_title>
dock_pv

> <s_m_subgroupid>
dock_pv

> <b_m_subgroup_collapsed>
1

$$$$
CHEMBL1994_lig837
                    3D
 Schrodinger Suite 2021-1.
 49 53  0  0  1  0            999 V2000
   19.0408   72.2430   22.8666 C   0  0  0  0  0  0
   18.7511   73.3751   21.8170 C   0  0  2  0  0  0
   17.4431   73.0624   21.0344 C   0  0  0  0  0  0
   17.5382   71.6847   20.3995 C   0  0  0  0  0  0
   18.7584   71.6131   19.4579 C   0  0  2  0  0  0
   18.9867   70.2132   18.8873 C   0  0  1  0  0  0
   17.6856   69.5493   18.3963 C   0  0  0  0  0  0
   17.9744   68.3290   17.5488 C   0  0  0  0  0  0
   18.8568   68.6916   16.3785 C   0  0  0  0  0  0
   18.6344   68.2592   15.2652 O   0  0  0  0  0  0
   19.9760   69.5592   16.6613 C   0  0  0  0  0  0
   20.0465   70.3143   17.7731 C   0  0  0  0  0  0
   21.0883   71.3152   17.9031 C   0  0  0  0  0  0
   21.1234   72.2080   18.9073 C   0  0  0  0  0  0
   20.0948   72.2010   20.0261 C   0  0  1  0  0  0
   19.8287   73.5522   20.7146 C   0  0  2  0  0  0
   20.9728   74.3176   21.3726 C   0  0  0  0  0  0
   20.2328   75.3008   22.2884 C   0  0  0  0  0  0
   18.8011   74.7501   22.5391 C   0  0  2  0  0  0
   18.5995   74.5449   23.9314 O   0  0  0  0  0  0
   17.8345   75.5855   24.4570 C   0  0  0  0  0  0
   17.1240   76.1811   23.2763 C   0  0  0  0  0  0
   17.6857   75.6906   22.1704 C   0  0  0  0  0  0
   19.3126   71.2722   22.4593 H   0  0  0  0  0  0
   19.8387   72.5272   23.5520 H   0  0  0  0  0  0
   18.1601   72.0706   23.4881 H   0  0  0  0  0  0
   16.5698   73.0678   21.6707 H   0  0  0  0  0  0
   17.2309   73.8085   20.2670 H   0  0  0  0  0  0
   16.6350   71.4622   19.8446 H   0  0  0  0  0  0
   17.5938   70.9140   21.1681 H   0  0  0  0  0  0
   18.4794   72.2715   18.6300 H   0  0  0  0  0  0
   19.3969   69.5821   19.6777 H   0  0  0  0  0  0
   17.0878   69.2428   19.2538 H   0  0  0  0  0  0
   17.0726   70.2599   17.8370 H   0  0  0  0  0  0
   17.0595   67.8632   17.1858 H   0  0  0  0  0  0
   18.5196   67.5876   18.1347 H   0  0  0  0  0  0
   20.7387   69.6779   15.9088 H   0  0  0  0  0  0
   21.8418   71.3729   17.1371 H   0  0  0  0  0  0
   21.8954   72.9531   18.9192 H   0  0  0  0  0  0
   20.5215   71.5196   20.7594 H   0  0  0  0  0  0
   19.4505   74.2218   19.9362 H   0  0  0  0  0  0
   21.6349   73.6657   21.9351 H   0  0  0  0  0  0
   21.5880   74.8410   20.6383 H   0  0  0  0  0  0
   20.1738   76.2669   21.7860 H   0  0  0  0  0  0
   20.7829   75.4609   23.2175 H   0  0  0  0  0  0
   17.1749   75.2195   25.2433 H   0  0  0  0  0  0
   18.5639   76.2622   24.8699 H   0  0  0  0  0  0
   16.3036   76.8754   23.3550 H   0  0  0  0  0  0
   17.4228   75.8731   21.1412 H   0  0  0  0  0  0
  1  2  1  0  0  0
  1 24  1  0  0  0
  1 25  1  0  0  0
  1 26  1  0  0  0
  2  3  1  0  0  0
  2 16  1  0  0  0
  2 19  1  0  0  0
  3  4  1  0  0  0
  3 27  1  0  0  0
  3 28  1  0  0  0
  4  5  1  0  0  0
  4 29  1  0  0  0
  4 30  1  0  0  0
  5  6  1  0  0  0
  5 15  1  0  0  0
  5 31  1  0  0  0
  6  7  1  0  0  0
  6 12  1  0  0  0
  6 32  1  0  0  0
  7  8  1  0  0  0
  7 33  1  0  0  0
  7 34  1  0  0  0
  8  9  1  0  0  0
  8 35  1  0  0  0
  8 36  1  0  0  0
  9 10  2  0  0  0
  9 11  1  0  0  0
 11 12  2  0  0  0
 11 37  1  0  0  0
 12 13  1  0  0  0
 13 14  2  0  0  0
 13 38  1  0  0  0
 14 15  1  0  0  0
 14 39  1  0  0  0
 15 16  1  0  0  0
 15 40  1  0  0  0
 16 17  1  0  0  0
 16 41  1  0  0  0
 17 18  1  0  0  0
 17 42  1  0  0  0
 17 43  1  0  0  0
 18 19  1  0  0  0
 18 44  1  0  0  0
 18 45  1  0  0  0
 19 20  1  0  0  0
 19 23  1  0  0  0
 20 21  1  0  0  0
 21 22  1  0  0  0
 21 46  1  0  0  0
 21 47  1  0  0  0
 22 23  2  0  0  0
 22 48  1  0  0  0
 23 49  1  0  0  0
M  END
> <s_m_entry_id>
9577

> <s_m_entry_name>
dock_pv.17

> <s_m_Source_Path>
/home/csk/Desktop/cluster/DUD-E-result/mcr

> <s_m_Source_File>
dock_pv.maegz

> <i_m_Source_File_Index>
17

> <chembl_id>
CHEMBL3692346

> <chembl_pref_name>
None

> <i_lp_mmshare_version>
53161

> <i_f3d_flags>
0

> <r_lp_tautomer_probability>
1

> <s_lp_Force_Field>
OPLS_2005

> <r_lp_Energy>
58.95703

> <b_lp_Chiralities_Consistent>
1

> <s_lp_Variant>
CHEMBL1994_lig837-1

> <s_i_glide_gridfile>
glide-grid_2aa2

> <i_i_glide_lignum>
1268

> <i_i_glide_rotatable_bonds>
0

> <r_i_docking_score>
-10.0182969463346

> <r_i_glide_ligand_efficiency>
-0.435578128101503

> <r_i_glide_ligand_efficiency_sa>
-1.23872625435875

> <r_i_glide_ligand_efficiency_ln>
-2.42251504251801

> <r_i_glide_gscore>
-10.0182969463346

> <r_i_glide_lipo>
-5.18444396670787

> <r_i_glide_hbond>
-0.0274195854467585

> <r_i_glide_metal>
0

> <r_i_glide_rewards>
-2.64252313636364

> <r_i_glide_evdw>
-36.8826866149902

> <r_i_glide_ecoul>
-2.13183951377869

> <r_i_glide_erotb>
0

> <r_i_glide_esite>
0

> <r_i_glide_emodel>
-49.7945375683672

> <r_i_glide_energy>
-39.0145261287689

> <r_i_glide_einternal>
0

> <i_i_glide_confnum>
1

> <i_i_glide_posenum>
143

> <r_i_glide_eff_state_penalty>
0

> <s_user_duplicate_titles>
CHEMBL1994_lig837

> <s_m_subgroup_title>
dock_pv

> <s_m_subgroupid>
dock_pv

> <b_m_subgroup_collapsed>
1

$$$$
CHEMBL1994_lig846
                    3D
 Schrodinger Suite 2021-1.
 58 62  0  0  1  0            999 V2000
   18.2805   72.2652   24.0364 C   0  0  0  0  0  0
   19.3441   72.5929   22.9626 C   0  0  0  0  0  0
   18.8098   73.5300   21.8204 C   0  0  2  0  0  0
   17.4037   73.0745   21.3085 C   0  0  0  0  0  0
   17.4735   71.6577   20.7722 C   0  0  0  0  0  0
   18.2880   71.7050   19.4685 C   0  0  1  0  0  0
   19.7187   72.2600   19.7328 C   0  0  1  0  0  0
   20.3296   72.4346   18.3354 C   0  0  0  0  0  0
   20.5758   71.0582   17.6740 C   0  0  1  0  0  0
   21.6079   70.1827   18.3911 C   0  0  0  0  0  0
   22.6411   70.9796   18.8635 O   0  0  0  0  0  0
   19.2858   70.2452   17.5897 C   0  0  0  0  0  0
   19.0414   69.4464   16.5298 C   0  0  0  0  0  0
   17.8314   68.6621   16.3732 C   0  0  0  0  0  0
   17.4975   68.2576   15.2711 O   0  0  0  0  0  0
   16.9348   68.5608   17.5973 C   0  0  0  0  0  0
   16.8945   69.8879   18.3350 C   0  0  0  0  0  0
   18.3116   70.3187   18.7921 C   0  0  2  0  0  0
   19.6495   73.6013   20.5143 C   0  0  2  0  0  0
   20.9109   74.3635   20.9101 C   0  0  0  0  0  0
   20.3423   75.4846   21.7981 C   0  0  0  0  0  0
   18.9455   75.0167   22.2928 C   0  0  2  0  0  0
   18.9297   75.1996   23.7047 O   0  0  0  0  0  0
   17.6791   75.7113   24.1243 C   0  0  0  0  0  0
   16.9283   75.9673   22.8701 C   0  0  0  0  0  0
   17.7499   75.7857   21.8344 C   0  0  0  0  0  0
   18.6415   71.8628   24.9702 H   0  0  0  0  0  0
   17.8412   73.1756   24.3846 H   0  0  0  0  0  0
   17.4986   71.5997   23.6715 H   0  0  0  0  0  0
   19.8183   71.6877   22.5626 H   0  0  0  0  0  0
   20.1296   73.1200   23.5026 H   0  0  0  0  0  0
   16.6515   73.1434   22.0700 H   0  0  0  0  0  0
   17.0112   73.7194   20.5209 H   0  0  0  0  0  0
   16.4631   71.3140   20.6067 H   0  0  0  0  0  0
   17.8940   70.9412   21.4776 H   0  0  0  0  0  0
   17.7808   72.3986   18.7928 H   0  0  0  0  0  0
   20.2889   71.5494   20.3307 H   0  0  0  0  0  0
   19.7287   73.0934   17.7048 H   0  0  0  0  0  0
   21.2678   72.9859   18.4081 H   0  0  0  0  0  0
   20.9575   71.2538   16.6700 H   0  0  0  0  0  0
   21.1920   69.6377   19.2403 H   0  0  0  0  0  0
   22.0161   69.4622   17.6901 H   0  0  0  0  0  0
   22.5961   71.0330   19.8266 H   0  0  0  0  0  0
   19.7543   69.4616   15.7235 H   0  0  0  0  0  0
   15.9503   68.1850   17.3289 H   0  0  0  0  0  0
   17.3974   67.8619   18.2809 H   0  0  0  0  0  0
   16.2430   69.7484   19.1849 H   0  0  0  0  0  0
   16.4243   70.6642   17.7268 H   0  0  0  0  0  0
   18.6736   69.5991   19.5292 H   0  0  0  0  0  0
   19.1396   74.2762   19.8186 H   0  0  0  0  0  0
   21.5986   73.7226   21.4638 H   0  0  0  0  0  0
   21.4560   74.7707   20.0604 H   0  0  0  0  0  0
   20.2530   76.4111   21.2296 H   0  0  0  0  0  0
   21.0248   75.6940   22.6236 H   0  0  0  0  0  0
   17.1554   75.0735   24.8346 H   0  0  0  0  0  0
   17.8429   76.6620   24.5921 H   0  0  0  0  0  0
   15.8965   76.2620   22.8603 H   0  0  0  0  0  0
   17.5126   75.8620   20.7839 H   0  0  0  0  0  0
  1  2  1  0  0  0
  1 27  1  0  0  0
  1 28  1  0  0  0
  1 29  1  0  0  0
  2  3  1  0  0  0
  2 30  1  0  0  0
  2 31  1  0  0  0
  3  4  1  0  0  0
  3 19  1  0  0  0
  3 22  1  0  0  0
  4  5  1  0  0  0
  4 32  1  0  0  0
  4 33  1  0  0  0
  5  6  1  0  0  0
  5 34  1  0  0  0
  5 35  1  0  0  0
  6  7  1  0  0  0
  6 18  1  0  0  0
  6 36  1  0  0  0
  7  8  1  0  0  0
  7 19  1  0  0  0
  7 37  1  0  0  0
  8  9  1  0  0  0
  8 38  1  0  0  0
  8 39  1  0  0  0
  9 10  1  0  0  0
  9 12  1  0  0  0
  9 40  1  0  0  0
 10 11  1  0  0  0
 10 41  1  0  0  0
 10 42  1  0  0  0
 11 43  1  0  0  0
 12 13  2  0  0  0
 12 18  1  0  0  0
 13 14  1  0  0  0
 13 44  1  0  0  0
 14 15  2  0  0  0
 14 16  1  0  0  0
 16 17  1  0  0  0
 16 45  1  0  0  0
 16 46  1  0  0  0
 17 18  1  0  0  0
 17 47  1  0  0  0
 17 48  1  0  0  0
 18 49  1  0  0  0
 19 20  1  0  0  0
 19 50  1  0  0  0
 20 21  1  0  0  0
 20 51  1  0  0  0
 20 52  1  0  0  0
 21 22  1  0  0  0
 21 53  1  0  0  0
 21 54  1  0  0  0
 22 23  1  0  0  0
 22 26  1  0  0  0
 23 24  1  0  0  0
 24 25  1  0  0  0
 24 55  1  0  0  0
 24 56  1  0  0  0
 25 26  2  0  0  0
 25 57  1  0  0  0
 26 58  1  0  0  0
M  END
> <s_m_entry_id>
9578

> <s_m_entry_name>
dock_pv.18

> <s_m_Source_Path>
/home/csk/Desktop/cluster/DUD-E-result/mcr

> <s_m_Source_File>
dock_pv.maegz

> <i_m_Source_File_Index>
18

> <chembl_id>
CHEMBL3692357

> <chembl_pref_name>
None

> <i_lp_mmshare_version>
53161

> <i_f3d_flags>
0

> <r_lp_tautomer_probability>
1

> <s_lp_Force_Field>
OPLS_2005

> <r_lp_Energy>
66.568254

> <b_lp_Chiralities_Consistent>
1

> <s_lp_Variant>
CHEMBL1994_lig846-1

> <s_i_glide_gridfile>
glide-grid_2aa2

> <i_i_glide_lignum>
1277

> <i_i_glide_rotatable_bonds>
3

> <r_i_docking_score>
-9.87309464788508

> <r_i_glide_ligand_efficiency>
-0.379734409534041

> <r_i_glide_ligand_efficiency_sa>
-1.12496169406185

> <r_i_glide_ligand_efficiency_ln>
-2.31866388178991

> <r_i_glide_gscore>
-9.87309464788508

> <r_i_glide_lipo>
-5.53737346037236

> <r_i_glide_hbond>
-0.320059960522502

> <r_i_glide_metal>
0

> <r_i_glide_rewards>
-2.15521264730375

> <r_i_glide_evdw>
-18.7333393096924

> <r_i_glide_ecoul>
-7.16218423843384

> <r_i_glide_erotb>
0.150546021563227

> <r_i_glide_esite>
0

> <r_i_glide_emodel>
-57.2085896994856

> <r_i_glide_energy>
-25.8955235481262

> <r_i_glide_einternal>
3.36117243766785

> <i_i_glide_confnum>
2

> <i_i_glide_posenum>
172

> <r_i_glide_eff_state_penalty>
0

> <s_user_duplicate_titles>
CHEMBL1994_lig846

> <s_m_subgroup_title>
dock_pv

> <s_m_subgroupid>
dock_pv

> <b_m_subgroup_collapsed>
1

$$$$
CHEMBL1994_lig1111
                    3D
 Schrodinger Suite 2021-1.
 34 36  0  0  1  0            999 V2000
   21.1525   74.8016   21.3758 C   0  0  0  0  0  0
   20.3595   75.0650   22.4851 C   0  0  0  0  0  0
   19.1880   74.3547   22.7399 C   0  0  0  0  0  0
   20.8178   73.7861   20.4852 C   0  0  0  0  0  0
   19.6892   72.9801   20.7404 C   0  0  0  0  0  0
   18.8870   73.2991   21.8745 C   0  0  0  0  0  0
   17.8408   72.4053   21.8912 N   0  0  0  0  0  0
   17.9485   71.5369   20.8415 C   0  0  0  0  0  0
   19.0798   71.8315   20.1006 C   0  0  0  0  0  0
   19.5905   71.0389   18.9494 C   0  0  0  0  0  0
   18.7285   70.2556   18.1660 C   0  0  0  0  0  0
   19.2319   69.5284   17.0859 C   0  0  0  0  0  0
   20.5810   69.6162   16.7669 C   0  0  0  0  0  0
   21.4413   70.3805   17.5414 C   0  0  0  0  0  0
   20.9520   71.0731   18.6374 C   0  0  0  0  0  0
   18.3634   74.7127   23.8005 N   0  0  0  0  0  0
   17.1462   75.9611   23.5610 S   0  0  0  0  0  0
   16.2553   75.4619   21.9783 C   0  0  0  0  0  0
   17.8424   77.2059   23.2732 O   0  0  0  0  0  0
   16.2448   75.8696   24.7051 O   0  0  0  0  0  0
   18.2195   68.4930   16.1529 Cl  0  0  0  0  0  0
   22.0367   75.3988   21.2014 H   0  0  0  0  0  0
   20.6418   75.8617   23.1568 H   0  0  0  0  0  0
   21.4371   73.6315   19.6172 H   0  0  0  0  0  0
   17.0809   72.3750   22.5634 H   0  0  0  0  0  0
   17.2104   70.7587   20.7184 H   0  0  0  0  0  0
   17.6754   70.1993   18.3982 H   0  0  0  0  0  0
   20.9768   69.0623   15.9324 H   0  0  0  0  0  0
   22.4931   70.4318   17.3076 H   0  0  0  0  0  0
   21.6572   71.6051   19.2503 H   0  0  0  0  0  0
   18.0390   73.9539   24.3866 H   0  0  0  0  0  0
   15.4416   76.1527   21.7923 H   0  0  0  0  0  0
   15.8522   74.4592   22.0699 H   0  0  0  0  0  0
   16.9662   75.4953   21.1542 H   0  0  0  0  0  0
  1  2  2  0  0  0
  1  4  1  0  0  0
  1 22  1  0  0  0
  2  3  1  0  0  0
  2 23  1  0  0  0
  3  6  2  0  0  0
  3 16  1  0  0  0
  4  5  2  0  0  0
  4 24  1  0  0  0
  5  6  1  0  0  0
  5  9  1  0  0  0
  6  7  1  0  0  0
  7  8  1  0  0  0
  7 25  1  0  0  0
  8  9  2  0  0  0
  8 26  1  0  0  0
  9 10  1  0  0  0
 10 11  2  0  0  0
 10 15  1  0  0  0
 11 12  1  0  0  0
 11 27  1  0  0  0
 12 13  2  0  0  0
 12 21  1  0  0  0
 13 14  1  0  0  0
 13 28  1  0  0  0
 14 15  2  0  0  0
 14 29  1  0  0  0
 15 30  1  0  0  0
 16 17  1  0  0  0
 16 31  1  0  0  0
 17 18  1  0  0  0
 17 19  2  0  0  0
 17 20  2  0  0  0
 18 32  1  0  0  0
 18 33  1  0  0  0
 18 34  1  0  0  0
M  END
> <s_m_entry_id>
9579

> <s_m_entry_name>
dock_pv.19

> <s_m_Source_Path>
/home/csk/Desktop/cluster/DUD-E-result/mcr

> <s_m_Source_File>
dock_pv.maegz

> <i_m_Source_File_Index>
19

> <chembl_id>
CHEMBL3605932

> <chembl_pref_name>
None

> <i_lp_mmshare_version>
53161

> <i_f3d_flags>
0

> <r_lp_tautomer_probability>
1

> <s_lp_Force_Field>
OPLS_2005

> <r_lp_Energy>
5.347001

> <b_lp_Chiralities_Consistent>
1

> <s_lp_Variant>
CHEMBL1994_lig1111-1

> <s_i_glide_gridfile>
glide-grid_2aa2

> <i_i_glide_lignum>
1597

> <i_i_glide_rotatable_bonds>
3

> <r_i_docking_score>
-9.78204497282738

> <r_i_glide_ligand_efficiency>
-0.465811665372732

> <r_i_glide_ligand_efficiency_sa>
-1.28513906393297

> <r_i_glide_ligand_efficiency_ln>
-2.41859085304852

> <r_i_glide_gscore>
-9.78204497282738

> <r_i_glide_lipo>
-4.35356290418413

> <r_i_glide_hbond>
-0.32

> <r_i_glide_metal>
0

> <r_i_glide_rewards>
-2.36342928634951

> <r_i_glide_evdw>
-32.0912704467773

> <r_i_glide_ecoul>
-9.53038311004639

> <r_i_glide_erotb>
0.362993480709664

> <r_i_glide_esite>
-0.073925274157576

> <r_i_glide_emodel>
-61.8278495004355

> <r_i_glide_energy>
-41.6216535568237

> <r_i_glide_einternal>
5.02394723892212

> <i_i_glide_confnum>
11

> <i_i_glide_posenum>
271

> <r_i_glide_eff_state_penalty>
0

> <s_user_duplicate_titles>
CHEMBL1994_lig1111

> <s_m_subgroup_title>
dock_pv

> <s_m_subgroupid>
dock_pv

> <b_m_subgroup_collapsed>
1

$$$$
CHEMBL1994_lig881
                    3D
 Schrodinger Suite 2021-1.
 34 36  0  0  1  0            999 V2000
   19.3635   71.2999   18.8771 C   0  0  0  0  0  0
   20.4700   70.7257   18.2293 C   0  0  0  0  0  0
   20.3054   69.7509   17.2504 C   0  0  0  0  0  0
   19.0385   69.2511   16.9657 C   0  0  0  0  0  0
   17.9257   69.7813   17.6167 C   0  0  0  0  0  0
   18.0898   70.8347   18.5142 C   0  0  0  0  0  0
   19.4154   75.8284   23.4862 C   0  0  0  0  0  0
   17.9511   75.3591   23.4343 C   0  0  0  0  0  0
   17.8410   74.3164   22.5891 N   0  0  0  0  0  0
   20.0200   75.8620   22.1717 O   0  0  0  0  0  0
   19.9039   74.6867   21.4660 C   0  0  0  0  0  0
   18.8036   73.8598   21.6811 C   0  0  0  0  0  0
   18.6573   72.6740   20.9454 C   0  0  0  0  0  0
   19.5429   72.4188   19.8621 C   0  0  0  0  0  0
   20.6259   73.2983   19.6686 C   0  0  0  0  0  0
   20.8332   74.4039   20.4829 C   0  0  0  0  0  0
   17.0267   75.8616   24.0709 O   0  0  0  0  0  0
   17.5774   71.6831   21.3880 C   0  0  0  0  0  0
   16.5450   69.2199   17.3531 C   0  0  0  0  0  0
   21.4760   71.0426   18.4609 H   0  0  0  0  0  0
   21.1693   69.3535   16.7411 H   0  0  0  0  0  0
   18.9262   68.4533   16.2466 H   0  0  0  0  0  0
   17.2027   71.2809   18.9325 H   0  0  0  0  0  0
   19.9257   75.0619   24.0699 H   0  0  0  0  0  0
   19.4408   76.7739   24.0274 H   0  0  0  0  0  0
   16.9292   73.8728   22.6240 H   0  0  0  0  0  0
   21.3206   73.1531   18.8552 H   0  0  0  0  0  0
   21.6652   75.0707   20.3111 H   0  0  0  0  0  0
   17.4709   71.6859   22.4733 H   0  0  0  0  0  0
   16.6077   71.9369   20.9619 H   0  0  0  0  0  0
   17.8419   70.6559   21.1400 H   0  0  0  0  0  0
   16.5550   68.1356   17.4517 H   0  0  0  0  0  0
   16.2408   69.4591   16.3395 H   0  0  0  0  0  0
   15.8007   69.6032   18.0538 H   0  0  0  0  0  0
  1  2  2  0  0  0
  1  6  1  0  0  0
  1 14  1  0  0  0
  2  3  1  0  0  0
  2 20  1  0  0  0
  3  4  2  0  0  0
  3 21  1  0  0  0
  4  5  1  0  0  0
  4 22  1  0  0  0
  5  6  2  0  0  0
  5 19  1  0  0  0
  6 23  1  0  0  0
  7  8  1  0  0  0
  7 10  1  0  0  0
  7 24  1  0  0  0
  7 25  1  0  0  0
  8  9  1  0  0  0
  8 17  2  0  0  0
  9 12  1  0  0  0
  9 26  1  0  0  0
 10 11  1  0  0  0
 11 12  2  0  0  0
 11 16  1  0  0  0
 12 13  1  0  0  0
 13 14  2  0  0  0
 13 18  1  0  0  0
 14 15  1  0  0  0
 15 16  2  0  0  0
 15 27  1  0  0  0
 16 28  1  0  0  0
 18 29  1  0  0  0
 18 30  1  0  0  0
 18 31  1  0  0  0
 19 32  1  0  0  0
 19 33  1  0  0  0
 19 34  1  0  0  0
M  END
> <s_m_entry_id>
9580

> <s_m_entry_name>
dock_pv.20

> <s_m_Source_Path>
/home/csk/Desktop/cluster/DUD-E-result/mcr

> <s_m_Source_File>
dock_pv.maegz

> <i_m_Source_File_Index>
20

> <chembl_id>
CHEMBL4067551

> <chembl_pref_name>
None

> <i_lp_mmshare_version>
53161

> <i_f3d_flags>
0

> <r_lp_tautomer_probability>
1

> <s_lp_Force_Field>
OPLS_2005

> <r_lp_Energy>
25.044974

> <b_lp_Chiralities_Consistent>
1

> <s_lp_Variant>
CHEMBL1994_lig881-1

> <s_i_glide_gridfile>
glide-grid_2aa2

> <i_i_glide_lignum>
1324

> <i_i_glide_rotatable_bonds>
1

> <r_i_docking_score>
-9.76469289412331

> <r_i_glide_ligand_efficiency>
-0.513931204953858

> <r_i_glide_ligand_efficiency_sa>
-1.37137487328255

> <r_i_glide_ligand_efficiency_ln>
-2.47555937503356

> <r_i_glide_gscore>
-9.76469289412331

> <r_i_glide_lipo>
-3.81838144926274

> <r_i_glide_hbond>
-0.345468122023585

> <r_i_glide_metal>
0

> <r_i_glide_rewards>
-3.56424035323135

> <r_i_glide_evdw>
-34.4825057983398

> <r_i_glide_ecoul>
-3.21364831924438

> <r_i_glide_erotb>
0.19164507420373

> <r_i_glide_esite>
-0.0220755060057068

> <r_i_glide_emodel>
-55.2378143394437

> <r_i_glide_energy>
-37.6961541175842

> <r_i_glide_einternal>
3.17829275131226

> <i_i_glide_confnum>
1

> <i_i_glide_posenum>
356

> <r_i_glide_eff_state_penalty>
0

> <s_user_duplicate_titles>
CHEMBL1994_lig881

> <s_m_subgroup_title>
dock_pv

> <s_m_subgroupid>
dock_pv

> <b_m_subgroup_collapsed>
1

$$$$
CHEMBL1994_lig1112
                    3D
 Schrodinger Suite 2021-1.
 38 40  0  0  1  0            999 V2000
   20.9788   74.3759   20.6983 C   0  0  0  0  0  0
   20.3884   74.7274   21.9079 C   0  0  0  0  0  0
   19.2164   74.1186   22.3512 C   0  0  0  0  0  0
   20.4310   73.3844   19.8818 C   0  0  0  0  0  0
   19.2808   72.6855   20.3029 C   0  0  0  0  0  0
   18.6926   73.1047   21.5421 C   0  0  0  0  0  0
   17.5651   72.3501   21.7246 N   0  0  0  0  0  0
   17.4413   71.4610   20.7090 C   0  0  0  0  0  0
   18.4675   71.5797   19.7969 C   0  0  0  0  0  0
   18.6030   70.6500   18.6099 C   0  0  0  0  0  0
   19.8294   70.3511   17.9912 C   0  0  0  0  0  0
   19.8560   69.4621   16.9004 C   0  0  0  0  0  0
   18.7022   68.8065   16.4820 C   0  0  0  0  0  0
   17.4942   69.0636   17.1180 C   0  0  0  0  0  0
   17.4417   70.0080   18.1413 C   0  0  0  0  0  0
   18.5865   74.5339   23.5280 N   0  0  0  0  0  0
   17.4505   75.8821   23.4500 S   0  0  0  0  0  0
   16.3716   75.4663   21.9546 C   0  0  0  0  0  0
   16.6410   75.8620   24.6674 O   0  0  0  0  0  0
   18.2411   77.0620   23.1287 O   0  0  0  0  0  0
   20.9660   70.9087   18.5308 O   0  0  0  0  0  0
   22.2409   70.5075   18.0740 C   0  0  0  0  0  0
   21.8673   74.9012   20.3812 H   0  0  0  0  0  0
   20.8330   75.5124   22.5026 H   0  0  0  0  0  0
   20.9015   73.1703   18.9364 H   0  0  0  0  0  0
   16.9071   72.4136   22.4970 H   0  0  0  0  0  0
   16.6219   70.7680   20.7333 H   0  0  0  0  0  0
   20.7775   69.2198   16.3958 H   0  0  0  0  0  0
   18.7517   68.0968   15.6713 H   0  0  0  0  0  0
   16.5920   68.5582   16.8060 H   0  0  0  0  0  0
   16.4793   70.2090   18.5872 H   0  0  0  0  0  0
   18.2762   73.7940   24.1395 H   0  0  0  0  0  0
   15.6088   76.2304   21.8607 H   0  0  0  0  0  0
   16.9975   75.4628   21.0635 H   0  0  0  0  0  0
   15.8943   74.4999   22.0699 H   0  0  0  0  0  0
   22.9993   71.1048   18.5808 H   0  0  0  0  0  0
   22.4229   69.4621   18.3226 H   0  0  0  0  0  0
   22.3569   70.6620   17.0019 H   0  0  0  0  0  0
  1  2  2  0  0  0
  1  4  1  0  0  0
  1 23  1  0  0  0
  2  3  1  0  0  0
  2 24  1  0  0  0
  3  6  2  0  0  0
  3 16  1  0  0  0
  4  5  2  0  0  0
  4 25  1  0  0  0
  5  6  1  0  0  0
  5  9  1  0  0  0
  6  7  1  0  0  0
  7  8  1  0  0  0
  7 26  1  0  0  0
  8  9  2  0  0  0
  8 27  1  0  0  0
  9 10  1  0  0  0
 10 11  2  0  0  0
 10 15  1  0  0  0
 11 12  1  0  0  0
 11 21  1  0  0  0
 12 13  2  0  0  0
 12 28  1  0  0  0
 13 14  1  0  0  0
 13 29  1  0  0  0
 14 15  2  0  0  0
 14 30  1  0  0  0
 15 31  1  0  0  0
 16 17  1  0  0  0
 16 32  1  0  0  0
 17 18  1  0  0  0
 17 19  2  0  0  0
 17 20  2  0  0  0
 18 33  1  0  0  0
 18 34  1  0  0  0
 18 35  1  0  0  0
 21 22  1  0  0  0
 22 36  1  0  0  0
 22 37  1  0  0  0
 22 38  1  0  0  0
M  END
> <s_m_entry_id>
9582

> <s_m_entry_name>
dock_pv.22

> <s_m_Source_Path>
/home/csk/Desktop/cluster/DUD-E-result/mcr

> <s_m_Source_File>
dock_pv.maegz

> <i_m_Source_File_Index>
22

> <chembl_id>
CHEMBL3605933

> <chembl_pref_name>
None

> <i_lp_mmshare_version>
53161

> <i_f3d_flags>
0

> <r_lp_tautomer_probability>
1

> <s_lp_Force_Field>
OPLS_2005

> <r_lp_Energy>
16.757102

> <b_lp_Chiralities_Consistent>
1

> <s_lp_Variant>
CHEMBL1994_lig1112-1

> <s_i_glide_gridfile>
glide-grid_2aa2

> <i_i_glide_lignum>
1598

> <i_i_glide_rotatable_bonds>
4

> <r_i_docking_score>
-9.6667166260784

> <r_i_glide_ligand_efficiency>
-0.439396210276291

> <r_i_glide_ligand_efficiency_sa>
-1.23120546166652

> <r_i_glide_ligand_efficiency_ln>
-2.36289814546976

> <r_i_glide_gscore>
-9.6667166260784

> <r_i_glide_lipo>
-4.35939186813408

> <r_i_glide_hbond>
-0.32

> <r_i_glide_metal>
0

> <r_i_glide_rewards>
-2.28060655035651

> <r_i_glide_evdw>
-42.2614593505859

> <r_i_glide_ecoul>
-6.29893684387207

> <r_i_glide_erotb>
0.3719694280416

> <r_i_glide_esite>
-0.0207741415193046

> <r_i_glide_emodel>
-69.7788768377642

> <r_i_glide_energy>
-48.560396194458

> <r_i_glide_einternal>
7.97936296463013

> <i_i_glide_confnum>
8

> <i_i_glide_posenum>
285

> <r_i_glide_eff_state_penalty>
0

> <s_user_duplicate_titles>
CHEMBL1994_lig1112

> <s_m_subgroup_title>
dock_pv

> <s_m_subgroupid>
dock_pv

> <b_m_subgroup_collapsed>
1

$$$$
CHEMBL1994_lig899
                    3D
 Schrodinger Suite 2021-1.
 34 35  0  0  1  0            999 V2000
   18.5219   75.3075   23.5528 C   0  0  1  0  0  0
   17.3163   75.4620   22.6788 C   0  0  0  0  0  0
   20.6410   73.1517   20.0982 C   0  0  0  0  0  0
   21.0650   72.2620   19.1229 C   0  0  0  0  0  0
   20.1793   71.3429   18.5788 C   0  0  0  0  0  0
   18.8618   71.2574   19.0622 C   0  0  0  0  0  0
   18.4394   72.1954   20.0195 C   0  0  0  0  0  0
   19.3065   73.1839   20.5244 C   0  0  0  0  0  0
   18.8484   74.1717   21.4488 N   0  0  0  0  0  0
   19.5602   74.5680   22.6886 C   0  0  1  0  0  0
   17.5994   74.7221   21.3846 C   0  0  0  0  0  0
   20.9116   75.3173   22.4615 C   0  0  0  0  0  0
   20.6670   70.5137   17.4950 C   0  0  0  0  0  0
   21.0410   69.8620   16.6255 N   0  0  0  0  0  0
   16.7836   74.6552   20.4700 O   0  0  0  0  0  0
   18.8824   76.5703   24.0700 O   0  0  0  0  0  0
   20.9330   76.3024   21.2692 C   0  0  0  0  0  0
   17.8953   70.1631   18.5834 C   0  0  0  0  0  0
   17.9287   69.9712   17.2700 F   0  0  0  0  0  0
   18.2214   69.0185   19.1839 F   0  0  0  0  0  0
   16.6410   70.4605   18.8700 F   0  0  0  0  0  0
   18.2656   74.6572   24.3926 H   0  0  0  0  0  0
   17.1050   76.5052   22.4700 H   0  0  0  0  0  0
   16.4201   75.0620   23.1426 H   0  0  0  0  0  0
   21.3939   73.8157   20.4694 H   0  0  0  0  0  0
   22.0958   72.2841   18.7954 H   0  0  0  0  0  0
   17.4229   72.1522   20.3840 H   0  0  0  0  0  0
   19.8066   73.6440   23.2146 H   0  0  0  0  0  0
   21.1855   75.8619   23.3630 H   0  0  0  0  0  0
   21.7245   74.5993   22.3624 H   0  0  0  0  0  0
   18.2480   76.8501   24.7452 H   0  0  0  0  0  0
   21.8410   76.9053   21.2700 H   0  0  0  0  0  0
   20.8931   75.8091   20.3059 H   0  0  0  0  0  0
   20.0791   76.9809   21.2700 H   0  0  0  0  0  0
  1 10  1  0  0  0
  1  2  1  0  0  0
  1 16  1  0  0  0
  1 22  1  0  0  0
  2 11  1  0  0  0
  2 23  1  0  0  0
  2 24  1  0  0  0
  3  4  2  0  0  0
  3  8  1  0  0  0
  3 25  1  0  0  0
  4  5  1  0  0  0
  4 26  1  0  0  0
  5  6  2  0  0  0
  5 13  1  0  0  0
  6  7  1  0  0  0
  6 18  1  0  0  0
  7  8  2  0  0  0
  7 27  1  0  0  0
  8  9  1  0  0  0
  9 10  1  0  0  0
  9 11  1  0  0  0
 10 12  1  0  0  0
 10 28  1  0  0  0
 11 15  2  0  0  0
 12 17  1  0  0  0
 12 29  1  0  0  0
 12 30  1  0  0  0
 13 14  3  0  0  0
 16 31  1  0  0  0
 17 32  1  0  0  0
 17 33  1  0  0  0
 17 34  1  0  0  0
 18 19  1  0  0  0
 18 20  1  0  0  0
 18 21  1  0  0  0
M  END
> <s_m_entry_id>
9583

> <s_m_entry_name>
dock_pv.23

> <s_m_Source_Path>
/home/csk/Desktop/cluster/DUD-E-result/mcr

> <s_m_Source_File>
dock_pv.maegz

> <i_m_Source_File_Index>
23

> <chembl_id>
CHEMBL4088914

> <chembl_pref_name>
None

> <i_lp_mmshare_version>
53161

> <i_f3d_flags>
0

> <r_lp_tautomer_probability>
1

> <s_lp_Force_Field>
OPLS_2005

> <r_lp_Energy>
34.683287

> <b_lp_Chiralities_Consistent>
1

> <s_lp_Variant>
CHEMBL1994_lig899-1

> <s_i_glide_gridfile>
glide-grid_2aa2

> <i_i_glide_lignum>
1332

> <i_i_glide_rotatable_bonds>
4

> <r_i_docking_score>
-9.61062112251451

> <r_i_glide_ligand_efficiency>
-0.457648624881643

> <r_i_glide_ligand_efficiency_sa>
-1.26261785419218

> <r_i_glide_ligand_efficiency_ln>
-2.37620665245317

> <r_i_glide_gscore>
-9.61062112251451

> <r_i_glide_lipo>
-3.23292069438934

> <r_i_glide_hbond>
-0.23690224194304

> <r_i_glide_metal>
0

> <r_i_glide_rewards>
-4.075497075

> <r_i_glide_evdw>
-29.5592041015625

> <r_i_glide_ecoul>
-5.29063558578491

> <r_i_glide_erotb>
0.206254431763735

> <r_i_glide_esite>
0

> <r_i_glide_emodel>
-53.558281299531

> <r_i_glide_energy>
-34.8498396873474

> <r_i_glide_einternal>
4.48961162567139

> <i_i_glide_confnum>
2

> <i_i_glide_posenum>
356

> <r_i_glide_eff_state_penalty>
0

> <s_user_duplicate_titles>
CHEMBL1994_lig899

> <s_m_subgroup_title>
dock_pv

> <s_m_subgroupid>
dock_pv

> <b_m_subgroup_collapsed>
1

$$$$
CHEMBL1994_lig962 
                    3D
 Schrodinger Suite 2021-1.
 44 47  0  0  1  0            999 V2000
   17.1163   69.1005   17.0857 C   0  0  0  0  0  0
   16.5977   70.2472   17.6699 C   0  0  0  0  0  0
   17.4574   71.2431   18.0924 C   0  0  0  0  0  0
   18.4944   68.8849   17.0162 C   0  0  0  0  0  0
   19.3519   69.8630   17.5166 C   0  0  0  0  0  0
   18.8422   71.0742   17.9903 C   0  0  0  0  0  0
   19.7070   71.9165   18.6875 N   0  0  0  0  0  0
   20.6569   71.2142   19.5682 C   0  0  2  0  0  0
   21.4611   70.3250   18.5586 C   0  0  0  0  0  0
   20.7070   69.6028   17.5548 O   0  0  0  0  0  0
   19.5592   73.2685   18.6171 C   0  0  0  0  0  0
   19.6581   74.0110   19.9093 C   0  0  0  0  0  0
   19.0453   73.8604   17.6661 O   0  0  0  0  0  0
   20.8744   74.2216   20.5810 C   0  0  0  0  0  0
   20.8765   74.7984   21.8499 C   0  0  0  0  0  0
   18.4574   74.4757   20.4559 C   0  0  0  0  0  0
   18.4582   75.0322   21.7191 C   0  0  0  0  0  0
   19.6603   75.1627   22.4167 C   0  0  0  0  0  0
   19.6283   75.7236   23.6697 O   0  0  0  0  0  0
   18.4210   75.4131   24.3998 C   0  0  0  0  0  0
   17.1786   75.8619   23.6027 C   0  0  0  0  0  0
   17.2863   75.4867   22.3159 N   0  0  0  0  0  0
   16.2350   76.4778   24.0698 O   0  0  0  0  0  0
   20.0011   70.4191   20.7505 C   0  0  0  0  0  0
   16.2541   68.2629   16.5062 F   0  0  0  0  0  0
   18.5620   70.8536   21.1253 C   0  0  0  0  0  0
   18.2389   70.6623   22.4714 O   0  0  0  0  0  0
   15.5293   70.3882   17.7396 H   0  0  0  0  0  0
   17.0551   72.1305   18.5496 H   0  0  0  0  0  0
   18.8892   67.9709   16.6004 H   0  0  0  0  0  0
   21.3710   71.9003   20.0102 H   0  0  0  0  0  0
   22.1505   70.9614   18.0012 H   0  0  0  0  0  0
   22.1094   69.6285   19.0906 H   0  0  0  0  0  0
   21.8176   73.9277   20.1437 H   0  0  0  0  0  0
   21.7995   74.9484   22.3911 H   0  0  0  0  0  0
   17.5214   74.3573   19.9261 H   0  0  0  0  0  0
   18.3934   75.8612   25.3853 H   0  0  0  0  0  0
   18.3383   74.3308   24.5237 H   0  0  0  0  0  0
   16.4633   75.6455   21.7554 H   0  0  0  0  0  0
   19.9712   69.3533   20.5205 H   0  0  0  0  0  0
   20.6406   70.4968   21.6301 H   0  0  0  0  0  0
   18.4142   71.9168   20.9764 H   0  0  0  0  0  0
   17.8353   70.3346   20.5063 H   0  0  0  0  0  0
   17.4445   71.1668   22.6721 H   0  0  0  0  0  0
  1  2  2  0  0  0
  1  4  1  0  0  0
  1 25  1  0  0  0
  2  3  1  0  0  0
  2 28  1  0  0  0
  3  6  2  0  0  0
  3 29  1  0  0  0
  4  5  2  0  0  0
  4 30  1  0  0  0
  5  6  1  0  0  0
  5 10  1  0  0  0
  6  7  1  0  0  0
  7  8  1  0  0  0
  7 11  1  0  0  0
  8  9  1  0  0  0
  8 24  1  0  0  0
  8 31  1  0  0  0
  9 10  1  0  0  0
  9 32  1  0  0  0
  9 33  1  0  0  0
 11 12  1  0  0  0
 11 13  2  0  0  0
 12 14  2  0  0  0
 12 16  1  0  0  0
 14 15  1  0  0  0
 14 34  1  0  0  0
 15 18  2  0  0  0
 15 35  1  0  0  0
 16 17  2  0  0  0
 16 36  1  0  0  0
 17 18  1  0  0  0
 17 22  1  0  0  0
 18 19  1  0  0  0
 19 20  1  0  0  0
 20 21  1  0  0  0
 20 37  1  0  0  0
 20 38  1  0  0  0
 21 22  1  0  0  0
 21 23  2  0  0  0
 22 39  1  0  0  0
 24 26  1  0  0  0
 24 40  1  0  0  0
 24 41  1  0  0  0
 26 27  1  0  0  0
 26 42  1  0  0  0
 26 43  1  0  0  0
 27 44  1  0  0  0
M  END
> <s_m_entry_id>
9584

> <s_m_entry_name>
dock_pv.24

> <s_m_Source_Path>
/home/csk/Desktop/cluster/DUD-E-result/mcr

> <s_m_Source_File>
dock_pv.maegz

> <i_m_Source_File_Index>
24

> <chembl_id>
CHEMBL4459932

> <chembl_pref_name>
None

> <i_lp_mmshare_version>
53161

> <i_f3d_flags>
0

> <r_lp_tautomer_probability>
1

> <s_lp_Force_Field>
OPLS_2005

> <r_lp_Energy>
49.648071

> <b_lp_Chiralities_Consistent>
1

> <s_lp_Variant>
CHEMBL1994_lig962 -1

> <s_i_glide_gridfile>
glide-grid_2aa2

> <i_i_glide_lignum>
1404

> <i_i_glide_rotatable_bonds>
5

> <r_i_docking_score>
-9.59745644576478

> <r_i_glide_ligand_efficiency>
-0.35546134984314

> <r_i_glide_ligand_efficiency_sa>
-1.06638404835788

> <r_i_glide_ligand_efficiency_ln>
-2.23412963413846

> <r_i_glide_gscore>
-9.59745644576478

> <r_i_glide_lipo>
-4.40594653136512

> <r_i_glide_hbond>
-0.302377115430751

> <r_i_glide_metal>
0

> <r_i_glide_rewards>
-2.46370094659798

> <r_i_glide_evdw>
-38.5602760314941

> <r_i_glide_ecoul>
-7.00001764297485

> <r_i_glide_erotb>
0.557207408546868

> <r_i_glide_esite>
-0.0046228128968504

> <r_i_glide_emodel>
-79.0690374091996

> <r_i_glide_energy>
-45.560293674469

> <r_i_glide_einternal>
10.8856973648071

> <i_i_glide_confnum>
172

> <i_i_glide_posenum>
120

> <r_i_glide_eff_state_penalty>
0

> <s_user_duplicate_titles>
CHEMBL1994_lig962 

> <s_m_subgroup_title>
dock_pv

> <s_m_subgroupid>
dock_pv

> <b_m_subgroup_collapsed>
1

$$$$
CHEMBL1994_lig416
                    3D
 Schrodinger Suite 2021-1.
 38 41  0  0  1  0            999 V2000
   18.2487   73.6012   20.6009 C   0  0  0  0  0  0
   19.4062   73.1196   19.9593 C   0  0  0  0  0  0
   20.6590   73.6319   20.3617 C   0  0  0  0  0  0
   20.7706   74.4951   21.4512 C   0  0  0  0  0  0
   18.3556   74.4949   21.6609 C   0  0  0  0  0  0
   19.6170   74.8933   22.1105 C   0  0  0  0  0  0
   19.6969   75.6784   23.2441 O   0  0  0  0  0  0
   18.6199   76.6372   23.2910 C   0  0  0  0  0  0
   17.2345   75.9553   23.2697 C   0  0  0  0  0  0
   17.2350   74.9771   22.3440 N   0  0  0  0  0  0
   16.2739   76.2647   23.9683 O   0  0  0  0  0  0
   19.2873   71.9837   19.0076 C   0  0  0  0  0  0
   20.5088   71.0068   18.8940 C   0  0  2  0  0  0
   20.6366   70.2617   17.2139 S   0  0  0  0  0  0
   18.1662   71.7388   18.4187 N   0  0  0  0  0  0
   18.0173   70.5182   17.8037 N   0  0  0  0  0  0
   18.9577   69.7568   17.1564 C   0  0  0  0  0  0
   18.4321   68.6714   16.6425 N   0  0  0  0  0  0
   17.0766   68.6901   16.9730 N   0  0  0  0  0  0
   16.8672   69.7823   17.6692 C   0  0  0  0  0  0
   20.4896   69.8819   19.9644 C   0  0  0  0  0  0
   20.0835   70.2489   21.4045 C   0  0  0  0  0  0
   18.5799   70.1295   21.6702 C   0  0  0  0  0  0
   17.2680   73.2424   20.3222 H   0  0  0  0  0  0
   21.5837   73.3367   19.8944 H   0  0  0  0  0  0
   21.7391   74.8299   21.7943 H   0  0  0  0  0  0
   18.7175   77.3843   24.0701 H   0  0  0  0  0  0
   18.6406   77.1372   22.3291 H   0  0  0  0  0  0
   16.3442   74.5113   22.2364 H   0  0  0  0  0  0
   21.4496   71.5418   18.9763 H   0  0  0  0  0  0
   15.9375   70.1330   18.0939 H   0  0  0  0  0  0
   19.8407   69.0627   19.6559 H   0  0  0  0  0  0
   21.4931   69.4617   19.9917 H   0  0  0  0  0  0
   20.6260   69.5813   22.0700 H   0  0  0  0  0  0
   20.4001   71.2497   21.6680 H   0  0  0  0  0  0
   18.3480   70.2671   22.7253 H   0  0  0  0  0  0
   17.9834   70.8532   21.1204 H   0  0  0  0  0  0
   18.2414   69.1407   21.3701 H   0  0  0  0  0  0
  1  2  2  0  0  0
  1  5  1  0  0  0
  1 24  1  0  0  0
  2  3  1  0  0  0
  2 12  1  0  0  0
  3  4  2  0  0  0
  3 25  1  0  0  0
  4  6  1  0  0  0
  4 26  1  0  0  0
  5 10  1  0  0  0
  5  6  2  0  0  0
  6  7  1  0  0  0
  7  8  1  0  0  0
  8  9  1  0  0  0
  8 27  1  0  0  0
  8 28  1  0  0  0
  9 11  2  0  0  0
  9 10  1  0  0  0
 10 29  1  0  0  0
 12 13  1  0  0  0
 12 15  2  0  0  0
 13 14  1  0  0  0
 13 21  1  0  0  0
 13 30  1  0  0  0
 14 17  1  0  0  0
 15 16  1  0  0  0
 16 17  1  0  0  0
 16 20  1  0  0  0
 17 18  2  0  0  0
 18 19  1  0  0  0
 19 20  2  0  0  0
 20 31  1  0  0  0
 21 22  1  0  0  0
 21 32  1  0  0  0
 21 33  1  0  0  0
 22 23  1  0  0  0
 22 34  1  0  0  0
 22 35  1  0  0  0
 23 36  1  0  0  0
 23 37  1  0  0  0
 23 38  1  0  0  0
M  END
> <s_m_entry_id>
9585

> <s_m_entry_name>
dock_pv.25

> <s_m_Source_Path>
/home/csk/Desktop/cluster/DUD-E-result/mcr

> <s_m_Source_File>
dock_pv.maegz

> <i_m_Source_File_Index>
25

> <chembl_id>
CHEMBL1928870

> <chembl_pref_name>
None

> <i_lp_mmshare_version>
53161

> <i_f3d_flags>
0

> <r_lp_tautomer_probability>
1

> <s_lp_Force_Field>
OPLS_2005

> <r_lp_Energy>
29.700288

> <b_lp_Chiralities_Consistent>
1

> <s_lp_Variant>
CHEMBL1994_lig416-1

> <s_i_glide_gridfile>
glide-grid_2aa2

> <i_i_glide_lignum>
688

> <i_i_glide_rotatable_bonds>
3

> <r_i_docking_score>
-9.5536993959426

> <r_i_glide_ligand_efficiency>
-0.4153782346062

> <r_i_glide_ligand_efficiency_sa>
-1.18128044431098

> <r_i_glide_ligand_efficiency_ln>
-2.31017114209555

> <r_i_glide_gscore>
-9.5536993959426

> <r_i_glide_lipo>
-2.96297983342032

> <r_i_glide_hbond>
-0.370548276548525

> <r_i_glide_metal>
0

> <r_i_glide_rewards>
-3.64220305248583

> <r_i_glide_evdw>
-43.515796661377

> <r_i_glide_ecoul>
-4.99096965789795

> <r_i_glide_erotb>
0.346467048265611

> <r_i_glide_esite>
0

> <r_i_glide_emodel>
-56.1926023482275

> <r_i_glide_energy>
-48.5067663192749

> <r_i_glide_einternal>
3.99132347106934

> <i_i_glide_confnum>
7

> <i_i_glide_posenum>
105

> <r_i_glide_eff_state_penalty>
0

> <s_user_duplicate_titles>
CHEMBL1994_lig416

> <s_m_subgroup_title>
dock_pv

> <s_m_subgroupid>
dock_pv

> <b_m_subgroup_collapsed>
1

$$$$
CHEMBL1994_lig1125
                    3D
 Schrodinger Suite 2021-1.
 47 50  0  0  1  0            999 V2000
   16.2410   76.0677   24.7159 O   0  0  0  0  0  0
   17.1383   76.1139   23.5673 S   0  0  0  0  0  0
   17.8410   77.3512   23.2700 O   0  0  0  0  0  0
   20.0953   72.6350   17.6700 C   0  0  0  0  0  0
   19.8329   71.5250   18.7277 C   0  0  1  0  0  0
   21.1547   70.8167   19.1502 C   0  0  0  0  0  0
   21.4371   74.8052   21.7635 C   0  0  0  0  0  0
   20.5252   75.1241   22.7654 C   0  0  0  0  0  0
   19.2635   74.5369   22.8306 C   0  0  0  0  0  0
   21.1243   73.8620   20.7891 C   0  0  0  0  0  0
   19.8636   73.2463   20.7933 C   0  0  0  0  0  0
   18.9568   73.6106   21.8325 C   0  0  0  0  0  0
   17.8035   72.9107   21.6098 N   0  0  0  0  0  0
   17.9030   72.2472   20.4256 C   0  0  0  0  0  0
   19.2112   72.2687   19.9424 C   0  0  0  0  0  0
   18.9365   70.3963   18.1424 C   0  0  0  0  0  0
   17.9783   69.7217   18.9099 C   0  0  0  0  0  0
   17.0180   68.9260   18.3034 C   0  0  0  0  0  0
   17.1222   68.6620   16.9500 C   0  0  0  0  0  0
   18.2410   69.0611   16.2407 C   0  0  0  0  0  0
   19.0992   69.9796   16.8153 C   0  0  0  0  0  0
   18.3585   74.8723   23.8387 N   0  0  0  0  0  0
   16.2409   75.5636   21.9889 C   0  0  0  0  0  0
   21.9495   70.0142   18.1366 C   0  0  0  0  0  0
   22.5421   71.2644   18.7007 C   0  0  0  0  0  0
   19.1674   73.1018   17.3413 H   0  0  0  0  0  0
   20.7070   73.4426   18.0700 H   0  0  0  0  0  0
   20.6282   72.2639   16.7946 H   0  0  0  0  0  0
   21.0410   70.3426   20.1261 H   0  0  0  0  0  0
   22.4023   75.2905   21.7452 H   0  0  0  0  0  0
   20.8034   75.8592   23.5070 H   0  0  0  0  0  0
   21.8410   73.6105   20.0296 H   0  0  0  0  0  0
   16.9574   72.9387   22.1693 H   0  0  0  0  0  0
   17.0166   71.7457   20.0655 H   0  0  0  0  0  0
   17.9276   69.8455   19.9777 H   0  0  0  0  0  0
   16.2079   68.4940   18.8700 H   0  0  0  0  0  0
   16.3739   68.0461   16.4803 H   0  0  0  0  0  0
   18.3676   68.7753   15.2074 H   0  0  0  0  0  0
   19.8635   70.3864   16.1797 H   0  0  0  0  0  0
   18.0679   74.1282   24.4555 H   0  0  0  0  0  0
   15.4416   76.2620   21.7730 H   0  0  0  0  0  0
   16.9546   75.5801   21.1668 H   0  0  0  0  0  0
   15.8053   74.5763   22.0700 H   0  0  0  0  0  0
   22.3430   69.0620   18.4700 H   0  0  0  0  0  0
   21.7374   70.0182   17.0718 H   0  0  0  0  0  0
   22.6540   72.1428   18.0700 H   0  0  0  0  0  0
   23.4408   71.0620   19.2700 H   0  0  0  0  0  0
  1  2  2  0  0  0
  2  3  2  0  0  0
  2 22  1  0  0  0
  2 23  1  0  0  0
  4  5  1  0  0  0
  4 26  1  0  0  0
  4 27  1  0  0  0
  4 28  1  0  0  0
  5  6  1  0  0  0
  5 15  1  0  0  0
  5 16  1  0  0  0
  6 24  1  0  0  0
  6 25  1  0  0  0
  6 29  1  0  0  0
  7  8  2  0  0  0
  7 10  1  0  0  0
  7 30  1  0  0  0
  8  9  1  0  0  0
  8 31  1  0  0  0
  9 12  2  0  0  0
  9 22  1  0  0  0
 10 11  2  0  0  0
 10 32  1  0  0  0
 11 12  1  0  0  0
 11 15  1  0  0  0
 12 13  1  0  0  0
 13 14  1  0  0  0
 13 33  1  0  0  0
 14 15  2  0  0  0
 14 34  1  0  0  0
 16 17  2  0  0  0
 16 21  1  0  0  0
 17 18  1  0  0  0
 17 35  1  0  0  0
 18 19  2  0  0  0
 18 36  1  0  0  0
 19 20  1  0  0  0
 19 37  1  0  0  0
 20 21  2  0  0  0
 20 38  1  0  0  0
 21 39  1  0  0  0
 22 40  1  0  0  0
 23 41  1  0  0  0
 23 42  1  0  0  0
 23 43  1  0  0  0
 24 25  1  0  0  0
 24 44  1  0  0  0
 24 45  1  0  0  0
 25 46  1  0  0  0
 25 47  1  0  0  0
M  END
> <s_m_entry_id>
9586

> <s_m_entry_name>
dock_pv.26

> <s_m_Source_Path>
/home/csk/Desktop/cluster/DUD-E-result/mcr

> <s_m_Source_File>
dock_pv.maegz

> <i_m_Source_File_Index>
26

> <chembl_id>
CHEMBL4069209

> <chembl_pref_name>
None

> <i_lp_mmshare_version>
53161

> <i_f3d_flags>
0

> <r_lp_tautomer_probability>
1

> <s_lp_Force_Field>
OPLS_2005

> <r_lp_Energy>
19.058756

> <b_lp_Chiralities_Consistent>
1

> <s_lp_Variant>
CHEMBL1994_lig1125-2

> <s_i_glide_gridfile>
glide-grid_2aa2

> <i_i_glide_lignum>
1612

> <i_i_glide_rotatable_bonds>
5

> <r_i_docking_score>
-9.52304171756558

> <r_i_glide_ligand_efficiency>
-0.380921668702623

> <r_i_glide_ligand_efficiency_sa>
-1.11382171496103

> <r_i_glide_ligand_efficiency_ln>
-2.25724626959436

> <r_i_glide_gscore>
-9.52304171756558

> <r_i_glide_lipo>
-4.89934520239989

> <r_i_glide_hbond>
-0.32

> <r_i_glide_metal>
0

> <r_i_glide_rewards>
-2.34227127272727

> <r_i_glide_evdw>
-29.3375759124756

> <r_i_glide_ecoul>
-6.99762010574341

> <r_i_glide_erotb>
0.608342522500451

> <r_i_glide_esite>
-0.0532459534535813

> <r_i_glide_emodel>
-39.9261553430973

> <r_i_glide_energy>
-36.335196018219

> <r_i_glide_einternal>
13.5671844482422

> <i_i_glide_confnum>
12

> <i_i_glide_posenum>
178

> <r_i_glide_eff_state_penalty>
0

> <s_user_duplicate_titles>
CHEMBL1994_lig1125

> <s_m_subgroup_title>
dock_pv

> <s_m_subgroupid>
dock_pv

> <b_m_subgroup_collapsed>
1

$$$$
CHEMBL1994_lig1113
                    3D
 Schrodinger Suite 2021-1.
 34 36  0  0  1  0            999 V2000
   21.3000   74.1279   20.7566 C   0  0  0  0  0  0
   20.7565   74.5537   21.9616 C   0  0  0  0  0  0
   19.5843   73.9963   22.4602 C   0  0  0  0  0  0
   20.6849   73.1350   19.9836 C   0  0  0  0  0  0
   19.4953   72.5352   20.4465 C   0  0  0  0  0  0
   18.9840   72.9926   21.7008 C   0  0  0  0  0  0
   17.8408   72.2849   21.9607 N   0  0  0  0  0  0
   17.5650   71.4615   20.9163 C   0  0  0  0  0  0
   18.5763   71.5099   19.9686 C   0  0  0  0  0  0
   18.6217   70.6213   18.7587 C   0  0  0  0  0  0
   17.4404   69.9830   18.3522 C   0  0  0  0  0  0
   17.4528   69.0622   17.3123 C   0  0  0  0  0  0
   18.6421   68.7935   16.6479 C   0  0  0  0  0  0
   19.8117   69.4672   16.9901 C   0  0  0  0  0  0
   19.8034   70.3763   18.0491 C   0  0  0  0  0  0
   19.0402   74.4113   23.6700 N   0  0  0  0  0  0
   17.8633   75.7092   23.6923 S   0  0  0  0  0  0
   16.8286   75.4620   22.1285 C   0  0  0  0  0  0
   18.6265   76.9469   23.5595 O   0  0  0  0  0  0
   17.0348   75.4624   24.8699 O   0  0  0  0  0  0
   18.6532   67.8633   15.6696 F   0  0  0  0  0  0
   22.2220   74.5888   20.4407 H   0  0  0  0  0  0
   21.2618   75.3263   22.5248 H   0  0  0  0  0  0
   21.1285   72.8445   19.0443 H   0  0  0  0  0  0
   17.2172   72.3929   22.7552 H   0  0  0  0  0  0
   16.6595   70.8770   20.9601 H   0  0  0  0  0  0
   16.5050   70.1632   18.8601 H   0  0  0  0  0  0
   16.5477   68.5412   17.0385 H   0  0  0  0  0  0
   20.7289   69.2552   16.4617 H   0  0  0  0  0  0
   20.7300   70.8434   18.3407 H   0  0  0  0  0  0
   18.7894   73.6614   24.2965 H   0  0  0  0  0  0
   15.9932   76.1569   22.1636 H   0  0  0  0  0  0
   16.4371   74.4524   22.0699 H   0  0  0  0  0  0
   17.4536   75.6683   21.2611 H   0  0  0  0  0  0
  1  2  2  0  0  0
  1  4  1  0  0  0
  1 22  1  0  0  0
  2  3  1  0  0  0
  2 23  1  0  0  0
  3  6  2  0  0  0
  3 16  1  0  0  0
  4  5  2  0  0  0
  4 24  1  0  0  0
  5  6  1  0  0  0
  5  9  1  0  0  0
  6  7  1  0  0  0
  7  8  1  0  0  0
  7 25  1  0  0  0
  8  9  2  0  0  0
  8 26  1  0  0  0
  9 10  1  0  0  0
 10 11  2  0  0  0
 10 15  1  0  0  0
 11 12  1  0  0  0
 11 27  1  0  0  0
 12 13  2  0  0  0
 12 28  1  0  0  0
 13 14  1  0  0  0
 13 21  1  0  0  0
 14 15  2  0  0  0
 14 29  1  0  0  0
 15 30  1  0  0  0
 16 17  1  0  0  0
 16 31  1  0  0  0
 17 18  1  0  0  0
 17 19  2  0  0  0
 17 20  2  0  0  0
 18 32  1  0  0  0
 18 33  1  0  0  0
 18 34  1  0  0  0
M  END
> <s_m_entry_id>
9587

> <s_m_entry_name>
dock_pv.27

> <s_m_Source_Path>
/home/csk/Desktop/cluster/DUD-E-result/mcr

> <s_m_Source_File>
dock_pv.maegz

> <i_m_Source_File_Index>
27

> <chembl_id>
CHEMBL3605934

> <chembl_pref_name>
None

> <i_lp_mmshare_version>
53161

> <i_f3d_flags>
0

> <r_lp_tautomer_probability>
1

> <s_lp_Force_Field>
OPLS_2005

> <r_lp_Energy>
5.17757

> <b_lp_Chiralities_Consistent>
1

> <s_lp_Variant>
CHEMBL1994_lig1113-1

> <s_i_glide_gridfile>
glide-grid_2aa2

> <i_i_glide_lignum>
1599

> <i_i_glide_rotatable_bonds>
3

> <r_i_docking_score>
-9.50550348922326

> <r_i_glide_ligand_efficiency>
-0.452643023296346

> <r_i_glide_ligand_efficiency_sa>
-1.24880777897519

> <r_i_glide_ligand_efficiency_ln>
-2.35021653003209

> <r_i_glide_gscore>
-9.50550348922326

> <r_i_glide_lipo>
-4.05984702126293

> <r_i_glide_hbond>
-0.32

> <r_i_glide_metal>
0

> <r_i_glide_rewards>
-2.49648666982247

> <r_i_glide_evdw>
-39.3996200561523

> <r_i_glide_ecoul>
-6.55736207962036

> <r_i_glide_erotb>
0.398189248196385

> <r_i_glide_esite>
-0.0737737315835742

> <r_i_glide_emodel>
-64.1681636500487

> <r_i_glide_energy>
-45.9569821357727

> <r_i_glide_einternal>
7.97297382354736

> <i_i_glide_confnum>
2

> <i_i_glide_posenum>
240

> <r_i_glide_eff_state_penalty>
0

> <s_user_duplicate_titles>
CHEMBL1994_lig1113

> <s_m_subgroup_title>
dock_pv

> <s_m_subgroupid>
dock_pv

> <b_m_subgroup_collapsed>
1

$$$$
CHEMBL1994_lig64
                    3D
 Schrodinger Suite 2021-1.
 42 45  0  0  1  0            999 V2000
   19.4925   73.2238   20.2523 C   0  0  0  0  0  0
   17.9848   68.5605   16.4214 N   0  3  0  0  0  0
   18.9049   74.2295   21.0811 C   0  0  0  0  0  0
   19.5798   75.4311   21.6704 C   0  0  0  0  0  0
   18.7012   72.1162   19.8805 C   0  0  0  0  0  0
   19.2060   71.1629   18.8688 C   0  0  0  0  0  0
   17.5455   74.0868   21.4369 C   0  0  0  0  0  0
   16.8717   75.0620   22.1996 N   0  0  0  0  0  0
   18.9798   76.0153   22.7352 C   0  0  0  0  0  0
   18.3665   70.3052   18.1511 C   0  0  0  0  0  0
   18.8756   69.4729   17.1554 C   0  0  0  0  0  0
   17.6216   75.6726   23.2950 C   0  0  0  0  0  0
   21.4471   71.9596   19.2700 O   0  0  0  0  0  0
   20.9430   73.2160   19.7312 C   0  0  0  0  0  0
   20.5665   71.1787   18.5718 C   0  0  0  0  0  0
   17.4334   71.9353   20.4170 C   0  0  0  0  0  0
   16.7711   68.6620   16.5727 O   0  5  0  0  0  0
   18.5003   67.7440   15.6700 O   0  0  0  0  0  0
   16.8518   72.9290   21.1642 C   0  0  0  0  0  0
   20.2409   69.5294   16.8624 C   0  0  0  0  0  0
   21.0924   70.3669   17.5755 C   0  0  0  0  0  0
   20.9551   75.8970   21.2081 C   0  0  0  0  0  0
   17.8412   74.6848   24.4597 C   0  0  0  0  0  0
   16.8515   76.9405   23.6883 C   0  0  0  0  0  0
   15.9314   74.8348   22.4919 H   0  0  0  0  0  0
   19.4410   76.7414   23.3442 H   0  0  0  0  0  0
   17.3042   70.2888   18.3418 H   0  0  0  0  0  0
   21.0128   73.8621   18.8625 H   0  0  0  0  0  0
   21.6485   73.5496   20.4881 H   0  0  0  0  0  0
   16.8367   71.0616   20.2111 H   0  0  0  0  0  0
   15.8410   72.7989   21.5182 H   0  0  0  0  0  0
   20.6423   68.9204   16.0700 H   0  0  0  0  0  0
   22.1488   70.3969   17.3543 H   0  0  0  0  0  0
   21.1224   75.6971   20.1566 H   0  0  0  0  0  0
   21.7483   75.4328   21.7953 H   0  0  0  0  0  0
   21.0572   76.9793   21.2700 H   0  0  0  0  0  0
   18.5857   75.0614   25.1610 H   0  0  0  0  0  0
   16.9345   74.5698   25.0439 H   0  0  0  0  0  0
   18.1796   73.7007   24.1316 H   0  0  0  0  0  0
   17.3625   77.4870   24.4700 H   0  0  0  0  0  0
   16.7427   77.6411   22.8717 H   0  0  0  0  0  0
   15.8565   76.6952   24.0605 H   0  0  0  0  0  0
  1  3  1  0  0  0
  1  5  2  0  0  0
  1 14  1  0  0  0
  2 11  1  0  0  0
  2 17  1  0  0  0
  2 18  2  0  0  0
  3  4  1  0  0  0
  3  7  2  0  0  0
  4  9  2  0  0  0
  4 22  1  0  0  0
  5  6  1  0  0  0
  5 16  1  0  0  0
  6 10  2  0  0  0
  6 15  1  0  0  0
  7  8  1  0  0  0
  7 19  1  0  0  0
  8 12  1  0  0  0
  8 25  1  0  0  0
  9 12  1  0  0  0
  9 26  1  0  0  0
 10 11  1  0  0  0
 10 27  1  0  0  0
 11 20  2  0  0  0
 12 23  1  0  0  0
 12 24  1  0  0  0
 13 14  1  0  0  0
 13 15  1  0  0  0
 14 28  1  0  0  0
 14 29  1  0  0  0
 15 21  2  0  0  0
 16 19  2  0  0  0
 16 30  1  0  0  0
 19 31  1  0  0  0
 20 21  1  0  0  0
 20 32  1  0  0  0
 21 33  1  0  0  0
 22 34  1  0  0  0
 22 35  1  0  0  0
 22 36  1  0  0  0
 23 37  1  0  0  0
 23 38  1  0  0  0
 23 39  1  0  0  0
 24 40  1  0  0  0
 24 41  1  0  0  0
 24 42  1  0  0  0
M  CHG  2   2   1  17  -1
M  END
> <s_m_entry_id>
9588

> <s_m_entry_name>
dock_pv.28

> <s_m_Source_Path>
/home/csk/Desktop/cluster/DUD-E-result/mcr

> <s_m_Source_File>
dock_pv.maegz

> <i_m_Source_File_Index>
28

> <chembl_id>
CHEMBL64294

> <chembl_pref_name>
None

> <i_lp_mmshare_version>
53161

> <i_f3d_flags>
0

> <r_lp_tautomer_probability>
1

> <s_lp_Force_Field>
OPLS_2005

> <r_lp_Energy>
32.257076

> <b_lp_Chiralities_Consistent>
1

> <s_lp_Variant>
CHEMBL1994_lig64-1

> <s_i_glide_gridfile>
glide-grid_2aa2

> <i_i_glide_lignum>
84

> <i_i_glide_rotatable_bonds>
1

> <r_i_docking_score>
-9.31378017647173

> <r_i_glide_ligand_efficiency>
-0.388074174019655

> <r_i_glide_ligand_efficiency_sa>
-1.11939962026866

> <r_i_glide_ligand_efficiency_ln>
-2.22921497775343

> <r_i_glide_gscore>
-9.31378017647173

> <r_i_glide_lipo>
-4.9099486323722

> <r_i_glide_hbond>
-0.0893370079434599

> <r_i_glide_metal>
0

> <r_i_glide_rewards>
-2.10486826449079

> <r_i_glide_evdw>
-31.7899627685547

> <r_i_glide_ecoul>
-3.61146950721741

> <r_i_glide_erotb>
0

> <r_i_glide_esite>
-0.0784077071549235

> <r_i_glide_emodel>
-44.8121752747501

> <r_i_glide_energy>
-35.4014322757721

> <r_i_glide_einternal>
0.339353501796722

> <i_i_glide_confnum>
1

> <i_i_glide_posenum>
170

> <r_i_glide_eff_state_penalty>
0

> <s_user_duplicate_titles>
CHEMBL1994_lig64

> <s_m_subgroup_title>
dock_pv

> <s_m_subgroupid>
dock_pv

> <b_m_subgroup_collapsed>
1

$$$$
CHEMBL1994_lig1074
                    3D
 Schrodinger Suite 2021-1.
 45 48  0  0  1  0            999 V2000
   19.2220   68.9427   16.1835 C   0  0  0  0  0  0
   20.4367   69.5254   16.5456 C   0  0  0  0  0  0
   20.5767   70.2484   17.7263 C   0  0  0  0  0  0
   19.5074   70.4020   18.6096 C   0  0  0  0  0  0
   19.5564   71.2226   19.8359 C   0  0  0  0  0  0
   19.0633   70.7196   21.0396 C   0  0  0  0  0  0
   18.6936   71.5769   22.0677 C   0  0  0  0  0  0
   19.8585   72.5755   19.7428 C   0  0  0  0  0  0
   19.4906   73.4546   20.7625 C   0  0  0  0  0  0
   18.8491   72.9487   21.9051 C   0  0  0  0  0  0
   18.2411   73.7981   22.8463 N   0  0  0  0  0  0
   18.2365   75.2682   22.7326 C   0  0  0  0  0  0
   18.4733   75.6858   21.2601 C   0  0  1  0  0  0
   19.6476   74.9418   20.5716 C   0  0  1  0  0  0
   17.3059   75.4619   20.4693 O   0  0  0  0  0  0
   21.0934   75.4102   20.8707 C   0  0  0  0  0  0
   18.1195   69.1153   17.0115 C   0  0  0  0  0  0
   18.2839   69.8436   18.2167 C   0  0  0  0  0  0
   17.0426   69.8862   18.8114 N   0  0  0  0  0  0
   16.1366   69.1865   18.0697 C   0  0  0  0  0  0
   16.7436   68.7467   16.9219 C   0  0  0  0  0  0
   19.3535   75.7442   23.6358 C   0  0  0  0  0  0
   16.8884   75.8227   23.2683 C   0  0  0  0  0  0
   20.3945   73.0635   18.5966 F   0  0  0  0  0  0
   18.8438   69.3983   21.1625 F   0  0  0  0  0  0
   19.1041   68.3881   15.2709 H   0  0  0  0  0  0
   21.2942   69.4327   15.8964 H   0  0  0  0  0  0
   21.5315   70.6987   17.9597 H   0  0  0  0  0  0
   18.2173   71.1785   22.9509 H   0  0  0  0  0  0
   17.7038   73.4325   23.6227 H   0  0  0  0  0  0
   18.6481   76.7617   21.2220 H   0  0  0  0  0  0
   19.4778   75.0876   19.5090 H   0  0  0  0  0  0
   17.4487   75.8568   19.6054 H   0  0  0  0  0  0
   21.7690   75.1482   20.0613 H   0  0  0  0  0  0
   21.5239   74.9233   21.7454 H   0  0  0  0  0  0
   21.1517   76.4911   21.0027 H   0  0  0  0  0  0
   16.7949   70.3369   19.6810 H   0  0  0  0  0  0
   15.1150   69.1007   18.4140 H   0  0  0  0  0  0
   16.2416   68.2375   16.1203 H   0  0  0  0  0  0
   19.1656   76.7519   24.0037 H   0  0  0  0  0  0
   19.4018   75.0617   24.4702 H   0  0  0  0  0  0
   20.3474   75.7493   23.2190 H   0  0  0  0  0  0
   16.8613   76.9127   23.2419 H   0  0  0  0  0  0
   16.0314   75.4602   22.6994 H   0  0  0  0  0  0
   16.7282   75.5288   24.3063 H   0  0  0  0  0  0
  1 17  1  0  0  0
  1  2  2  0  0  0
  1 26  1  0  0  0
  2  3  1  0  0  0
  2 27  1  0  0  0
  3  4  2  0  0  0
  3 28  1  0  0  0
  4 18  1  0  0  0
  4  5  1  0  0  0
  5  6  2  0  0  0
  5  8  1  0  0  0
  6  7  1  0  0  0
  6 25  1  0  0  0
  7 10  2  0  0  0
  7 29  1  0  0  0
  8  9  2  0  0  0
  8 24  1  0  0  0
  9 14  1  0  0  0
  9 10  1  0  0  0
 10 11  1  0  0  0
 11 12  1  0  0  0
 11 30  1  0  0  0
 12 13  1  0  0  0
 12 22  1  0  0  0
 12 23  1  0  0  0
 13 14  1  0  0  0
 13 15  1  0  0  0
 13 31  1  0  0  0
 14 16  1  0  0  0
 14 32  1  0  0  0
 15 33  1  0  0  0
 16 34  1  0  0  0
 16 35  1  0  0  0
 16 36  1  0  0  0
 17 18  2  0  0  0
 17 21  1  0  0  0
 18 19  1  0  0  0
 19 20  1  0  0  0
 19 37  1  0  0  0
 20 21  2  0  0  0
 20 38  1  0  0  0
 21 39  1  0  0  0
 22 40  1  0  0  0
 22 41  1  0  0  0
 22 42  1  0  0  0
 23 43  1  0  0  0
 23 44  1  0  0  0
 23 45  1  0  0  0
M  END
> <s_m_entry_id>
9589

> <s_m_entry_name>
dock_pv.29

> <s_m_Source_Path>
/home/csk/Desktop/cluster/DUD-E-result/mcr

> <s_m_Source_File>
dock_pv.maegz

> <i_m_Source_File_Index>
29

> <chembl_id>
CHEMBL1682441

> <chembl_pref_name>
None

> <i_lp_mmshare_version>
53161

> <i_f3d_flags>
0

> <r_lp_tautomer_probability>
1

> <s_lp_Force_Field>
OPLS_2005

> <r_lp_Energy>
26.796901

> <b_lp_Chiralities_Consistent>
1

> <s_lp_Variant>
CHEMBL1994_lig1074-1

> <s_i_glide_gridfile>
glide-grid_2aa2

> <i_i_glide_lignum>
1558

> <i_i_glide_rotatable_bonds>
2

> <r_i_docking_score>
-9.30589512928492

> <r_i_glide_ligand_efficiency>
-0.372235805171397

> <r_i_glide_ligand_efficiency_sa>
-1.08842409595128

> <r_i_glide_ligand_efficiency_ln>
-2.20577602081371

> <r_i_glide_gscore>
-9.30589512928492

> <r_i_glide_lipo>
-5.16632888301498

> <r_i_glide_hbond>
-0.201446923423562

> <r_i_glide_metal>
0

> <r_i_glide_rewards>
-2.20659674347576

> <r_i_glide_evdw>
-32.2807235717773

> <r_i_glide_ecoul>
-1.625657081604

> <r_i_glide_erotb>
0.161754659042038

> <r_i_glide_esite>
-0.0353924975831886

> <r_i_glide_emodel>
-49.0884499780001

> <r_i_glide_energy>
-33.9063806533813

> <r_i_glide_einternal>
0.723952293395996

> <i_i_glide_confnum>
3

> <i_i_glide_posenum>
344

> <r_i_glide_eff_state_penalty>
0

> <s_user_duplicate_titles>
CHEMBL1994_lig1074

> <s_m_subgroup_title>
dock_pv

> <s_m_subgroupid>
dock_pv

> <b_m_subgroup_collapsed>
1

$$$$
CHEMBL1994_lig42
                    3D
 Schrodinger Suite 2021-1.
 36 38  0  0  1  0            999 V2000
   19.8365   70.6980   18.4741 C   0  0  0  0  0  0
   19.3637   71.6769   19.4967 C   0  0  0  0  0  0
   17.9859   71.6891   19.7603 C   0  0  0  0  0  0
   18.2475   73.5515   21.2630 C   0  0  0  0  0  0
   21.3134   70.6628   18.0616 C   0  0  0  0  0  0
   19.6341   73.5345   21.0718 C   0  0  0  0  0  0
   17.6524   74.4862   22.1287 N   0  0  0  0  0  0
   20.4618   74.5056   21.8152 C   0  0  0  0  0  0
   17.0960   70.8321   19.1305 O   0  0  0  0  0  0
   17.5007   69.9316   18.1698 C   0  0  0  0  0  0
   18.9307   69.8989   17.8609 C   0  0  0  0  0  0
   17.4411   72.5941   20.6631 C   0  0  0  0  0  0
   20.1814   72.5819   20.1984 C   0  0  0  0  0  0
   19.9084   75.2088   22.8193 C   0  0  0  0  0  0
   18.4121   75.2289   23.1514 C   0  0  0  0  0  0
   16.6220   69.2448   17.6552 O   0  0  0  0  0  0
   21.4396   70.2109   16.8176 F   0  0  0  0  0  0
   22.0017   69.8621   18.8699 F   0  0  0  0  0  0
   21.8458   71.8763   18.0704 F   0  0  0  0  0  0
   21.9350   74.6402   21.4767 C   0  0  0  0  0  0
   18.1273   74.5696   24.5085 C   0  0  0  0  0  0
   17.9536   76.6791   23.0483 C   0  0  0  0  0  0
   16.6687   74.4037   22.3488 H   0  0  0  0  0  0
   19.2637   69.2032   17.1054 H   0  0  0  0  0  0
   16.3804   72.5816   20.8696 H   0  0  0  0  0  0
   21.2517   72.5563   20.0868 H   0  0  0  0  0  0
   20.5524   75.8586   23.3938 H   0  0  0  0  0  0
   22.4844   73.7218   21.6699 H   0  0  0  0  0  0
   22.0517   74.9134   20.4301 H   0  0  0  0  0  0
   22.3881   75.4398   22.0585 H   0  0  0  0  0  0
   18.6410   75.0628   25.3281 H   0  0  0  0  0  0
   17.0698   74.6603   24.7586 H   0  0  0  0  0  0
   18.3939   73.5117   24.5133 H   0  0  0  0  0  0
   18.4277   77.3062   23.8041 H   0  0  0  0  0  0
   18.2412   77.0618   22.0699 H   0  0  0  0  0  0
   16.8737   76.7818   23.1691 H   0  0  0  0  0  0
  1  2  1  0  0  0
  1  5  1  0  0  0
  1 11  2  0  0  0
  2  3  2  0  0  0
  2 13  1  0  0  0
  3 12  1  0  0  0
  3  9  1  0  0  0
  4  6  1  0  0  0
  4  7  1  0  0  0
  4 12  2  0  0  0
  5 17  1  0  0  0
  5 18  1  0  0  0
  5 19  1  0  0  0
  6 13  2  0  0  0
  6  8  1  0  0  0
  7 15  1  0  0  0
  7 23  1  0  0  0
  8 14  2  0  0  0
  8 20  1  0  0  0
  9 10  1  0  0  0
 10 11  1  0  0  0
 10 16  2  0  0  0
 11 24  1  0  0  0
 12 25  1  0  0  0
 13 26  1  0  0  0
 14 15  1  0  0  0
 14 27  1  0  0  0
 15 21  1  0  0  0
 15 22  1  0  0  0
 20 28  1  0  0  0
 20 29  1  0  0  0
 20 30  1  0  0  0
 21 31  1  0  0  0
 21 32  1  0  0  0
 21 33  1  0  0  0
 22 34  1  0  0  0
 22 35  1  0  0  0
 22 36  1  0  0  0
M  END
> <s_m_entry_id>
9590

> <s_m_entry_name>
dock_pv.30

> <s_m_Source_Path>
/home/csk/Desktop/cluster/DUD-E-result/mcr

> <s_m_Source_File>
dock_pv.maegz

> <i_m_Source_File_Index>
30

> <chembl_id>
CHEMBL6441

> <chembl_pref_name>
None

> <i_lp_mmshare_version>
53161

> <i_f3d_flags>
0

> <r_lp_tautomer_probability>
1

> <s_lp_Force_Field>
OPLS_2005

> <r_lp_Energy>
20.913992

> <b_lp_Chiralities_Consistent>
1

> <s_lp_Variant>
CHEMBL1994_lig42-1

> <s_i_glide_gridfile>
glide-grid_2aa2

> <i_i_glide_lignum>
49

> <i_i_glide_rotatable_bonds>
1

> <r_i_docking_score>
-9.30512513763551

> <r_i_glide_ligand_efficiency>
-0.422960233528887

> <r_i_glide_ligand_efficiency_sa>
-1.18515120843001

> <r_i_glide_ligand_efficiency_ln>
-2.27451199632431

> <r_i_glide_gscore>
-9.30512513763551

> <r_i_glide_lipo>
-4.24295565111642

> <r_i_glide_hbond>
-0.163213559341843

> <r_i_glide_metal>
0

> <r_i_glide_rewards>
-2.75439271621755

> <r_i_glide_evdw>
-38.6238670349121

> <r_i_glide_ecoul>
-1.3052750825882

> <r_i_glide_erotb>
0

> <r_i_glide_esite>
-0.0175785968258636

> <r_i_glide_emodel>
-50.9633821420439

> <r_i_glide_energy>
-39.9291421175003

> <r_i_glide_einternal>
3.17942142486572

> <i_i_glide_confnum>
1

> <i_i_glide_posenum>
178

> <r_i_glide_eff_state_penalty>
0

> <s_user_duplicate_titles>
CHEMBL1994_lig42

> <s_m_subgroup_title>
dock_pv

> <s_m_subgroupid>
dock_pv

> <b_m_subgroup_collapsed>
1

$$$$
CHEMBL1994_lig186
                    3D
 Schrodinger Suite 2021-1.
 35 37  0  0  1  0            999 V2000
   19.6784   71.6590   20.0928 C   0  0  0  0  0  0
   18.8819   70.9963   21.0266 C   0  0  0  0  0  0
   18.3903   71.6758   22.1234 C   0  0  0  0  0  0
   20.1472   72.9445   20.3576 C   0  0  0  0  0  0
   19.7092   73.5953   21.5076 C   0  0  0  0  0  0
   18.8137   72.9816   22.3600 C   0  0  0  0  0  0
   18.4292   73.8805   23.3377 N   0  0  0  0  0  0
   18.9698   75.0978   23.1680 C   0  0  0  0  0  0
   19.9582   74.9829   21.9878 C   0  0  0  0  0  0
   18.7205   76.1110   23.8143 O   0  0  0  0  0  0
   21.4158   75.1817   22.4691 C   0  0  0  0  0  0
   19.5862   76.0153   20.9295 C   0  0  0  0  0  0
   19.9482   71.0154   18.7996 C   0  0  0  0  0  0
   21.1099   71.0492   18.0476 C   0  0  0  0  0  0
   20.8965   70.2605   16.9287 C   0  0  0  0  0  0
   19.6370   69.7056   17.0363 C   0  0  0  0  0  0
   18.9999   70.2747   18.1113 N   0  0  0  0  0  0
   17.5721   70.1225   18.4376 C   0  0  0  0  0  0
   18.9766   68.6818   16.2627 C   0  0  0  0  0  0
   18.4347   67.8621   15.6700 N   0  0  0  0  0  0
   17.4619   71.0625   22.8692 F   0  0  0  0  0  0
   18.5531   69.9823   20.8620 H   0  0  0  0  0  0
   20.7836   73.4501   19.6458 H   0  0  0  0  0  0
   17.7042   73.6894   24.0176 H   0  0  0  0  0  0
   21.8353   74.2619   22.8687 H   0  0  0  0  0  0
   22.0733   75.4760   21.6501 H   0  0  0  0  0  0
   21.5112   75.9366   23.2484 H   0  0  0  0  0  0
   18.5595   75.8894   20.5777 H   0  0  0  0  0  0
   19.7060   77.0440   21.2702 H   0  0  0  0  0  0
   20.2413   75.8621   20.0751 H   0  0  0  0  0  0
   22.0186   71.5819   18.2921 H   0  0  0  0  0  0
   21.5989   70.0759   16.1385 H   0  0  0  0  0  0
   17.2085   70.9762   19.0090 H   0  0  0  0  0  0
   16.9776   70.0614   17.5258 H   0  0  0  0  0  0
   17.4334   69.2058   19.0093 H   0  0  0  0  0  0
  1  2  2  0  0  0
  1 13  1  0  0  0
  1  4  1  0  0  0
  2  3  1  0  0  0
  2 22  1  0  0  0
  3  6  2  0  0  0
  3 21  1  0  0  0
  4  5  2  0  0  0
  4 23  1  0  0  0
  5  6  1  0  0  0
  5  9  1  0  0  0
  6  7  1  0  0  0
  7  8  1  0  0  0
  7 24  1  0  0  0
  8 10  2  0  0  0
  8  9  1  0  0  0
  9 11  1  0  0  0
  9 12  1  0  0  0
 11 25  1  0  0  0
 11 26  1  0  0  0
 11 27  1  0  0  0
 12 28  1  0  0  0
 12 29  1  0  0  0
 12 30  1  0  0  0
 13 14  2  0  0  0
 13 17  1  0  0  0
 14 15  1  0  0  0
 14 31  1  0  0  0
 15 16  2  0  0  0
 15 32  1  0  0  0
 16 17  1  0  0  0
 16 19  1  0  0  0
 17 18  1  0  0  0
 18 33  1  0  0  0
 18 34  1  0  0  0
 18 35  1  0  0  0
 19 20  3  0  0  0
M  END
> <s_m_entry_id>
9591

> <s_m_entry_name>
dock_pv.31

> <s_m_Source_Path>
/home/csk/Desktop/cluster/DUD-E-result/mcr

> <s_m_Source_File>
dock_pv.maegz

> <i_m_Source_File_Index>
31

> <chembl_id>
CHEMBL407848

> <chembl_pref_name>
None

> <i_lp_mmshare_version>
53161

> <i_f3d_flags>
0

> <r_lp_tautomer_probability>
1

> <s_lp_Force_Field>
OPLS_2005

> <r_lp_Energy>
26.439803

> <b_lp_Chiralities_Consistent>
1

> <s_lp_Variant>
CHEMBL1994_lig186-1

> <s_i_glide_gridfile>
glide-grid_2aa2

> <i_i_glide_lignum>
320

> <i_i_glide_rotatable_bonds>
1

> <r_i_docking_score>
-9.27221452372139

> <r_i_glide_ligand_efficiency>
-0.441534024939114

> <r_i_glide_ligand_efficiency_sa>
-1.21815889486315

> <r_i_glide_ligand_efficiency_ln>
-2.29253630471649

> <r_i_glide_gscore>
-9.27221452372139

> <r_i_glide_lipo>
-3.63325098965152

> <r_i_glide_hbond>
-0.435870936043646

> <r_i_glide_metal>
0

> <r_i_glide_rewards>
-3.16492554416701

> <r_i_glide_evdw>
-33.5949363708496

> <r_i_glide_ecoul>
-3.75362849235535

> <r_i_glide_erotb>
0.225621243987442

> <r_i_glide_esite>
-0.0209972054508689

> <r_i_glide_emodel>
-46.2613301092778

> <r_i_glide_energy>
-37.348564863205

> <r_i_glide_einternal>
1.58236575126648

> <i_i_glide_confnum>
1

> <i_i_glide_posenum>
115

> <r_i_glide_eff_state_penalty>
0

> <s_user_duplicate_titles>
CHEMBL1994_lig186

> <s_m_subgroup_title>
dock_pv

> <s_m_subgroupid>
dock_pv

> <b_m_subgroup_collapsed>
1

$$$$
CHEMBL1994_lig60
                    3D
 Schrodinger Suite 2021-1.
 44 47  0  0  1  0            999 V2000
   19.5489   73.2257   20.1658 C   0  0  0  0  0  0
   18.4313   68.3288   16.4179 N   0  3  0  0  0  0
   18.7517   72.1847   19.6529 C   0  0  0  0  0  0
   18.9777   74.1993   21.0215 C   0  0  0  0  0  0
   19.3324   71.2585   18.6459 C   0  0  0  0  0  0
   17.5983   74.1142   21.2968 C   0  0  0  0  0  0
   16.9106   75.0519   22.0890 N   0  0  0  0  0  0
   19.8064   75.3142   21.6750 C   0  0  1  0  0  0
   18.6310   70.1799   18.0854 C   0  0  0  0  0  0
   19.2087   69.3860   17.0886 C   0  0  0  0  0  0
   21.3164   72.6667   18.4888 O   0  0  0  0  0  0
   21.0234   73.2517   19.7519 C   0  0  0  0  0  0
   17.6515   75.6925   23.1627 C   0  0  0  0  0  0
   20.6274   71.5198   18.1848 C   0  0  0  0  0  0
   17.4410   72.0400   20.0971 C   0  0  0  0  0  0
   17.2072   68.3942   16.4618 O   0  5  0  0  0  0
   18.9148   76.2591   22.5231 C   0  0  0  0  0  0
   19.0390   67.4617   15.7990 O   0  0  0  0  0  0
   16.8781   73.0029   20.9074 C   0  0  0  0  0  0
   20.5298   69.6361   16.7149 C   0  0  0  0  0  0
   21.2416   70.6829   17.2701 C   0  0  0  0  0  0
   20.9733   74.7629   22.5062 C   0  0  0  0  0  0
   17.9931   74.6897   24.2940 C   0  0  0  0  0  0
   16.7464   76.8233   23.6700 C   0  0  0  0  0  0
   15.9842   74.7883   22.3956 H   0  0  0  0  0  0
   20.2320   75.9262   20.8774 H   0  0  0  0  0  0
   17.6170   69.9634   18.3825 H   0  0  0  0  0  0
   21.4235   74.2637   19.7377 H   0  0  0  0  0  0
   21.5927   72.6962   20.4933 H   0  0  0  0  0  0
   16.8079   71.2243   19.7886 H   0  0  0  0  0  0
   19.4411   76.6619   23.3740 H   0  0  0  0  0  0
   18.6344   77.0621   21.8541 H   0  0  0  0  0  0
   15.8489   72.8986   21.2188 H   0  0  0  0  0  0
   21.0135   69.0620   15.9444 H   0  0  0  0  0  0
   22.2417   70.8932   16.9314 H   0  0  0  0  0  0
   21.8238   74.4332   21.9170 H   0  0  0  0  0  0
   20.6410   73.9266   23.1204 H   0  0  0  0  0  0
   21.3774   75.5111   23.1869 H   0  0  0  0  0  0
   18.6409   75.1492   25.0334 H   0  0  0  0  0  0
   17.1135   74.3988   24.8701 H   0  0  0  0  0  0
   18.4740   73.7795   23.9364 H   0  0  0  0  0  0
   17.2164   77.3882   24.4698 H   0  0  0  0  0  0
   16.5017   77.5324   22.8834 H   0  0  0  0  0  0
   15.8101   76.4350   24.0662 H   0  0  0  0  0  0
  1  3  2  0  0  0
  1  4  1  0  0  0
  1 12  1  0  0  0
  2 10  1  0  0  0
  2 16  1  0  0  0
  2 18  2  0  0  0
  3  5  1  0  0  0
  3 15  1  0  0  0
  4  6  2  0  0  0
  4  8  1  0  0  0
  5  9  2  0  0  0
  5 14  1  0  0  0
  6  7  1  0  0  0
  6 19  1  0  0  0
  7 13  1  0  0  0
  7 25  1  0  0  0
  8 17  1  0  0  0
  8 22  1  0  0  0
  8 26  1  0  0  0
  9 10  1  0  0  0
  9 27  1  0  0  0
 10 20  2  0  0  0
 11 12  1  0  0  0
 11 14  1  0  0  0
 12 28  1  0  0  0
 12 29  1  0  0  0
 13 17  1  0  0  0
 13 23  1  0  0  0
 13 24  1  0  0  0
 14 21  2  0  0  0
 15 19  2  0  0  0
 15 30  1  0  0  0
 17 31  1  0  0  0
 17 32  1  0  0  0
 19 33  1  0  0  0
 20 21  1  0  0  0
 20 34  1  0  0  0
 21 35  1  0  0  0
 22 36  1  0  0  0
 22 37  1  0  0  0
 22 38  1  0  0  0
 23 39  1  0  0  0
 23 40  1  0  0  0
 23 41  1  0  0  0
 24 42  1  0  0  0
 24 43  1  0  0  0
 24 44  1  0  0  0
M  CHG  2   2   1  16  -1
M  END
> <s_m_entry_id>
9592

> <s_m_entry_name>
dock_pv.32

> <s_m_Source_Path>
/home/csk/Desktop/cluster/DUD-E-result/mcr

> <s_m_Source_File>
dock_pv.maegz

> <i_m_Source_File_Index>
32

> <chembl_id>
CHEMBL293409

> <chembl_pref_name>
None

> <i_lp_mmshare_version>
53161

> <i_f3d_flags>
0

> <r_lp_tautomer_probability>
1

> <s_lp_Force_Field>
OPLS_2005

> <r_lp_Energy>
31.466327

> <b_lp_Chiralities_Consistent>
1

> <s_lp_Variant>
CHEMBL1994_lig60-2

> <s_i_glide_gridfile>
glide-grid_2aa2

> <i_i_glide_lignum>
80

> <i_i_glide_rotatable_bonds>
1

> <r_i_docking_score>
-9.26386980404107

> <r_i_glide_ligand_efficiency>
-0.385994575168378

> <r_i_glide_ligand_efficiency_sa>
-1.11340101917568

> <r_i_glide_ligand_efficiency_ln>
-2.21726913539302

> <r_i_glide_gscore>
-9.26386980404107

> <r_i_glide_lipo>
-4.87787804070127

> <r_i_glide_hbond>
-0.101520771932707

> <r_i_glide_metal>
0

> <r_i_glide_rewards>
-2.04849945777288

> <r_i_glide_evdw>
-32.3411903381348

> <r_i_glide_ecoul>
-3.49112892150879

> <r_i_glide_erotb>
0

> <r_i_glide_esite>
-0.0952426785011512

> <r_i_glide_emodel>
-46.225086389996

> <r_i_glide_energy>
-35.8323192596436

> <r_i_glide_einternal>
2.5796434879303

> <i_i_glide_confnum>
2

> <i_i_glide_posenum>
285

> <r_i_glide_eff_state_penalty>
0

> <s_user_duplicate_titles>
CHEMBL1994_lig60

> <s_m_subgroup_title>
dock_pv

> <s_m_subgroupid>
dock_pv

> <b_m_subgroup_collapsed>
1

$$$$
CHEMBL1994_lig60
                    3D
 Schrodinger Suite 2021-1.
 44 47  0  0  1  0            999 V2000
   19.5766   73.1224   20.3443 C   0  0  0  0  0  0
   17.8675   68.6871   16.3518 N   0  3  0  0  0  0
   18.7386   72.0740   19.9132 C   0  0  0  0  0  0
   19.0535   74.1121   21.2285 C   0  0  0  0  0  0
   19.2251   71.1167   18.8973 C   0  0  0  0  0  0
   17.6613   74.0819   21.4766 C   0  0  0  0  0  0
   16.9759   75.0620   22.2099 N   0  0  0  0  0  0
   19.8918   75.1870   21.9655 C   0  0  2  0  0  0
   18.3611   70.2878   18.1767 C   0  0  0  0  0  0
   18.8301   69.4640   17.1552 C   0  0  0  0  0  0
   21.4937   71.8686   19.2700 O   0  0  0  0  0  0
   21.0235   73.1060   19.8228 C   0  0  0  0  0  0
   17.6936   75.7244   23.2729 C   0  0  0  0  0  0
   20.5833   71.1042   18.5881 C   0  0  0  0  0  0
   17.4414   71.9657   20.3981 C   0  0  0  0  0  0
   18.2466   68.2619   15.2704 O   0  5  0  0  0  0
   18.9739   76.2450   22.6466 C   0  0  0  0  0  0
   16.6956   68.6553   16.7158 O   0  0  0  0  0  0
   16.8976   72.9901   21.1275 C   0  0  0  0  0  0
   20.2018   69.4649   16.8695 C   0  0  0  0  0  0
   21.0796   70.2712   17.5913 C   0  0  0  0  0  0
   21.0081   75.8618   21.1333 C   0  0  0  0  0  0
   18.0079   74.7296   24.4178 C   0  0  0  0  0  0
   16.7776   76.8678   23.7238 C   0  0  0  0  0  0
   16.0383   74.8203   22.5003 H   0  0  0  0  0  0
   20.3851   74.6488   22.7774 H   0  0  0  0  0  0
   17.2983   70.3161   18.3565 H   0  0  0  0  0  0
   21.1117   73.8322   19.0170 H   0  0  0  0  0  0
   21.7273   73.3842   20.6055 H   0  0  0  0  0  0
   16.7902   71.1422   20.1521 H   0  0  0  0  0  0
   19.4418   76.6631   23.5201 H   0  0  0  0  0  0
   18.7566   77.0591   21.9493 H   0  0  0  0  0  0
   15.8537   72.9364   21.4034 H   0  0  0  0  0  0
   20.5952   68.8557   16.0725 H   0  0  0  0  0  0
   22.1351   70.2689   17.3694 H   0  0  0  0  0  0
   21.9942   75.4597   21.3658 H   0  0  0  0  0  0
   21.0692   76.9397   21.2698 H   0  0  0  0  0  0
   20.8313   75.7427   20.0708 H   0  0  0  0  0  0
   18.6170   75.1914   25.1924 H   0  0  0  0  0  0
   17.0932   74.4039   24.9070 H   0  0  0  0  0  0
   18.5300   73.8356   24.0787 H   0  0  0  0  0  0
   17.2559   77.4904   24.4693 H   0  0  0  0  0  0
   16.5010   77.5446   22.9285 H   0  0  0  0  0  0
   15.8574   76.4842   24.1586 H   0  0  0  0  0  0
  1  3  2  0  0  0
  1  4  1  0  0  0
  1 12  1  0  0  0
  2 10  1  0  0  0
  2 16  1  0  0  0
  2 18  2  0  0  0
  3  5  1  0  0  0
  3 15  1  0  0  0
  4  6  2  0  0  0
  4  8  1  0  0  0
  5  9  2  0  0  0
  5 14  1  0  0  0
  6  7  1  0  0  0
  6 19  1  0  0  0
  7 13  1  0  0  0
  7 25  1  0  0  0
  8 17  1  0  0  0
  8 22  1  0  0  0
  8 26  1  0  0  0
  9 10  1  0  0  0
  9 27  1  0  0  0
 10 20  2  0  0  0
 11 12  1  0  0  0
 11 14  1  0  0  0
 12 28  1  0  0  0
 12 29  1  0  0  0
 13 17  1  0  0  0
 13 23  1  0  0  0
 13 24  1  0  0  0
 14 21  2  0  0  0
 15 19  2  0  0  0
 15 30  1  0  0  0
 17 31  1  0  0  0
 17 32  1  0  0  0
 19 33  1  0  0  0
 20 21  1  0  0  0
 20 34  1  0  0  0
 21 35  1  0  0  0
 22 36  1  0  0  0
 22 37  1  0  0  0
 22 38  1  0  0  0
 23 39  1  0  0  0
 23 40  1  0  0  0
 23 41  1  0  0  0
 24 42  1  0  0  0
 24 43  1  0  0  0
 24 44  1  0  0  0
M  CHG  2   2   1  16  -1
M  END
> <s_m_entry_id>
9593

> <s_m_entry_name>
dock_pv.33

> <s_m_Source_Path>
/home/csk/Desktop/cluster/DUD-E-result/mcr

> <s_m_Source_File>
dock_pv.maegz

> <i_m_Source_File_Index>
33

> <chembl_id>
CHEMBL293409

> <chembl_pref_name>
None

> <i_lp_mmshare_version>
53161

> <i_f3d_flags>
0

> <r_lp_tautomer_probability>
1

> <s_lp_Force_Field>
OPLS_2005

> <r_lp_Energy>
31.465418

> <b_lp_Chiralities_Consistent>
1

> <s_lp_Variant>
CHEMBL1994_lig60-1

> <s_i_glide_gridfile>
glide-grid_2aa2

> <i_i_glide_lignum>
79

> <i_i_glide_rotatable_bonds>
1

> <r_i_docking_score>
-9.26161342186178

> <r_i_glide_ligand_efficiency>
-0.385900559244241

> <r_i_glide_ligand_efficiency_sa>
-1.11312983032359

> <r_i_glide_ligand_efficiency_ln>
-2.21672907959888

> <r_i_glide_gscore>
-9.26161342186178

> <r_i_glide_lipo>
-4.87289779769761

> <r_i_glide_hbond>
-0.109563920519227

> <r_i_glide_metal>
0

> <r_i_glide_rewards>
-2.15228744296837

> <r_i_glide_evdw>
-33.4624557495117

> <r_i_glide_ecoul>
-2.75900292396545

> <r_i_glide_erotb>
0

> <r_i_glide_esite>
-0.0398910346061703

> <r_i_glide_emodel>
-47.0153849409787

> <r_i_glide_energy>
-36.2214586734772

> <r_i_glide_einternal>
0.420381397008896

> <i_i_glide_confnum>
1

> <i_i_glide_posenum>
49

> <r_i_glide_eff_state_penalty>
0

> <s_user_duplicate_titles>
CHEMBL1994_lig60

> <s_m_subgroup_title>
dock_pv

> <s_m_subgroupid>
dock_pv

> <b_m_subgroup_collapsed>
1

$$$$
CHEMBL1994_lig1110
                    3D
 Schrodinger Suite 2021-1.
 38 40  0  0  1  0            999 V2000
   21.0669   74.6177   21.0313 C   0  0  0  0  0  0
   20.4559   74.9006   22.2476 C   0  0  0  0  0  0
   19.3404   74.1891   22.6873 C   0  0  0  0  0  0
   20.5930   73.5940   20.2110 C   0  0  0  0  0  0
   19.5129   72.7987   20.6406 C   0  0  0  0  0  0
   18.9016   73.1374   21.8857 C   0  0  0  0  0  0
   17.8399   72.2859   22.0695 N   0  0  0  0  0  0
   17.7717   71.4162   21.0265 C   0  0  0  0  0  0
   18.7883   71.6565   20.1163 C   0  0  0  0  0  0
   19.0121   70.8462   18.8746 C   0  0  0  0  0  0
   17.8864   70.2436   18.3080 C   0  0  0  0  0  0
   18.0142   69.4302   17.1939 C   0  0  0  0  0  0
   19.2372   69.2485   16.5721 C   0  0  0  0  0  0
   20.3570   69.8658   17.0991 C   0  0  0  0  0  0
   20.2656   70.6389   18.2705 C   0  0  0  0  0  0
   18.6399   74.5665   23.8282 N   0  0  0  0  0  0
   17.5029   75.8920   23.6776 S   0  0  0  0  0  0
   16.5262   75.5166   22.1001 C   0  0  0  0  0  0
   16.6406   75.8600   24.8602 O   0  0  0  0  0  0
   18.3166   77.0625   23.3896 O   0  0  0  0  0  0
   21.3740   71.1563   18.8903 O   0  0  0  0  0  0
   16.6408   68.6621   16.5554 Cl  0  0  0  0  0  0
   22.6406   70.6974   18.4809 C   0  0  0  0  0  0
   21.9091   75.2149   20.7117 H   0  0  0  0  0  0
   20.8309   75.7187   22.8452 H   0  0  0  0  0  0
   21.0659   73.4252   19.2576 H   0  0  0  0  0  0
   17.1662   72.2997   22.8287 H   0  0  0  0  0  0
   16.9838   70.6807   21.0213 H   0  0  0  0  0  0
   16.9047   70.3789   18.7388 H   0  0  0  0  0  0
   19.3217   68.6281   15.6931 H   0  0  0  0  0  0
   21.2962   69.6986   16.5961 H   0  0  0  0  0  0
   18.2873   73.8125   24.3974 H   0  0  0  0  0  0
   15.7389   76.2603   22.0288 H   0  0  0  0  0  0
   17.2028   75.6388   21.2551 H   0  0  0  0  0  0
   16.1107   74.5145   22.0716 H   0  0  0  0  0  0
   23.3959   71.0578   19.1712 H   0  0  0  0  0  0
   22.6803   69.6069   18.5011 H   0  0  0  0  0  0
   22.8667   71.0622   17.4824 H   0  0  0  0  0  0
  1  2  2  0  0  0
  1  4  1  0  0  0
  1 24  1  0  0  0
  2  3  1  0  0  0
  2 25  1  0  0  0
  3  6  2  0  0  0
  3 16  1  0  0  0
  4  5  2  0  0  0
  4 26  1  0  0  0
  5  6  1  0  0  0
  5  9  1  0  0  0
  6  7  1  0  0  0
  7  8  1  0  0  0
  7 27  1  0  0  0
  8  9  2  0  0  0
  8 28  1  0  0  0
  9 10  1  0  0  0
 10 11  2  0  0  0
 10 15  1  0  0  0
 11 12  1  0  0  0
 11 29  1  0  0  0
 12 13  2  0  0  0
 12 22  1  0  0  0
 13 14  1  0  0  0
 13 30  1  0  0  0
 14 15  2  0  0  0
 14 31  1  0  0  0
 15 21  1  0  0  0
 16 17  1  0  0  0
 16 32  1  0  0  0
 17 18  1  0  0  0
 17 19  2  0  0  0
 17 20  2  0  0  0
 18 33  1  0  0  0
 18 34  1  0  0  0
 18 35  1  0  0  0
 21 23  1  0  0  0
 23 36  1  0  0  0
 23 37  1  0  0  0
 23 38  1  0  0  0
M  END
> <s_m_entry_id>
9594

> <s_m_entry_name>
dock_pv.34

> <s_m_Source_Path>
/home/csk/Desktop/cluster/DUD-E-result/mcr

> <s_m_Source_File>
dock_pv.maegz

> <i_m_Source_File_Index>
34

> <chembl_id>
CHEMBL3605930

> <chembl_pref_name>
None

> <i_lp_mmshare_version>
53161

> <i_f3d_flags>
0

> <r_lp_tautomer_probability>
1

> <s_lp_Force_Field>
OPLS_2005

> <r_lp_Energy>
16.058046

> <b_lp_Chiralities_Consistent>
1

> <s_lp_Variant>
CHEMBL1994_lig1110-1

> <s_i_glide_gridfile>
glide-grid_2aa2

> <i_i_glide_lignum>
1596

> <i_i_glide_rotatable_bonds>
4

> <r_i_docking_score>
-9.23254944946601

> <r_i_glide_ligand_efficiency>
-0.401415193455044

> <r_i_glide_ligand_efficiency_sa>
-1.1415714126844

> <r_i_glide_ligand_efficiency_ln>
-2.2325141730108

> <r_i_glide_gscore>
-9.23254944946601

> <r_i_glide_lipo>
-4.27014935408402

> <r_i_glide_hbond>
-0.32

> <r_i_glide_metal>
0

> <r_i_glide_rewards>
-2.11130356390167

> <r_i_glide_evdw>
-37.260570526123

> <r_i_glide_ecoul>
-6.16298913955688

> <r_i_glide_erotb>
0.309818423962893

> <r_i_glide_esite>
-0.0534380582035342

> <r_i_glide_emodel>
-58.0918952001996

> <r_i_glide_energy>
-43.4235596656799

> <r_i_glide_einternal>
8.05483722686768

> <i_i_glide_confnum>
13

> <i_i_glide_posenum>
65

> <r_i_glide_eff_state_penalty>
0

> <s_user_duplicate_titles>
CHEMBL1994_lig1110

> <s_m_subgroup_title>
dock_pv

> <s_m_subgroupid>
dock_pv

> <b_m_subgroup_collapsed>
1

$$$$
CHEMBL1994_lig41
                    3D
 Schrodinger Suite 2021-1.
 38 40  0  0  1  0            999 V2000
   19.5555   70.4142   18.0760 C   0  0  0  0  0  0
   19.2964   71.3348   19.2109 C   0  0  0  0  0  0
   18.0297   71.2566   19.7888 C   0  0  0  0  0  0
   20.9212   70.4627   17.4221 C   0  0  0  0  0  0
   18.2410   73.6671   22.5370 N   0  0  0  0  0  0
   18.6274   72.9174   21.4174 C   0  0  0  0  0  0
   17.0410   70.4458   19.2700 O   0  0  0  0  0  0
   17.2358   69.6123   18.1949 C   0  0  0  0  0  0
   18.5719   69.6086   17.6151 C   0  0  0  0  0  0
   19.8962   73.0717   20.8240 C   0  0  0  0  0  0
   20.2129   72.2657   19.7244 C   0  0  0  0  0  0
   17.6977   72.0218   20.8982 C   0  0  0  0  0  0
   19.1779   74.5652   23.2060 C   0  0  1  0  0  0
   20.8943   74.0938   21.3652 C   0  0  0  0  0  0
   20.1856   75.1821   22.1970 C   0  0  1  0  0  0
   16.2619   68.9657   17.8198 O   0  0  0  0  0  0
   21.8893   70.2620   18.3162 F   0  0  0  0  0  0
   21.0336   69.5450   16.4700 F   0  0  0  0  0  0
   21.0410   71.6574   16.8701 F   0  0  0  0  0  0
   18.3908   75.5901   24.0700 C   0  0  0  0  0  0
   19.5719   76.2321   21.2700 C   0  0  0  0  0  0
   17.0607   76.1415   23.5184 C   0  0  0  0  0  0
   17.3794   73.4620   23.0387 H   0  0  0  0  0  0
   18.7584   68.9523   16.7789 H   0  0  0  0  0  0
   21.1934   72.3768   19.2860 H   0  0  0  0  0  0
   16.7144   71.9342   21.3395 H   0  0  0  0  0  0
   19.7597   73.9442   23.8881 H   0  0  0  0  0  0
   21.4655   74.5394   20.5486 H   0  0  0  0  0  0
   21.6375   73.5988   21.9826 H   0  0  0  0  0  0
   20.9550   75.6943   22.7774 H   0  0  0  0  0  0
   19.0410   76.4390   24.2803 H   0  0  0  0  0  0
   18.1866   75.1444   25.0450 H   0  0  0  0  0  0
   18.8255   75.7981   20.6037 H   0  0  0  0  0  0
   19.0941   77.0481   21.8085 H   0  0  0  0  0  0
   20.3559   76.6794   20.6606 H   0  0  0  0  0  0
   16.8105   77.1019   23.9708 H   0  0  0  0  0  0
   16.2410   75.4620   23.7280 H   0  0  0  0  0  0
   17.0832   76.2620   22.4398 H   0  0  0  0  0  0
  1  2  1  0  0  0
  1  4  1  0  0  0
  1  9  2  0  0  0
  2  3  2  0  0  0
  2 11  1  0  0  0
  3 12  1  0  0  0
  3  7  1  0  0  0
  4 17  1  0  0  0
  4 18  1  0  0  0
  4 19  1  0  0  0
  5  6  1  0  0  0
  5 13  1  0  0  0
  5 23  1  0  0  0
  6 10  1  0  0  0
  6 12  2  0  0  0
  7  8  1  0  0  0
  8  9  1  0  0  0
  8 16  2  0  0  0
  9 24  1  0  0  0
 10 11  2  0  0  0
 10 14  1  0  0  0
 11 25  1  0  0  0
 12 26  1  0  0  0
 13 15  1  0  0  0
 13 20  1  0  0  0
 13 27  1  0  0  0
 14 15  1  0  0  0
 14 28  1  0  0  0
 14 29  1  0  0  0
 15 21  1  0  0  0
 15 30  1  0  0  0
 20 22  1  0  0  0
 20 31  1  0  0  0
 20 32  1  0  0  0
 21 33  1  0  0  0
 21 34  1  0  0  0
 21 35  1  0  0  0
 22 36  1  0  0  0
 22 37  1  0  0  0
 22 38  1  0  0  0
M  END
> <s_m_entry_id>
9595

> <s_m_entry_name>
dock_pv.35

> <s_m_Source_Path>
/home/csk/Desktop/cluster/DUD-E-result/mcr

> <s_m_Source_File>
dock_pv.maegz

> <i_m_Source_File_Index>
35

> <chembl_id>
CHEMBL6654

> <chembl_pref_name>
None

> <i_lp_mmshare_version>
53161

> <i_f3d_flags>
0

> <r_lp_tautomer_probability>
1

> <s_lp_Force_Field>
OPLS_2005

> <r_lp_Energy>
18.884954

> <b_lp_Chiralities_Consistent>
1

> <s_lp_Variant>
CHEMBL1994_lig41-4

> <s_i_glide_gridfile>
glide-grid_2aa2

> <i_i_glide_lignum>
48

> <i_i_glide_rotatable_bonds>
2

> <r_i_docking_score>
-9.21536246750293

> <r_i_glide_ligand_efficiency>
-0.418880112159224

> <r_i_glide_ligand_efficiency_sa>
-1.17371854789015

> <r_i_glide_ligand_efficiency_ln>
-2.25257072557096

> <r_i_glide_gscore>
-9.21536246750293

> <r_i_glide_lipo>
-4.33261711577531

> <r_i_glide_hbond>
-0.32

> <r_i_glide_metal>
0

> <r_i_glide_rewards>
-2.49785802912768

> <r_i_glide_evdw>
-34.229434967041

> <r_i_glide_ecoul>
-2.08574771881104

> <r_i_glide_erotb>
0

> <r_i_glide_esite>
-0.0405534164262321

> <r_i_glide_emodel>
-51.6455945244598

> <r_i_glide_energy>
-36.3151826858521

> <r_i_glide_einternal>
5.55900573730469

> <i_i_glide_confnum>
2

> <i_i_glide_posenum>
145

> <r_i_glide_eff_state_penalty>
0

> <s_user_duplicate_titles>
CHEMBL1994_lig41

> <s_m_subgroup_title>
dock_pv

> <s_m_subgroupid>
dock_pv

> <b_m_subgroup_collapsed>
1

$$$$
CHEMBL1994_lig843
                    3D
 Schrodinger Suite 2021-1.
 52 56  0  0  1  0            999 V2000
   18.2094   72.2509   24.3611 C   0  0  0  0  0  0
   19.2360   72.5567   23.2506 C   0  0  0  0  0  0
   18.7813   73.4647   22.0579 C   0  0  2  0  0  0
   17.4673   72.9412   21.3891 C   0  0  0  0  0  0
   17.6313   71.5270   20.8287 C   0  0  0  0  0  0
   18.7002   71.5396   19.7139 C   0  0  2  0  0  0
   18.8651   70.1744   19.0136 C   0  0  1  0  0  0
   17.5357   69.6147   18.4513 C   0  0  0  0  0  0
   17.7546   68.3925   17.5609 C   0  0  0  0  0  0
   18.7091   68.7204   16.4202 C   0  0  0  0  0  0
   18.5578   68.2525   15.2980 O   0  0  0  0  0  0
   19.8310   69.5854   16.7536 C   0  0  0  0  0  0
   19.9217   70.2988   17.8971 C   0  0  0  0  0  0
   21.0204   71.2324   18.0822 C   0  0  0  0  0  0
   21.0975   72.0774   19.1253 C   0  0  0  0  0  0
   20.0570   72.1258   20.2389 C   0  0  1  0  0  0
   19.7877   73.5271   20.8616 C   0  0  2  0  0  0
   20.9409   74.4106   21.3297 C   0  0  0  0  0  0
   20.2376   75.4733   22.1877 C   0  0  0  0  0  0
   18.8091   74.9645   22.5309 C   0  0  2  0  0  0
   18.6451   75.1581   23.9401 O   0  0  0  0  0  0
   17.3623   75.6881   24.2373 C   0  0  0  0  0  0
   16.8054   76.0744   22.9130 C   0  0  0  0  0  0
   17.6841   75.7710   21.9550 C   0  0  0  0  0  0
   18.6407   71.8620   25.2711 H   0  0  0  0  0  0
   17.6947   73.1200   24.7356 H   0  0  0  0  0  0
   17.4902   71.4894   24.0416 H   0  0  0  0  0  0
   19.5602   71.5814   22.9000 H   0  0  0  0  0  0
   20.0943   73.0587   23.6951 H   0  0  0  0  0  0
   16.6421   72.9234   22.0692 H   0  0  0  0  0  0
   17.1349   73.5978   20.5837 H   0  0  0  0  0  0
   16.6683   71.2027   20.4367 H   0  0  0  0  0  0
   17.8788   70.7998   21.6018 H   0  0  0  0  0  0
   18.3373   72.2371   18.9542 H   0  0  0  0  0  0
   19.2463   69.4609   19.7466 H   0  0  0  0  0  0
   16.8827   69.3218   19.2674 H   0  0  0  0  0  0
   16.9934   70.3909   17.9067 H   0  0  0  0  0  0
   16.8204   67.9908   17.1707 H   0  0  0  0  0  0
   18.2414   67.6175   18.1525 H   0  0  0  0  0  0
   20.6083   69.7120   16.0185 H   0  0  0  0  0  0
   21.8150   71.2601   17.3496 H   0  0  0  0  0  0
   21.9643   72.7124   19.1918 H   0  0  0  0  0  0
   20.4635   71.4675   21.0031 H   0  0  0  0  0  0
   19.3321   74.1084   20.0539 H   0  0  0  0  0  0
   21.6781   73.8596   21.9083 H   0  0  0  0  0  0
   21.4697   74.8652   20.4907 H   0  0  0  0  0  0
   20.1780   76.4120   21.6314 H   0  0  0  0  0  0
   20.8258   75.6802   23.0834 H   0  0  0  0  0  0
   16.7286   74.9897   24.7729 H   0  0  0  0  0  0
   17.4326   76.5638   24.8691 H   0  0  0  0  0  0
   15.8472   76.5504   22.8099 H   0  0  0  0  0  0
   17.5831   75.9361   20.8923 H   0  0  0  0  0  0
  1  2  1  0  0  0
  1 25  1  0  0  0
  1 26  1  0  0  0
  1 27  1  0  0  0
  2  3  1  0  0  0
  2 28  1  0  0  0
  2 29  1  0  0  0
  3  4  1  0  0  0
  3 17  1  0  0  0
  3 20  1  0  0  0
  4  5  1  0  0  0
  4 30  1  0  0  0
  4 31  1  0  0  0
  5  6  1  0  0  0
  5 32  1  0  0  0
  5 33  1  0  0  0
  6  7  1  0  0  0
  6 16  1  0  0  0
  6 34  1  0  0  0
  7  8  1  0  0  0
  7 13  1  0  0  0
  7 35  1  0  0  0
  8  9  1  0  0  0
  8 36  1  0  0  0
  8 37  1  0  0  0
  9 10  1  0  0  0
  9 38  1  0  0  0
  9 39  1  0  0  0
 10 11  2  0  0  0
 10 12  1  0  0  0
 12 13  2  0  0  0
 12 40  1  0  0  0
 13 14  1  0  0  0
 14 15  2  0  0  0
 14 41  1  0  0  0
 15 16  1  0  0  0
 15 42  1  0  0  0
 16 17  1  0  0  0
 16 43  1  0  0  0
 17 18  1  0  0  0
 17 44  1  0  0  0
 18 19  1  0  0  0
 18 45  1  0  0  0
 18 46  1  0  0  0
 19 20  1  0  0  0
 19 47  1  0  0  0
 19 48  1  0  0  0
 20 21  1  0  0  0
 20 24  1  0  0  0
 21 22  1  0  0  0
 22 23  1  0  0  0
 22 49  1  0  0  0
 22 50  1  0  0  0
 23 24  2  0  0  0
 23 51  1  0  0  0
 24 52  1  0  0  0
M  END
> <s_m_entry_id>
9596

> <s_m_entry_name>
dock_pv.36

> <s_m_Source_Path>
/home/csk/Desktop/cluster/DUD-E-result/mcr

> <s_m_Source_File>
dock_pv.maegz

> <i_m_Source_File_Index>
36

> <chembl_id>
CHEMBL3692352

> <chembl_pref_name>
None

> <i_lp_mmshare_version>
53161

> <i_f3d_flags>
0

> <r_lp_tautomer_probability>
1

> <s_lp_Force_Field>
OPLS_2005

> <r_lp_Energy>
63.448129

> <b_lp_Chiralities_Consistent>
1

> <s_lp_Variant>
CHEMBL1994_lig843-1

> <s_i_glide_gridfile>
glide-grid_2aa2

> <i_i_glide_lignum>
1274

> <i_i_glide_rotatable_bonds>
1

> <r_i_docking_score>
-9.15389368335178

> <r_i_glide_ligand_efficiency>
-0.381412236806324

> <r_i_glide_ligand_efficiency_sa>
-1.10018326812234

> <r_i_glide_ligand_efficiency_ln>
-2.19094680323672

> <r_i_glide_gscore>
-9.15389368335178

> <r_i_glide_lipo>
-5.03302496660761

> <r_i_glide_hbond>
-0.0265558207668045

> <r_i_glide_metal>
0

> <r_i_glide_rewards>
-2.54688736363636

> <r_i_glide_evdw>
-22.5791244506836

> <r_i_glide_ecoul>
-2.78979539871216

> <r_i_glide_erotb>
0

> <r_i_glide_esite>
0

> <r_i_glide_emodel>
-48.1367673202716

> <r_i_glide_energy>
-25.3689198493958

> <r_i_glide_einternal>
1.46254849433899

> <i_i_glide_confnum>
1

> <i_i_glide_posenum>
37

> <r_i_glide_eff_state_penalty>
0

> <s_user_duplicate_titles>
CHEMBL1994_lig843

> <s_m_subgroup_title>
dock_pv

> <s_m_subgroupid>
dock_pv

> <b_m_subgroup_collapsed>
1

$$$$
CHEMBL1994_lig839
                    3D
 Schrodinger Suite 2021-1.
 57 61  0  0  1  0            999 V2000
   19.4463   73.5285   17.6201 C   0  0  0  0  0  0
   20.8530   73.0386   18.0699 C   0  0  0  0  0  0
   21.0707   71.9383   19.1427 C   0  0  2  0  0  0
   21.2840   70.5410   18.5165 C   0  0  0  0  0  0
   19.9675   69.9401   18.0461 C   0  0  0  0  0  0
   19.8185   69.4144   16.8107 C   0  0  0  0  0  0
   18.6417   68.6625   16.4076 C   0  0  0  0  0  0
   18.4533   68.2647   15.2698 O   0  0  0  0  0  0
   17.7113   68.2625   17.5310 C   0  0  0  0  0  0
   17.5206   69.4131   18.4977 C   0  0  0  0  0  0
   18.8599   69.8784   19.1226 C   0  0  2  0  0  0
   18.7000   71.2541   19.7957 C   0  0  1  0  0  0
   17.5899   71.2744   20.8569 C   0  0  0  0  0  0
   17.4661   72.6960   21.3952 C   0  0  0  0  0  0
   18.7697   73.1216   22.1161 C   0  0  1  0  0  0
   19.0806   72.1005   23.2487 C   0  0  0  0  0  0
   19.8306   73.2126   21.0099 C   0  0  1  0  0  0
   20.9896   74.0507   21.5514 C   0  0  0  0  0  0
   20.2913   75.0353   22.5003 C   0  0  0  0  0  0
   18.8178   74.5765   22.6611 C   0  0  2  0  0  0
   18.4769   74.5577   24.0398 O   0  0  0  0  0  0
   17.4620   75.4862   24.3091 C   0  0  0  0  0  0
   17.0365   76.0251   22.9846 C   0  0  0  0  0  0
   17.8262   75.5279   22.0371 C   0  0  0  0  0  0
   20.0574   71.8501   20.2990 C   0  0  2  0  0  0
   19.4742   74.2304   16.7894 H   0  0  0  0  0  0
   18.8679   74.0553   18.3694 H   0  0  0  0  0  0
   18.8443   72.7051   17.2712 H   0  0  0  0  0  0
   21.3585   72.6620   17.1936 H   0  0  0  0  0  0
   21.4417   73.8861   18.3836 H   0  0  0  0  0  0
   22.0334   72.1805   19.5965 H   0  0  0  0  0  0
   22.0278   70.5734   17.7181 H   0  0  0  0  0  0
   21.7120   69.8741   19.2669 H   0  0  0  0  0  0
   20.6407   69.4847   16.1139 H   0  0  0  0  0  0
   16.7723   67.8697   17.1415 H   0  0  0  0  0  0
   18.2411   67.4621   18.0500 H   0  0  0  0  0  0
   17.0110   70.2405   17.9980 H   0  0  0  0  0  0
   16.8368   69.0846   19.2699 H   0  0  0  0  0  0
   19.1679   69.1549   19.8800 H   0  0  0  0  0  0
   18.2913   71.9236   19.0571 H   0  0  0  0  0  0
   16.6407   71.0056   20.4082 H   0  0  0  0  0  0
   17.7600   70.5339   21.6366 H   0  0  0  0  0  0
   17.1861   73.3814   20.5936 H   0  0  0  0  0  0
   16.6414   72.7087   22.0698 H   0  0  0  0  0  0
   19.8408   72.4686   23.9286 H   0  0  0  0  0  0
   18.1964   71.9103   23.8589 H   0  0  0  0  0  0
   19.4271   71.1412   22.8702 H   0  0  0  0  0  0
   19.4092   73.8758   20.2679 H   0  0  0  0  0  0
   21.7427   73.4646   22.0655 H   0  0  0  0  0  0
   21.5075   74.5822   20.7514 H   0  0  0  0  0  0
   20.7996   75.0975   23.4567 H   0  0  0  0  0  0
   20.3369   76.0343   22.0679 H   0  0  0  0  0  0
   17.9374   76.2620   24.8700 H   0  0  0  0  0  0
   16.6555   75.0504   24.8950 H   0  0  0  0  0  0
   16.2411   76.7371   22.8702 H   0  0  0  0  0  0
   17.8025   75.7442   20.9791 H   0  0  0  0  0  0
   20.4742   71.1478   21.0197 H   0  0  0  0  0  0
  1  2  1  0  0  0
  1 26  1  0  0  0
  1 27  1  0  0  0
  1 28  1  0  0  0
  2  3  1  0  0  0
  2 29  1  0  0  0
  2 30  1  0  0  0
  3  4  1  0  0  0
  3 25  1  0  0  0
  3 31  1  0  0  0
  4  5  1  0  0  0
  4 32  1  0  0  0
  4 33  1  0  0  0
  5  6  2  0  0  0
  5 11  1  0  0  0
  6  7  1  0  0  0
  6 34  1  0  0  0
  7  8  2  0  0  0
  7  9  1  0  0  0
  9 10  1  0  0  0
  9 35  1  0  0  0
  9 36  1  0  0  0
 10 11  1  0  0  0
 10 37  1  0  0  0
 10 38  1  0  0  0
 11 12  1  0  0  0
 11 39  1  0  0  0
 12 13  1  0  0  0
 12 25  1  0  0  0
 12 40  1  0  0  0
 13 14  1  0  0  0
 13 41  1  0  0  0
 13 42  1  0  0  0
 14 15  1  0  0  0
 14 43  1  0  0  0
 14 44  1  0  0  0
 15 16  1  0  0  0
 15 17  1  0  0  0
 15 20  1  0  0  0
 16 45  1  0  0  0
 16 46  1  0  0  0
 16 47  1  0  0  0
 17 18  1  0  0  0
 17 25  1  0  0  0
 17 48  1  0  0  0
 18 19  1  0  0  0
 18 49  1  0  0  0
 18 50  1  0  0  0
 19 20  1  0  0  0
 19 51  1  0  0  0
 19 52  1  0  0  0
 20 21  1  0  0  0
 20 24  1  0  0  0
 21 22  1  0  0  0
 22 23  1  0  0  0
 22 53  1  0  0  0
 22 54  1  0  0  0
 23 24  2  0  0  0
 23 55  1  0  0  0
 24 56  1  0  0  0
 25 57  1  0  0  0
M  END
> <s_m_entry_id>
9597

> <s_m_entry_name>
dock_pv.37

> <s_m_Source_Path>
/home/csk/Desktop/cluster/DUD-E-result/mcr

> <s_m_Source_File>
dock_pv.maegz

> <i_m_Source_File_Index>
37

> <chembl_id>
CHEMBL3692348

> <chembl_pref_name>
None

> <i_lp_mmshare_version>
53161

> <i_f3d_flags>
0

> <r_lp_tautomer_probability>
1

> <s_lp_Force_Field>
OPLS_2005

> <r_lp_Energy>
64.299963

> <b_lp_Chiralities_Consistent>
1

> <s_lp_Variant>
CHEMBL1994_lig839-1

> <s_i_glide_gridfile>
glide-grid_2aa2

> <i_i_glide_lignum>
1270

> <i_i_glide_rotatable_bonds>
1

> <r_i_docking_score>
-9.1438535078743

> <r_i_glide_ligand_efficiency>
-0.365754140314972

> <r_i_glide_ligand_efficiency_sa>
-1.06947159295828

> <r_i_glide_ligand_efficiency_ln>
-2.16736730054385

> <r_i_glide_gscore>
-9.1438535078743

> <r_i_glide_lipo>
-5.07679211476514

> <r_i_glide_hbond>
-0.0240933298791699

> <r_i_glide_metal>
0

> <r_i_glide_rewards>
-2.43750695454545

> <r_i_glide_evdw>
-24.4598617553711

> <r_i_glide_ecoul>
-2.54978680610657

> <r_i_glide_erotb>
0

> <r_i_glide_esite>
0

> <r_i_glide_emodel>
-34.6144591550479

> <r_i_glide_energy>
-27.0096485614777

> <r_i_glide_einternal>
9.5599193572998

> <i_i_glide_confnum>
1

> <i_i_glide_posenum>
66

> <r_i_glide_eff_state_penalty>
0

> <s_user_duplicate_titles>
CHEMBL1994_lig839

> <s_m_subgroup_title>
dock_pv

> <s_m_subgroupid>
dock_pv

> <b_m_subgroup_collapsed>
1

$$$$
CHEMBL1994_lig20
                    3D
 Schrodinger Suite 2021-1.
 39 41  0  0  1  0            999 V2000
   19.3860   71.1168   18.8883 C   0  0  0  0  0  0
   20.6157   71.0391   18.1898 C   0  0  0  0  0  0
   18.2977   69.8485   18.4187 S   0  0  0  0  0  0
   19.3148   73.9325   21.3909 C   0  0  0  0  0  0
   20.2599   74.7921   22.0924 C   0  0  0  0  0  0
   17.4617   75.0429   22.5148 N   0  0  0  0  0  0
   17.9400   74.0796   21.6144 C   0  0  0  0  0  0
   19.3880   69.3494   17.2226 C   0  0  0  0  0  0
   18.8682   72.0872   19.8928 C   0  0  0  0  0  0
   20.5762   70.0271   17.2381 C   0  0  0  0  0  0
   19.7613   72.9365   20.5340 C   0  0  0  0  0  0
   19.8036   75.4680   23.1483 C   0  0  0  0  0  0
   18.3306   75.5781   23.5736 C   0  0  0  0  0  0
   18.6410   67.4620   15.6700 N   0  0  0  0  0  0
   18.9775   68.3005   16.3618 C   0  0  0  0  0  0
   17.0410   73.1927   21.0482 C   0  0  0  0  0  0
   17.5009   72.2033   20.1930 C   0  0  0  0  0  0
   21.8480   71.8975   18.3342 C   0  0  0  0  0  0
   21.7301   74.8049   21.6965 C   0  0  0  0  0  0
   17.9666   77.0620   23.6555 C   0  0  0  0  0  0
   18.0761   74.7273   24.8309 C   0  0  0  0  0  0
   16.4848   75.0176   22.7689 H   0  0  0  0  0  0
   21.3922   69.8109   16.5635 H   0  0  0  0  0  0
   20.8161   72.8249   20.3906 H   0  0  0  0  0  0
   20.5430   76.0238   23.6888 H   0  0  0  0  0  0
   15.9862   73.2692   21.2700 H   0  0  0  0  0  0
   16.7606   71.5513   19.7549 H   0  0  0  0  0  0
   21.6442   72.9497   18.1341 H   0  0  0  0  0  0
   22.6410   71.5574   17.6701 H   0  0  0  0  0  0
   22.2835   71.8467   19.3241 H   0  0  0  0  0  0
   22.2298   73.8843   21.9975 H   0  0  0  0  0  0
   21.8410   74.9371   20.6198 H   0  0  0  0  0  0
   22.2410   75.6403   22.1715 H   0  0  0  0  0  0
   18.7623   77.6674   24.0754 H   0  0  0  0  0  0
   17.8410   77.4620   22.6582 H   0  0  0  0  0  0
   17.0411   77.2386   24.2055 H   0  0  0  0  0  0
   18.6410   75.0637   25.6964 H   0  0  0  0  0  0
   17.0282   74.7754   25.1198 H   0  0  0  0  0  0
   18.3121   73.6757   24.6625 H   0  0  0  0  0  0
  1  2  2  0  0  0
  1  3  1  0  0  0
  1  9  1  0  0  0
  2 10  1  0  0  0
  2 18  1  0  0  0
  3  8  1  0  0  0
  4 11  2  0  0  0
  4  5  1  0  0  0
  4  7  1  0  0  0
  5 12  2  0  0  0
  5 19  1  0  0  0
  6  7  1  0  0  0
  6 13  1  0  0  0
  6 22  1  0  0  0
  7 16  2  0  0  0
  8 15  1  0  0  0
  8 10  2  0  0  0
  9 11  1  0  0  0
  9 17  2  0  0  0
 10 23  1  0  0  0
 11 24  1  0  0  0
 12 13  1  0  0  0
 12 25  1  0  0  0
 13 20  1  0  0  0
 13 21  1  0  0  0
 14 15  3  0  0  0
 16 17  1  0  0  0
 16 26  1  0  0  0
 17 27  1  0  0  0
 18 28  1  0  0  0
 18 29  1  0  0  0
 18 30  1  0  0  0
 19 31  1  0  0  0
 19 32  1  0  0  0
 19 33  1  0  0  0
 20 34  1  0  0  0
 20 35  1  0  0  0
 20 36  1  0  0  0
 21 37  1  0  0  0
 21 38  1  0  0  0
 21 39  1  0  0  0
M  END
> <s_m_entry_id>
9598

> <s_m_entry_name>
dock_pv.38

> <s_m_Source_Path>
/home/csk/Desktop/cluster/DUD-E-result/mcr

> <s_m_Source_File>
dock_pv.maegz

> <i_m_Source_File_Index>
38

> <chembl_id>
CHEMBL131855

> <chembl_pref_name>
None

> <i_lp_mmshare_version>
53161

> <i_f3d_flags>
0

> <r_lp_tautomer_probability>
1

> <s_lp_Force_Field>
OPLS_2005

> <r_lp_Energy>
13.768157

> <b_lp_Chiralities_Consistent>
1

> <s_lp_Variant>
CHEMBL1994_lig20-1

> <s_i_glide_gridfile>
glide-grid_2aa2

> <i_i_glide_lignum>
21

> <i_i_glide_rotatable_bonds>
1

> <r_i_docking_score>
-9.14126699794922

> <r_i_glide_ligand_efficiency>
-0.435298428473772

> <r_i_glide_ligand_efficiency_sa>
-1.20095535703822

> <r_i_glide_ligand_efficiency_ln>
-2.26015979357371

> <r_i_glide_gscore>
-9.14126699794922

> <r_i_glide_lipo>
-4.40314800431852

> <r_i_glide_hbond>
-0.326691379708936

> <r_i_glide_metal>
0

> <r_i_glide_rewards>
-2.52273110759603

> <r_i_glide_evdw>
-32.6393127441406

> <r_i_glide_ecoul>
-3.11811017990112

> <r_i_glide_erotb>
0.210985657866464

> <r_i_glide_esite>
0

> <r_i_glide_emodel>
-43.3790240507494

> <r_i_glide_energy>
-35.7574229240417

> <r_i_glide_einternal>
2.08943629264832

> <i_i_glide_confnum>
3

> <i_i_glide_posenum>
207

> <r_i_glide_eff_state_penalty>
0

> <s_user_duplicate_titles>
CHEMBL1994_lig20

> <s_m_subgroup_title>
dock_pv

> <s_m_subgroupid>
dock_pv

> <b_m_subgroup_collapsed>
1

$$$$
CHEMBL1994_lig847
                    3D
 Schrodinger Suite 2021-1.
 44 47  0  0  1  0            999 V2000
   18.6398   70.6624   21.3833 N   0  0  0  0  0  0
   19.3329   69.8028   20.6374 C   0  0  0  0  0  0
   18.9627   68.6542   20.4682 O   0  0  0  0  0  0
   20.6410   70.2804   20.0164 C   0  0  0  0  0  0
   20.6520   71.0694   18.6816 C   0  0  1  0  0  0
   21.1707   70.3108   17.4270 C   0  0  0  0  0  0
   20.2922   69.3273   16.8701 O   0  0  0  0  0  0
   18.9458   69.5674   17.0259 C   0  0  0  0  0  0
   18.0866   68.5832   16.5608 C   0  0  0  0  0  0
   16.7306   68.6620   16.8707 C   0  0  0  0  0  0
   16.2410   69.6848   17.6700 C   0  0  0  0  0  0
   17.0894   70.6970   18.0747 C   0  0  0  0  0  0
   18.4447   70.6822   17.7098 C   0  0  0  0  0  0
   19.3566   71.5938   18.2668 N   0  0  0  0  0  0
   19.0263   72.8968   18.4143 C   0  0  0  0  0  0
   18.2410   73.4624   17.6700 O   0  0  0  0  0  0
   19.3091   73.5695   19.7130 C   0  0  0  0  0  0
   20.5972   73.8824   20.1732 C   0  0  0  0  0  0
   20.7559   74.5713   21.3745 C   0  0  0  0  0  0
   19.6224   74.9543   22.0840 C   0  0  0  0  0  0
   19.7877   75.6122   23.2700 O   0  0  0  0  0  0
   18.6443   76.3237   23.8049 C   0  0  0  0  0  0
   17.2384   75.8902   23.3739 C   0  0  0  0  0  0
   16.2270   76.2619   23.9465 O   0  0  0  0  0  0
   17.2382   75.0636   22.3287 N   0  0  0  0  0  0
   18.3464   74.6477   21.6267 C   0  0  0  0  0  0
   18.1882   73.9541   20.4489 C   0  0  0  0  0  0
   18.9470   71.6165   21.4993 H   0  0  0  0  0  0
   17.7762   70.3581   21.8051 H   0  0  0  0  0  0
   21.3572   69.4620   19.9920 H   0  0  0  0  0  0
   21.0396   70.9711   20.7485 H   0  0  0  0  0  0
   21.3834   71.8638   18.7916 H   0  0  0  0  0  0
   22.1386   69.8618   17.6461 H   0  0  0  0  0  0
   21.3592   71.0363   16.6332 H   0  0  0  0  0  0
   18.4825   67.7276   16.0370 H   0  0  0  0  0  0
   16.0666   67.8723   16.5640 H   0  0  0  0  0  0
   15.2122   69.6906   17.9984 H   0  0  0  0  0  0
   16.6922   71.4623   18.7212 H   0  0  0  0  0  0
   21.4787   73.6590   19.5991 H   0  0  0  0  0  0
   21.7407   74.8239   21.7418 H   0  0  0  0  0  0
   18.6410   76.1641   24.8699 H   0  0  0  0  0  0
   18.7325   77.4007   23.6699 H   0  0  0  0  0  0
   16.3169   74.7698   22.0398 H   0  0  0  0  0  0
   17.1887   73.7388   20.0944 H   0  0  0  0  0  0
  1  2  1  0  0  0
  1 28  1  0  0  0
  1 29  1  0  0  0
  2  3  2  0  0  0
  2  4  1  0  0  0
  4  5  1  0  0  0
  4 30  1  0  0  0
  4 31  1  0  0  0
  5  6  1  0  0  0
  5 14  1  0  0  0
  5 32  1  0  0  0
  6  7  1  0  0  0
  6 33  1  0  0  0
  6 34  1  0  0  0
  7  8  1  0  0  0
  8  9  2  0  0  0
  8 13  1  0  0  0
  9 10  1  0  0  0
  9 35  1  0  0  0
 10 11  2  0  0  0
 10 36  1  0  0  0
 11 12  1  0  0  0
 11 37  1  0  0  0
 12 13  2  0  0  0
 12 38  1  0  0  0
 13 14  1  0  0  0
 14 15  1  0  0  0
 15 16  2  0  0  0
 15 17  1  0  0  0
 17 18  2  0  0  0
 17 27  1  0  0  0
 18 19  1  0  0  0
 18 39  1  0  0  0
 19 20  2  0  0  0
 19 40  1  0  0  0
 20 21  1  0  0  0
 20 26  1  0  0  0
 21 22  1  0  0  0
 22 23  1  0  0  0
 22 41  1  0  0  0
 22 42  1  0  0  0
 23 24  2  0  0  0
 23 25  1  0  0  0
 25 26  1  0  0  0
 25 43  1  0  0  0
 26 27  2  0  0  0
 27 44  1  0  0  0
M  END
> <s_m_entry_id>
9599

> <s_m_entry_name>
dock_pv.39

> <s_m_Source_Path>
/home/csk/Desktop/cluster/DUD-E-result/mcr

> <s_m_Source_File>
dock_pv.maegz

> <i_m_Source_File_Index>
39

> <chembl_id>
CHEMBL3981405

> <chembl_pref_name>
None

> <i_lp_mmshare_version>
53161

> <i_f3d_flags>
0

> <r_lp_tautomer_probability>
1

> <s_lp_Force_Field>
OPLS_2005

> <r_lp_Energy>
43.813265

> <b_lp_Chiralities_Consistent>
1

> <s_lp_Variant>
CHEMBL1994_lig847-2

> <s_i_glide_gridfile>
glide-grid_2aa2

> <i_i_glide_lignum>
1279

> <i_i_glide_rotatable_bonds>
4

> <r_i_docking_score>
-9.13074870478131

> <r_i_glide_ligand_efficiency>
-0.338175877954863

> <r_i_glide_ligand_efficiency_sa>
-1.01452763275002

> <r_i_glide_ligand_efficiency_ln>
-2.12548776631596

> <r_i_glide_gscore>
-9.13074870478131

> <r_i_glide_lipo>
-3.96819975355498

> <r_i_glide_hbond>
-0.267896320166061

> <r_i_glide_metal>
0

> <r_i_glide_rewards>
-2.78661870488793

> <r_i_glide_evdw>
-41.6369438171387

> <r_i_glide_ecoul>
-3.02863383293152

> <r_i_glide_erotb>
0.428108339624325

> <r_i_glide_esite>
0

> <r_i_glide_emodel>
-52.6023546253489

> <r_i_glide_energy>
-44.6655776500702

> <r_i_glide_einternal>
19.1053104400635

> <i_i_glide_confnum>
44

> <i_i_glide_posenum>
274

> <r_i_glide_eff_state_penalty>
0

> <s_user_duplicate_titles>
CHEMBL1994_lig847

> <s_m_subgroup_title>
dock_pv

> <s_m_subgroupid>
dock_pv

> <b_m_subgroup_collapsed>
1

$$$$
CHEMBL1994_lig57
                    3D
 Schrodinger Suite 2021-1.
 40 43  0  0  1  0            999 V2000
   19.7053   72.7841   19.9478 C   0  0  0  0  0  0
   19.3766   73.7748   20.9228 C   0  0  0  0  0  0
   20.3298   74.7185   21.5978 C   0  0  0  0  0  0
   18.7043   71.8716   19.5426 C   0  0  0  0  0  0
   18.0276   73.8762   21.3332 C   0  0  0  0  0  0
   17.5932   74.8498   22.2472 N   0  0  0  0  0  0
   18.9818   70.8742   18.4814 C   0  0  0  0  0  0
   19.9284   75.3451   22.7192 C   0  0  0  0  0  0
   18.5073   75.3298   23.2835 C   0  0  0  0  0  0
   21.3579   71.3637   18.6685 O   0  0  0  0  0  0
   21.0892   72.6181   19.2963 C   0  0  0  0  0  0
   20.3042   70.7349   18.0585 C   0  0  0  0  0  0
   17.4403   71.9180   20.1117 C   0  0  0  0  0  0
   17.0851   72.9421   20.9553 C   0  0  0  0  0  0
   17.9878   70.0889   17.8645 C   0  0  0  0  0  0
   20.6343   69.8579   17.0403 C   0  0  0  0  0  0
   18.3224   69.1751   16.8711 C   0  0  0  0  0  0
   21.7791   74.8936   21.1700 C   0  0  0  0  0  0
   19.6426   69.0621   16.4691 C   0  0  0  0  0  0
   17.3708   68.4157   16.2817 F   0  0  0  0  0  0
   18.4232   74.3352   24.4477 C   0  0  0  0  0  0
   18.0757   76.7657   23.6111 C   0  0  0  0  0  0
   16.6391   74.7979   22.5756 H   0  0  0  0  0  0
   20.6844   75.8619   23.2850 H   0  0  0  0  0  0
   21.2381   73.4001   18.5508 H   0  0  0  0  0  0
   21.8815   72.6786   20.0287 H   0  0  0  0  0  0
   16.6660   71.2109   19.8637 H   0  0  0  0  0  0
   16.0671   72.9993   21.3105 H   0  0  0  0  0  0
   16.9460   70.1638   18.1293 H   0  0  0  0  0  0
   21.6637   69.7589   16.7446 H   0  0  0  0  0  0
   21.8498   75.0468   20.0952 H   0  0  0  0  0  0
   22.3919   74.0561   21.4992 H   0  0  0  0  0  0
   22.2251   75.7763   21.6319 H   0  0  0  0  0  0
   19.8751   68.3418   15.7042 H   0  0  0  0  0  0
   19.0409   74.6619   25.2717 H   0  0  0  0  0  0
   17.4187   74.2651   24.8559 H   0  0  0  0  0  0
   18.7329   73.3301   24.1556 H   0  0  0  0  0  0
   18.8705   77.3153   24.1100 H   0  0  0  0  0  0
   17.8429   77.3330   22.7167 H   0  0  0  0  0  0
   17.1876   76.7878   24.2443 H   0  0  0  0  0  0
  1  2  1  0  0  0
  1  4  2  0  0  0
  1 11  1  0  0  0
  2  3  1  0  0  0
  2  5  2  0  0  0
  3  8  2  0  0  0
  3 18  1  0  0  0
  4  7  1  0  0  0
  4 13  1  0  0  0
  5  6  1  0  0  0
  5 14  1  0  0  0
  6  9  1  0  0  0
  6 23  1  0  0  0
  7 15  2  0  0  0
  7 12  1  0  0  0
  8  9  1  0  0  0
  8 24  1  0  0  0
  9 21  1  0  0  0
  9 22  1  0  0  0
 10 11  1  0  0  0
 10 12  1  0  0  0
 11 25  1  0  0  0
 11 26  1  0  0  0
 12 16  2  0  0  0
 13 14  2  0  0  0
 13 27  1  0  0  0
 14 28  1  0  0  0
 15 17  1  0  0  0
 15 29  1  0  0  0
 16 19  1  0  0  0
 16 30  1  0  0  0
 17 20  1  0  0  0
 17 19  2  0  0  0
 18 31  1  0  0  0
 18 32  1  0  0  0
 18 33  1  0  0  0
 19 34  1  0  0  0
 21 35  1  0  0  0
 21 36  1  0  0  0
 21 37  1  0  0  0
 22 38  1  0  0  0
 22 39  1  0  0  0
 22 40  1  0  0  0
M  END
> <s_m_entry_id>
9600

> <s_m_entry_name>
dock_pv.40

> <s_m_Source_Path>
/home/csk/Desktop/cluster/DUD-E-result/mcr

> <s_m_Source_File>
dock_pv.maegz

> <i_m_Source_File_Index>
40

> <chembl_id>
CHEMBL65079

> <chembl_pref_name>
None

> <i_lp_mmshare_version>
53161

> <i_f3d_flags>
0

> <r_lp_tautomer_probability>
1

> <s_lp_Force_Field>
OPLS_2005

> <r_lp_Energy>
29.494254

> <b_lp_Chiralities_Consistent>
1

> <s_lp_Variant>
CHEMBL1994_lig57-1

> <s_i_glide_gridfile>
glide-grid_2aa2

> <i_i_glide_lignum>
76

> <i_i_glide_rotatable_bonds>
0

> <r_i_docking_score>
-9.12159499466351

> <r_i_glide_ligand_efficiency>
-0.414617954302887

> <r_i_glide_ligand_efficiency_sa>
-1.16177581395553

> <r_i_glide_ligand_efficiency_ln>
-2.22965053495733

> <r_i_glide_gscore>
-9.12159499466351

> <r_i_glide_lipo>
-4.6482256206559

> <r_i_glide_hbond>
-0.0995409302125448

> <r_i_glide_metal>
0

> <r_i_glide_rewards>
-2.27136997672175

> <r_i_glide_evdw>
-36.6004447937012

> <r_i_glide_ecoul>
-1.74836683273315

> <r_i_glide_erotb>
0

> <r_i_glide_esite>
-0.0101812024782792

> <r_i_glide_emodel>
-44.4155876099138

> <r_i_glide_energy>
-38.3488116264343

> <r_i_glide_einternal>
0

> <i_i_glide_confnum>
1

> <i_i_glide_posenum>
286

> <r_i_glide_eff_state_penalty>
0

> <s_user_duplicate_titles>
CHEMBL1994_lig57

> <s_m_subgroup_title>
dock_pv

> <s_m_subgroupid>
dock_pv

> <b_m_subgroup_collapsed>
1

$$$$
CHEMBL1994_lig9
                    3D
 Schrodinger Suite 2021-1.
 39 41  0  0  1  0            999 V2000
   19.3030   73.8500   21.5214 C   0  0  0  0  0  0
   20.2385   74.7571   22.1826 C   0  0  0  0  0  0
   17.4410   75.0232   22.5221 N   0  0  0  0  0  0
   17.9252   74.0121   21.6776 C   0  0  0  0  0  0
   19.7609   75.4894   23.1876 C   0  0  0  0  0  0
   19.7675   72.8110   20.7419 C   0  0  0  0  0  0
   18.2839   75.5975   23.5839 C   0  0  0  0  0  0
   19.4691   71.0831   18.9808 C   0  0  0  0  0  0
   18.9039   71.9804   20.0233 C   0  0  0  0  0  0
   17.8410   67.9198   15.6700 N   0  0  0  0  0  0
   18.4538   68.6030   16.3576 C   0  0  0  0  0  0
   18.6811   70.1763   18.2542 C   0  0  0  0  0  0
   19.2405   69.4640   17.1924 C   0  0  0  0  0  0
   20.8198   71.2093   18.6210 C   0  0  0  0  0  0
   17.0415   73.1096   21.0955 C   0  0  0  0  0  0
   21.3589   70.4815   17.5933 C   0  0  0  0  0  0
   17.5270   72.1044   20.2618 C   0  0  0  0  0  0
   20.5793   69.6111   16.8698 C   0  0  0  0  0  0
   22.6408   70.6620   17.2831 F   0  0  0  0  0  0
   21.7126   74.7786   21.7875 C   0  0  0  0  0  0
   17.9082   77.0797   23.6155 C   0  0  0  0  0  0
   18.0303   74.7846   24.8658 C   0  0  0  0  0  0
   16.4579   75.0159   22.7520 H   0  0  0  0  0  0
   20.4793   76.0942   23.7050 H   0  0  0  0  0  0
   20.8323   72.6907   20.6941 H   0  0  0  0  0  0
   17.6322   70.0477   18.4762 H   0  0  0  0  0  0
   21.5118   71.8968   19.0721 H   0  0  0  0  0  0
   15.9794   73.2037   21.2688 H   0  0  0  0  0  0
   16.8066   71.4624   19.7791 H   0  0  0  0  0  0
   21.0305   69.0652   16.0550 H   0  0  0  0  0  0
   22.2229   73.8621   22.0768 H   0  0  0  0  0  0
   21.8140   74.9099   20.7099 H   0  0  0  0  0  0
   22.2382   75.6115   22.2549 H   0  0  0  0  0  0
   18.6724   77.6998   24.0700 H   0  0  0  0  0  0
   17.8410   77.4618   22.6051 H   0  0  0  0  0  0
   16.9541   77.2622   24.1106 H   0  0  0  0  0  0
   18.6309   75.1258   25.7069 H   0  0  0  0  0  0
   16.9894   74.8678   25.1719 H   0  0  0  0  0  0
   18.2408   73.7236   24.7215 H   0  0  0  0  0  0
  1  2  1  0  0  0
  1  4  1  0  0  0
  1  6  2  0  0  0
  2  5  2  0  0  0
  2 20  1  0  0  0
  3  4  1  0  0  0
  3  7  1  0  0  0
  3 23  1  0  0  0
  4 15  2  0  0  0
  5  7  1  0  0  0
  5 24  1  0  0  0
  6  9  1  0  0  0
  6 25  1  0  0  0
  7 21  1  0  0  0
  7 22  1  0  0  0
  8  9  1  0  0  0
  8 12  2  0  0  0
  8 14  1  0  0  0
  9 17  2  0  0  0
 10 11  3  0  0  0
 11 13  1  0  0  0
 12 13  1  0  0  0
 12 26  1  0  0  0
 13 18  2  0  0  0
 14 16  2  0  0  0
 14 27  1  0  0  0
 15 17  1  0  0  0
 15 28  1  0  0  0
 16 18  1  0  0  0
 16 19  1  0  0  0
 17 29  1  0  0  0
 18 30  1  0  0  0
 20 31  1  0  0  0
 20 32  1  0  0  0
 20 33  1  0  0  0
 21 34  1  0  0  0
 21 35  1  0  0  0
 21 36  1  0  0  0
 22 37  1  0  0  0
 22 38  1  0  0  0
 22 39  1  0  0  0
M  END
> <s_m_entry_id>
9601

> <s_m_entry_name>
dock_pv.41

> <s_m_Source_Path>
/home/csk/Desktop/cluster/DUD-E-result/mcr

> <s_m_Source_File>
dock_pv.maegz

> <i_m_Source_File_Index>
41

> <chembl_id>
CHEMBL117465

> <chembl_pref_name>
None

> <i_lp_mmshare_version>
53161

> <i_f3d_flags>
0

> <r_lp_tautomer_probability>
1

> <s_lp_Force_Field>
OPLS_2005

> <r_lp_Energy>
15.143139

> <b_lp_Chiralities_Consistent>
1

> <s_lp_Variant>
CHEMBL1994_lig9-1

> <s_i_glide_gridfile>
glide-grid_2aa2

> <i_i_glide_lignum>
9

> <i_i_glide_rotatable_bonds>
1

> <r_i_docking_score>
-9.11417362417481

> <r_i_glide_ligand_efficiency>
-0.414280619280673

> <r_i_glide_ligand_efficiency_sa>
-1.16083058795666

> <r_i_glide_ligand_efficiency_ln>
-2.22783648130882

> <r_i_glide_gscore>
-9.11417362417481

> <r_i_glide_lipo>
-4.48124117655388

> <r_i_glide_hbond>
-0.396686297109984

> <r_i_glide_metal>
0

> <r_i_glide_rewards>
-2.64875039508047

> <r_i_glide_evdw>
-22.5648498535156

> <r_i_glide_ecoul>
-4.48564863204956

> <r_i_glide_erotb>
0.21359403205275

> <r_i_glide_esite>
0

> <r_i_glide_emodel>
-36.8098008527779

> <r_i_glide_energy>
-27.0504984855652

> <r_i_glide_einternal>
1.21813523769379

> <i_i_glide_confnum>
2

> <i_i_glide_posenum>
15

> <r_i_glide_eff_state_penalty>
0

> <s_user_duplicate_titles>
CHEMBL1994_lig9

> <s_m_subgroup_title>
dock_pv

> <s_m_subgroupid>
dock_pv

> <b_m_subgroup_collapsed>
1

$$$$
CHEMBL1994_lig415
                    3D
 Schrodinger Suite 2021-1.
 29 32  0  0  1  0            999 V2000
   18.3857   73.4484   20.4684 C   0  0  0  0  0  0
   19.5498   72.8189   19.9779 C   0  0  0  0  0  0
   20.7977   73.2822   20.4383 C   0  0  0  0  0  0
   20.8838   74.3003   21.3849 C   0  0  0  0  0  0
   18.4687   74.4634   21.4116 C   0  0  0  0  0  0
   19.7145   74.8593   21.8803 C   0  0  0  0  0  0
   19.8088   75.8619   22.8069 O   0  0  0  0  0  0
   18.6683   76.0681   23.6706 C   0  0  0  0  0  0
   17.2803   75.8263   23.0415 C   0  0  0  0  0  0
   17.3309   75.0628   21.9370 N   0  0  0  0  0  0
   16.2410   76.2623   23.5183 O   0  0  0  0  0  0
   19.4240   71.6758   19.0368 C   0  0  0  0  0  0
   20.6861   70.8307   18.6747 C   0  0  0  0  0  0
   20.6408   70.1248   16.9761 S   0  0  0  0  0  0
   18.2538   71.3661   18.6085 N   0  0  0  0  0  0
   18.0841   70.2508   17.8577 N   0  0  0  0  0  0
   18.9641   69.6242   17.0152 C   0  0  0  0  0  0
   18.3767   68.6620   16.3506 N   0  0  0  0  0  0
   17.0409   68.6620   16.7505 N   0  0  0  0  0  0
   16.9083   69.5800   17.6696 C   0  0  0  0  0  0
   17.4024   73.1364   20.1483 H   0  0  0  0  0  0
   21.7337   72.8646   20.1076 H   0  0  0  0  0  0
   21.8452   74.6395   21.7441 H   0  0  0  0  0  0
   18.7185   75.3652   24.5010 H   0  0  0  0  0  0
   18.6826   77.0813   24.0699 H   0  0  0  0  0  0
   16.4242   74.8402   21.5553 H   0  0  0  0  0  0
   21.5990   71.4185   18.6825 H   0  0  0  0  0  0
   20.8061   70.0101   19.3828 H   0  0  0  0  0  0
   16.0117   69.8737   18.1971 H   0  0  0  0  0  0
  1  2  2  0  0  0
  1  5  1  0  0  0
  1 21  1  0  0  0
  2  3  1  0  0  0
  2 12  1  0  0  0
  3  4  2  0  0  0
  3 22  1  0  0  0
  4  6  1  0  0  0
  4 23  1  0  0  0
  5  6  2  0  0  0
  5 10  1  0  0  0
  6  7  1  0  0  0
  7  8  1  0  0  0
  8  9  1  0  0  0
  8 24  1  0  0  0
  8 25  1  0  0  0
  9 10  1  0  0  0
  9 11  2  0  0  0
 10 26  1  0  0  0
 12 13  1  0  0  0
 12 15  2  0  0  0
 13 14  1  0  0  0
 13 27  1  0  0  0
 13 28  1  0  0  0
 14 17  1  0  0  0
 15 16  1  0  0  0
 16 17  1  0  0  0
 16 20  1  0  0  0
 17 18  2  0  0  0
 18 19  1  0  0  0
 19 20  2  0  0  0
 20 29  1  0  0  0
M  END
> <s_m_entry_id>
9602

> <s_m_entry_name>
dock_pv.42

> <s_m_Source_Path>
/home/csk/Desktop/cluster/DUD-E-result/mcr

> <s_m_Source_File>
dock_pv.maegz

> <i_m_Source_File_Index>
42

> <chembl_id>
CHEMBL1928869

> <chembl_pref_name>
None

> <i_lp_mmshare_version>
53161

> <i_f3d_flags>
0

> <r_lp_tautomer_probability>
1

> <s_lp_Force_Field>
OPLS_2005

> <r_lp_Energy>
26.837234

> <b_lp_Chiralities_Consistent>
1

> <s_lp_Variant>
CHEMBL1994_lig415-1

> <s_i_glide_gridfile>
glide-grid_2aa2

> <i_i_glide_lignum>
687

> <i_i_glide_rotatable_bonds>
1

> <r_i_docking_score>
-9.08743798282626

> <r_i_glide_ligand_efficiency>
-0.454371899141313

> <r_i_glide_ligand_efficiency_sa>
-1.23335508628326

> <r_i_glide_ligand_efficiency_ln>
-2.27428600333712

> <r_i_glide_gscore>
-9.08743798282626

> <r_i_glide_lipo>
-2.4363467242455

> <r_i_glide_hbond>
-0.140951615174185

> <r_i_glide_metal>
0

> <r_i_glide_rewards>
-3.89975658319401

> <r_i_glide_evdw>
-44.1460266113281

> <r_i_glide_ecoul>
-4.15511178970337

> <r_i_glide_erotb>
0.220185038809351

> <r_i_glide_esite>
0

> <r_i_glide_emodel>
-72.6856512648173

> <r_i_glide_energy>
-48.3011384010315

> <r_i_glide_einternal>
1.33544743061066

> <i_i_glide_confnum>
2

> <i_i_glide_posenum>
340

> <r_i_glide_eff_state_penalty>
0

> <s_user_duplicate_titles>
CHEMBL1994_lig415

> <s_m_subgroup_title>
dock_pv

> <s_m_subgroupid>
dock_pv

> <b_m_subgroup_collapsed>
1

$$$$
CHEMBL1994_lig10
                    3D
 Schrodinger Suite 2021-1.
 36 38  0  0  1  0            999 V2000
   19.3365   73.9425   21.3167 C   0  0  0  0  0  0
   20.2546   74.8094   22.0484 C   0  0  0  0  0  0
   17.4423   74.9593   22.4664 N   0  0  0  0  0  0
   19.4934   71.2537   18.7109 C   0  0  0  0  0  0
   17.9556   74.0255   21.5493 C   0  0  0  0  0  0
   19.7717   75.4622   23.1072 C   0  0  0  0  0  0
   19.8179   73.0015   20.4163 C   0  0  0  0  0  0
   18.8042   70.1690   18.1659 C   0  0  0  0  0  0
   18.2937   75.5424   23.5167 C   0  0  0  0  0  0
   20.7408   71.4125   18.1046 C   0  0  0  0  0  0
   21.0408   70.2619   16.8704 S   0  0  0  0  0  0
   19.4881   69.5620   17.1402 C   0  0  0  0  0  0
   18.9470   72.1404   19.7571 C   0  0  0  0  0  0
   18.6410   67.6172   15.6702 N   0  0  0  0  0  0
   19.0215   68.4789   16.3255 C   0  0  0  0  0  0
   17.0912   73.1087   20.9645 C   0  0  0  0  0  0
   17.5846   72.1648   20.0703 C   0  0  0  0  0  0
   21.7312   74.8572   21.6738 C   0  0  0  0  0  0
   17.9000   77.0242   23.5805 C   0  0  0  0  0  0
   18.0628   74.7074   24.7878 C   0  0  0  0  0  0
   16.4671   74.8994   22.7236 H   0  0  0  0  0  0
   20.4917   76.0214   23.6705 H   0  0  0  0  0  0
   20.8780   72.9378   20.2289 H   0  0  0  0  0  0
   17.8202   69.8520   18.4803 H   0  0  0  0  0  0
   21.4917   72.1638   18.2996 H   0  0  0  0  0  0
   16.0371   73.1328   21.2007 H   0  0  0  0  0  0
   16.8869   71.4861   19.6035 H   0  0  0  0  0  0
   21.8517   75.0595   20.6091 H   0  0  0  0  0  0
   22.2404   75.6590   22.2066 H   0  0  0  0  0  0
   22.2308   73.9204   21.9202 H   0  0  0  0  0  0
   18.6518   77.6327   24.0700 H   0  0  0  0  0  0
   17.8412   77.4417   22.5826 H   0  0  0  0  0  0
   16.9397   77.1820   24.0727 H   0  0  0  0  0  0
   18.6410   75.0624   25.6364 H   0  0  0  0  0  0
   17.0195   74.7507   25.0928 H   0  0  0  0  0  0
   18.3075   73.6557   24.6322 H   0  0  0  0  0  0
  1  2  1  0  0  0
  1  5  1  0  0  0
  1  7  2  0  0  0
  2  6  2  0  0  0
  2 18  1  0  0  0
  3  5  1  0  0  0
  3  9  1  0  0  0
  3 21  1  0  0  0
  4 13  1  0  0  0
  4  8  1  0  0  0
  4 10  2  0  0  0
  5 16  2  0  0  0
  6  9  1  0  0  0
  6 22  1  0  0  0
  7 13  1  0  0  0
  7 23  1  0  0  0
  8 12  2  0  0  0
  8 24  1  0  0  0
  9 19  1  0  0  0
  9 20  1  0  0  0
 10 11  1  0  0  0
 10 25  1  0  0  0
 11 12  1  0  0  0
 12 15  1  0  0  0
 13 17  2  0  0  0
 14 15  3  0  0  0
 16 17  1  0  0  0
 16 26  1  0  0  0
 17 27  1  0  0  0
 18 28  1  0  0  0
 18 29  1  0  0  0
 18 30  1  0  0  0
 19 31  1  0  0  0
 19 32  1  0  0  0
 19 33  1  0  0  0
 20 34  1  0  0  0
 20 35  1  0  0  0
 20 36  1  0  0  0
M  END
> <s_m_entry_id>
9603

> <s_m_entry_name>
dock_pv.43

> <s_m_Source_Path>
/home/csk/Desktop/cluster/DUD-E-result/mcr

> <s_m_Source_File>
dock_pv.maegz

> <i_m_Source_File_Index>
43

> <chembl_id>
CHEMBL335992

> <chembl_pref_name>
None

> <i_lp_mmshare_version>
53161

> <i_f3d_flags>
0

> <r_lp_tautomer_probability>
1

> <s_lp_Force_Field>
OPLS_2005

> <r_lp_Energy>
19.219249

> <b_lp_Chiralities_Consistent>
1

> <s_lp_Variant>
CHEMBL1994_lig10-1

> <s_i_glide_gridfile>
glide-grid_2aa2

> <i_i_glide_lignum>
10

> <i_i_glide_rotatable_bonds>
1

> <r_i_docking_score>
-9.07364103495494

> <r_i_glide_ligand_efficiency>
-0.453682051747747

> <r_i_glide_ligand_efficiency_sa>
-1.23148255236728

> <r_i_glide_ligand_efficiency_ln>
-2.27083308233873

> <r_i_glide_gscore>
-9.07364103495494

> <r_i_glide_lipo>
-4.29240656613078

> <r_i_glide_hbond>
-0.319806862218018

> <r_i_glide_metal>
0

> <r_i_glide_rewards>
-2.6591103295221

> <r_i_glide_evdw>
-30.7860279083252

> <r_i_glide_ecoul>
-3.28483581542969

> <r_i_glide_erotb>
0.229709490646681

> <r_i_glide_esite>
0

> <r_i_glide_emodel>
-46.1119177081567

> <r_i_glide_energy>
-34.0708637237549

> <r_i_glide_einternal>
0.0811361446976662

> <i_i_glide_confnum>
4

> <i_i_glide_posenum>
176

> <r_i_glide_eff_state_penalty>
0

> <s_user_duplicate_titles>
CHEMBL1994_lig10

> <s_m_subgroup_title>
dock_pv

> <s_m_subgroupid>
dock_pv

> <b_m_subgroup_collapsed>
1

$$$$
CHEMBL1994_lig844
                    3D
 Schrodinger Suite 2021-1.
 57 61  0  0  1  0            999 V2000
   18.2411   72.2875   24.3425 C   0  0  0  0  0  0
   19.2740   72.5025   23.2203 C   0  0  0  0  0  0
   18.7562   73.2349   21.9307 C   0  0  2  0  0  0
   17.4945   72.5036   21.3546 C   0  0  0  0  0  0
   17.7973   71.0632   20.8948 C   0  0  0  0  0  0
   18.8660   71.0391   19.7794 C   0  0  2  0  0  0
   19.2915   69.6268   19.2749 C   0  0  1  0  0  0
   18.1999   68.5841   18.9188 C   0  0  0  0  0  0
   17.5566   68.7650   17.5374 C   0  0  0  0  0  0
   18.6387   68.7554   16.4619 C   0  0  0  0  0  0
   18.4348   68.2622   15.3561 O   0  0  0  0  0  0
   19.8677   69.4624   16.7978 C   0  0  0  0  0  0
   20.1915   69.8621   18.0493 C   0  0  0  0  0  0
   21.4855   70.5668   18.4041 C   0  0  0  0  0  0
   21.1292   71.9568   18.9635 C   0  0  1  0  0  0
   20.5694   72.8312   17.8240 C   0  0  0  0  0  0
   20.1458   71.8572   20.1754 C   0  0  1  0  0  0
   19.7461   73.2534   20.7316 C   0  0  2  0  0  0
   20.8285   74.2683   21.0940 C   0  0  0  0  0  0
   20.0095   75.4017   21.7155 C   0  0  0  0  0  0
   18.6552   74.7940   22.1804 C   0  0  2  0  0  0
   18.5468   75.1411   23.5601 O   0  0  0  0  0  0
   17.3314   75.8176   23.8231 C   0  0  0  0  0  0
   16.6252   75.8619   22.5019 C   0  0  0  0  0  0
   17.4308   75.4085   21.5483 C   0  0  0  0  0  0
   18.6433   71.8621   25.2524 H   0  0  0  0  0  0
   17.8213   73.2235   24.6826 H   0  0  0  0  0  0
   17.4420   71.6289   24.0171 H   0  0  0  0  0  0
   19.6556   71.5163   22.9620 H   0  0  0  0  0  0
   20.0910   73.0726   23.6633 H   0  0  0  0  0  0
   16.6839   72.4736   22.0697 H   0  0  0  0  0  0
   17.0826   73.0388   20.4992 H   0  0  0  0  0  0
   16.8674   70.6622   20.5056 H   0  0  0  0  0  0
   18.0948   70.4408   21.7385 H   0  0  0  0  0  0
   18.3714   71.5510   18.9542 H   0  0  0  0  0  0
   19.8867   69.1693   20.0694 H   0  0  0  0  0  0
   18.6405   67.5853   18.9669 H   0  0  0  0  0  0
   17.4412   68.5233   19.6698 H   0  0  0  0  0  0
   17.0505   69.7288   17.4838 H   0  0  0  0  0  0
   16.8176   67.9930   17.3212 H   0  0  0  0  0  0
   20.5875   69.6446   16.0177 H   0  0  0  0  0  0
   22.0349   69.9871   19.1476 H   0  0  0  0  0  0
   22.1554   70.6506   17.5462 H   0  0  0  0  0  0
   22.0657   72.3980   19.3044 H   0  0  0  0  0  0
   19.5029   72.7179   17.6491 H   0  0  0  0  0  0
   20.7424   73.8621   18.0691 H   0  0  0  0  0  0
   21.0424   72.6421   16.8691 H   0  0  0  0  0  0
   20.6419   71.3090   20.9737 H   0  0  0  0  0  0
   19.2090   73.7199   19.9006 H   0  0  0  0  0  0
   21.5392   73.8616   21.8132 H   0  0  0  0  0  0
   21.3970   74.6109   20.2289 H   0  0  0  0  0  0
   19.8431   76.1904   20.9804 H   0  0  0  0  0  0
   20.5663   75.8594   22.5336 H   0  0  0  0  0  0
   16.7624   75.2999   24.5937 H   0  0  0  0  0  0
   17.5467   76.8227   24.1835 H   0  0  0  0  0  0
   15.6375   76.2560   22.3663 H   0  0  0  0  0  0
   17.2281   75.3634   20.4884 H   0  0  0  0  0  0
  1  2  1  0  0  0
  1 26  1  0  0  0
  1 27  1  0  0  0
  1 28  1  0  0  0
  2  3  1  0  0  0
  2 29  1  0  0  0
  2 30  1  0  0  0
  3  4  1  0  0  0
  3 18  1  0  0  0
  3 21  1  0  0  0
  4  5  1  0  0  0
  4 31  1  0  0  0
  4 32  1  0  0  0
  5  6  1  0  0  0
  5 33  1  0  0  0
  5 34  1  0  0  0
  6  7  1  0  0  0
  6 17  1  0  0  0
  6 35  1  0  0  0
  7  8  1  0  0  0
  7 13  1  0  0  0
  7 36  1  0  0  0
  8  9  1  0  0  0
  8 37  1  0  0  0
  8 38  1  0  0  0
  9 10  1  0  0  0
  9 39  1  0  0  0
  9 40  1  0  0  0
 10 11  2  0  0  0
 10 12  1  0  0  0
 12 13  2  0  0  0
 12 41  1  0  0  0
 13 14  1  0  0  0
 14 15  1  0  0  0
 14 42  1  0  0  0
 14 43  1  0  0  0
 15 16  1  0  0  0
 15 17  1  0  0  0
 15 44  1  0  0  0
 16 45  1  0  0  0
 16 46  1  0  0  0
 16 47  1  0  0  0
 17 18  1  0  0  0
 17 48  1  0  0  0
 18 19  1  0  0  0
 18 49  1  0  0  0
 19 20  1  0  0  0
 19 50  1  0  0  0
 19 51  1  0  0  0
 20 21  1  0  0  0
 20 52  1  0  0  0
 20 53  1  0  0  0
 21 22  1  0  0  0
 21 25  1  0  0  0
 22 23  1  0  0  0
 23 24  1  0  0  0
 23 54  1  0  0  0
 23 55  1  0  0  0
 24 25  2  0  0  0
 24 56  1  0  0  0
 25 57  1  0  0  0
M  END
> <s_m_entry_id>
9604

> <s_m_entry_name>
dock_pv.44

> <s_m_Source_Path>
/home/csk/Desktop/cluster/DUD-E-result/mcr

> <s_m_Source_File>
dock_pv.maegz

> <i_m_Source_File_Index>
44

> <chembl_id>
CHEMBL3692353

> <chembl_pref_name>
None

> <i_lp_mmshare_version>
53161

> <i_f3d_flags>
0

> <r_lp_tautomer_probability>
1

> <s_lp_Force_Field>
OPLS_2005

> <r_lp_Energy>
67.040103

> <b_lp_Chiralities_Consistent>
1

> <s_lp_Variant>
CHEMBL1994_lig844-1

> <s_i_glide_gridfile>
glide-grid_2aa2

> <i_i_glide_lignum>
1275

> <i_i_glide_rotatable_bonds>
1

> <r_i_docking_score>
-9.06442826647232

> <r_i_glide_ligand_efficiency>
-0.362577130658893

> <r_i_glide_ligand_efficiency_sa>
-1.06018196037939

> <r_i_glide_ligand_efficiency_ln>
-2.14854113814916

> <r_i_glide_gscore>
-9.06442826647232

> <r_i_glide_lipo>
-5.03296573705979

> <r_i_glide_hbond>
-0.0213444694250262

> <r_i_glide_metal>
0

> <r_i_glide_rewards>
-2.43750695454545

> <r_i_glide_evdw>
-25.3603668212891

> <r_i_glide_ecoul>
-2.03061842918396

> <r_i_glide_erotb>
0

> <r_i_glide_esite>
0

> <r_i_glide_emodel>
-62.9126749787144

> <r_i_glide_energy>
-27.390985250473

> <r_i_glide_einternal>
2.49254727363586

> <i_i_glide_confnum>
2

> <i_i_glide_posenum>
80

> <r_i_glide_eff_state_penalty>
0

> <s_user_duplicate_titles>
CHEMBL1994_lig844

> <s_m_subgroup_title>
dock_pv

> <s_m_subgroupid>
dock_pv

> <b_m_subgroup_collapsed>
1

$$$$
CHEMBL1994_lig43
                    3D
 Schrodinger Suite 2021-1.
 32 34  0  0  1  0            999 V2000
   19.5310   70.7588   18.1179 C   0  0  0  0  0  0
   19.0717   71.7340   19.1393 C   0  0  0  0  0  0
   17.8456   71.4559   19.7331 C   0  0  0  0  0  0
   20.8295   71.0620   17.4211 C   0  0  0  0  0  0
   19.2405   73.7717   20.4879 C   0  0  0  0  0  0
   21.1298   74.7643   21.8272 C   0  0  0  0  0  0
   17.0410   70.4293   19.2700 O   0  0  0  0  0  0
   18.0318   73.4250   21.1098 C   0  0  0  0  0  0
   17.4281   69.5249   18.3162 C   0  0  0  0  0  0
   19.7560   72.9020   19.5192 C   0  0  0  0  0  0
   18.7479   69.7228   17.7454 C   0  0  0  0  0  0
   19.9632   75.0553   20.8990 C   0  0  2  0  0  0
   17.3532   72.2623   20.7545 C   0  0  0  0  0  0
   17.4410   74.2619   22.0700 N   0  0  0  0  0  0
   16.6089   68.6620   18.0148 O   0  0  0  0  0  0
   20.6410   72.2515   16.8700 F   0  0  0  0  0  0
   21.0981   70.1694   16.4700 F   0  0  0  0  0  0
   21.8435   71.0910   18.2864 F   0  0  0  0  0  0
   21.9814   73.8924   21.2894 F   0  0  0  0  0  0
   21.8223   75.8620   22.1103 F   0  0  0  0  0  0
   20.6410   74.2620   22.9460 F   0  0  0  0  0  0
   18.0523   75.4969   22.5458 C   0  0  0  0  0  0
   18.9380   76.0710   21.4428 C   0  0  0  0  0  0
   20.7047   73.1598   19.0732 H   0  0  0  0  0  0
   19.0748   69.0424   16.9734 H   0  0  0  0  0  0
   20.4287   75.5421   20.0700 H   0  0  0  0  0  0
   16.4166   72.0236   21.2335 H   0  0  0  0  0  0
   16.7557   73.8620   22.7109 H   0  0  0  0  0  0
   18.6293   75.2258   23.4285 H   0  0  0  0  0  0
   17.2814   76.1970   22.8704 H   0  0  0  0  0  0
   19.4187   76.9981   21.7434 H   0  0  0  0  0  0
   18.2630   76.3457   20.6311 H   0  0  0  0  0  0
  1  2  1  0  0  0
  1  4  1  0  0  0
  1 11  2  0  0  0
  2  3  2  0  0  0
  2 10  1  0  0  0
  3 13  1  0  0  0
  3  7  1  0  0  0
  4 16  1  0  0  0
  4 17  1  0  0  0
  4 18  1  0  0  0
  5 10  2  0  0  0
  5  8  1  0  0  0
  5 12  1  0  0  0
  6 12  1  0  0  0
  6 19  1  0  0  0
  6 20  1  0  0  0
  6 21  1  0  0  0
  7  9  1  0  0  0
  8 14  1  0  0  0
  8 13  2  0  0  0
  9 11  1  0  0  0
  9 15  2  0  0  0
 10 24  1  0  0  0
 11 25  1  0  0  0
 12 23  1  0  0  0
 12 26  1  0  0  0
 13 27  1  0  0  0
 14 22  1  0  0  0
 14 28  1  0  0  0
 22 23  1  0  0  0
 22 29  1  0  0  0
 22 30  1  0  0  0
 23 31  1  0  0  0
 23 32  1  0  0  0
M  END
> <s_m_entry_id>
9605

> <s_m_entry_name>
dock_pv.45

> <s_m_Source_Path>
/home/csk/Desktop/cluster/DUD-E-result/mcr

> <s_m_Source_File>
dock_pv.maegz

> <i_m_Source_File_Index>
45

> <chembl_id>
CHEMBL267270

> <chembl_pref_name>
None

> <i_lp_mmshare_version>
53161

> <i_f3d_flags>
0

> <r_lp_tautomer_probability>
1

> <s_lp_Force_Field>
OPLS_2005

> <r_lp_Energy>
19.497067

> <b_lp_Chiralities_Consistent>
1

> <s_lp_Variant>
CHEMBL1994_lig43-2

> <s_i_glide_gridfile>
glide-grid_2aa2

> <i_i_glide_lignum>
51

> <i_i_glide_rotatable_bonds>
2

> <r_i_docking_score>
-9.02342932900322

> <r_i_glide_ligand_efficiency>
-0.392323014304488

> <r_i_glide_ligand_efficiency_sa>
-1.11571446465026

> <r_i_glide_ligand_efficiency_ln>
-2.18194703168648

> <r_i_glide_gscore>
-9.02342932900322

> <r_i_glide_lipo>
-3.55782508357111

> <r_i_glide_hbond>
-0.32

> <r_i_glide_metal>
0

> <r_i_glide_rewards>
-3.1830101663052

> <r_i_glide_evdw>
-28.1711101531982

> <r_i_glide_ecoul>
-3.45543265342712

> <r_i_glide_erotb>
0

> <r_i_glide_esite>
-0.0357236734529373

> <r_i_glide_emodel>
-42.3775742448401

> <r_i_glide_energy>
-31.6265428066254

> <r_i_glide_einternal>
0.935404062271118

> <i_i_glide_confnum>
2

> <i_i_glide_posenum>
210

> <r_i_glide_eff_state_penalty>
0

> <s_user_duplicate_titles>
CHEMBL1994_lig43

> <s_m_subgroup_title>
dock_pv

> <s_m_subgroupid>
dock_pv

> <b_m_subgroup_collapsed>
1

$$$$
CHEMBL1994_lig220
                    3D
 Schrodinger Suite 2021-1.
 41 42  0  0  1  0            999 V2000
   19.1935   74.8551   22.7089 C   0  0  0  0  0  0
   17.9967   75.4720   22.3404 C   0  0  0  0  0  0
   17.4866   75.3294   21.0498 C   0  0  0  0  0  0
   18.1470   74.5188   20.1394 C   0  0  0  0  0  0
   19.2812   73.8130   20.5414 C   0  0  0  0  0  0
   19.8410   74.0298   21.7961 C   0  0  0  0  0  0
   17.2480   76.2487   23.3070 C   0  0  0  0  0  0
   16.6410   76.8638   24.0700 N   0  0  0  0  0  0
   19.8316   72.8714   19.7158 O   0  0  0  0  0  0
   19.0515   71.8291   19.2682 C   0  0  0  0  0  0
   17.8720   71.2692   19.8295 C   0  0  0  0  0  0
   17.4410   70.3559   18.8747 C   0  0  0  0  0  0
   18.3469   70.2497   17.8526 N   0  0  0  0  0  0
   19.3798   71.1154   18.1280 C   0  0  0  0  0  0
   17.2022   71.5551   21.1697 C   0  0  0  0  0  0
   18.0436   71.0837   22.3617 C   0  0  0  0  0  0
   20.6138   71.2186   17.2701 C   0  0  0  0  0  0
   21.8518   70.8043   18.0527 C   0  0  0  0  0  0
   18.2332   69.3389   16.7186 C   0  0  0  0  0  0
   19.0465   68.0727   16.9544 C   0  0  0  0  0  0
   18.6410   67.0624   16.0700 O   0  0  0  0  0  0
   19.6037   74.9749   23.7014 H   0  0  0  0  0  0
   16.5663   75.8126   20.7510 H   0  0  0  0  0  0
   17.7411   74.3671   19.1521 H   0  0  0  0  0  0
   20.7424   73.5081   22.0698 H   0  0  0  0  0  0
   16.5628   69.7264   18.8704 H   0  0  0  0  0  0
   16.9489   72.6023   21.2967 H   0  0  0  0  0  0
   16.2410   71.0620   21.2507 H   0  0  0  0  0  0
   17.6263   71.4553   23.2982 H   0  0  0  0  0  0
   18.0662   69.9970   22.4061 H   0  0  0  0  0  0
   19.0743   71.4313   22.3019 H   0  0  0  0  0  0
   20.5693   70.5731   16.4018 H   0  0  0  0  0  0
   20.7351   72.2330   16.8881 H   0  0  0  0  0  0
   22.6410   70.6618   17.3318 H   0  0  0  0  0  0
   22.1567   71.5620   18.7756 H   0  0  0  0  0  0
   21.7120   69.8606   18.5804 H   0  0  0  0  0  0
   17.1769   69.1135   16.5599 H   0  0  0  0  0  0
   18.6410   69.8488   15.8450 H   0  0  0  0  0  0
   20.1142   68.2727   16.8700 H   0  0  0  0  0  0
   18.8752   67.7058   17.9670 H   0  0  0  0  0  0
   18.1749   66.4176   16.6327 H   0  0  0  0  0  0
  1  6  1  0  0  0
  1  2  2  0  0  0
  1 22  1  0  0  0
  2  3  1  0  0  0
  2  7  1  0  0  0
  3  4  2  0  0  0
  3 23  1  0  0  0
  4  5  1  0  0  0
  4 24  1  0  0  0
  5  6  2  0  0  0
  5  9  1  0  0  0
  6 25  1  0  0  0
  7  8  3  0  0  0
  9 10  1  0  0  0
 10 11  1  0  0  0
 10 14  2  0  0  0
 11 12  2  0  0  0
 11 15  1  0  0  0
 12 13  1  0  0  0
 12 26  1  0  0  0
 13 14  1  0  0  0
 13 19  1  0  0  0
 14 17  1  0  0  0
 15 16  1  0  0  0
 15 27  1  0  0  0
 15 28  1  0  0  0
 16 29  1  0  0  0
 16 30  1  0  0  0
 16 31  1  0  0  0
 17 18  1  0  0  0
 17 32  1  0  0  0
 17 33  1  0  0  0
 18 34  1  0  0  0
 18 35  1  0  0  0
 18 36  1  0  0  0
 19 20  1  0  0  0
 19 37  1  0  0  0
 19 38  1  0  0  0
 20 21  1  0  0  0
 20 39  1  0  0  0
 20 40  1  0  0  0
 21 41  1  0  0  0
M  END
> <s_m_entry_id>
9606

> <s_m_entry_name>
dock_pv.46

> <s_m_Source_Path>
/home/csk/Desktop/cluster/DUD-E-result/mcr

> <s_m_Source_File>
dock_pv.maegz

> <i_m_Source_File_Index>
46

> <chembl_id>
CHEMBL1084770

> <chembl_pref_name>
None

> <i_lp_mmshare_version>
53161

> <i_f3d_flags>
0

> <r_lp_tautomer_probability>
1

> <s_lp_Force_Field>
OPLS_2005

> <r_lp_Energy>
10.737552

> <b_lp_Chiralities_Consistent>
1

> <s_lp_Variant>
CHEMBL1994_lig220-1

> <s_i_glide_gridfile>
glide-grid_2aa2

> <i_i_glide_lignum>
361

> <i_i_glide_rotatable_bonds>
7

> <r_i_docking_score>
-8.99813188703723

> <r_i_glide_ligand_efficiency>
-0.428482470811297

> <r_i_glide_ligand_efficiency_sa>
-1.18215064667711

> <r_i_glide_ligand_efficiency_ln>
-2.22476992663245

> <r_i_glide_gscore>
-8.99813188703723

> <r_i_glide_lipo>
-3.95293404581378

> <r_i_glide_hbond>
-0.599029400440863

> <r_i_glide_metal>
0

> <r_i_glide_rewards>
-2.54485567612306

> <r_i_glide_evdw>
-33.7014389038086

> <r_i_glide_ecoul>
-7.41948270797729

> <r_i_glide_erotb>
0.8966815867275

> <r_i_glide_esite>
0

> <r_i_glide_emodel>
-59.3422736601382

> <r_i_glide_energy>
-41.1209216117859

> <r_i_glide_einternal>
5.15146398544312

> <i_i_glide_confnum>
34

> <i_i_glide_posenum>
392

> <r_i_glide_eff_state_penalty>
0

> <s_user_duplicate_titles>
CHEMBL1994_lig220

> <s_m_subgroup_title>
dock_pv

> <s_m_subgroupid>
dock_pv

> <b_m_subgroup_collapsed>
1

$$$$
CHEMBL1994_lig842
                    3D
 Schrodinger Suite 2021-1.
 54 58  0  0  1  0            999 V2000
   18.2411   72.2621   24.3112 C   0  0  0  0  0  0
   19.3039   72.4830   23.2137 C   0  0  0  0  0  0
   18.8187   73.2580   21.9389 C   0  0  2  0  0  0
   17.5480   72.5643   21.3377 C   0  0  0  0  0  0
   17.8479   71.1360   20.8233 C   0  0  0  0  0  0
   18.9435   71.1364   19.7240 C   0  0  1  0  0  0
   20.2170   71.8986   20.2045 C   0  0  1  0  0  0
   21.2577   71.9936   19.0579 C   0  0  0  0  0  0
   21.6236   70.6199   18.4645 C   0  0  0  0  0  0
   20.3350   69.9171   18.0643 C   0  0  0  0  0  0
   20.0467   69.5411   16.8003 C   0  0  0  0  0  0
   18.7917   68.9157   16.4028 C   0  0  0  0  0  0
   18.6057   68.4785   15.2711 O   0  0  0  0  0  0
   17.6681   68.9582   17.4347 C   0  0  0  0  0  0
   18.2406   68.7277   18.8382 C   0  0  0  0  0  0
   19.3639   69.7176   19.2415 C   0  0  2  0  0  0
   19.8159   73.2915   20.7431 C   0  0  2  0  0  0
   20.8968   74.2927   21.1138 C   0  0  0  0  0  0
   20.0758   75.4196   21.7369 C   0  0  0  0  0  0
   18.7507   74.8031   22.2688 C   0  0  2  0  0  0
   18.7965   75.0832   23.6687 O   0  0  0  0  0  0
   17.6413   75.7718   24.0961 C   0  0  0  0  0  0
   16.8060   75.9110   22.8700 C   0  0  0  0  0  0
   17.4752   75.4618   21.8099 C   0  0  0  0  0  0
   18.6407   71.8620   25.2341 H   0  0  0  0  0  0
   17.8244   73.1981   24.6367 H   0  0  0  0  0  0
   17.4420   71.5954   23.9878 H   0  0  0  0  0  0
   19.6874   71.4977   22.9551 H   0  0  0  0  0  0
   20.1129   73.0620   23.6699 H   0  0  0  0  0  0
   16.7495   72.5148   22.0690 H   0  0  0  0  0  0
   17.1394   73.1424   20.5086 H   0  0  0  0  0  0
   16.9349   70.6906   20.4360 H   0  0  0  0  0  0
   18.1527   70.4987   21.6533 H   0  0  0  0  0  0
   18.5253   71.6889   18.8787 H   0  0  0  0  0  0
   20.6410   71.3091   21.0126 H   0  0  0  0  0  0
   20.8586   72.6286   18.2643 H   0  0  0  0  0  0
   22.1552   72.5081   19.3994 H   0  0  0  0  0  0
   22.1817   70.0214   19.1854 H   0  0  0  0  0  0
   22.2828   70.7525   17.6062 H   0  0  0  0  0  0
   20.8006   69.7136   16.0500 H   0  0  0  0  0  0
   17.2187   69.9501   17.3790 H   0  0  0  0  0  0
   16.8928   68.2381   17.1746 H   0  0  0  0  0  0
   18.6365   67.7106   18.9022 H   0  0  0  0  0  0
   17.4410   68.7269   19.5561 H   0  0  0  0  0  0
   19.9024   69.2354   20.0612 H   0  0  0  0  0  0
   19.2983   73.7614   19.8994 H   0  0  0  0  0  0
   21.6031   73.8640   21.8264 H   0  0  0  0  0  0
   21.4617   74.6444   20.2499 H   0  0  0  0  0  0
   19.8767   76.2047   21.0048 H   0  0  0  0  0  0
   20.6731   75.8620   22.5333 H   0  0  0  0  0  0
   17.1273   75.2375   24.8939 H   0  0  0  0  0  0
   17.9331   76.7469   24.4699 H   0  0  0  0  0  0
   15.8410   76.3689   22.8801 H   0  0  0  0  0  0
   17.1538   75.4728   20.7795 H   0  0  0  0  0  0
  1  2  1  0  0  0
  1 25  1  0  0  0
  1 26  1  0  0  0
  1 27  1  0  0  0
  2  3  1  0  0  0
  2 28  1  0  0  0
  2 29  1  0  0  0
  3  4  1  0  0  0
  3 17  1  0  0  0
  3 20  1  0  0  0
  4  5  1  0  0  0
  4 30  1  0  0  0
  4 31  1  0  0  0
  5  6  1  0  0  0
  5 32  1  0  0  0
  5 33  1  0  0  0
  6  7  1  0  0  0
  6 16  1  0  0  0
  6 34  1  0  0  0
  7  8  1  0  0  0
  7 17  1  0  0  0
  7 35  1  0  0  0
  8  9  1  0  0  0
  8 36  1  0  0  0
  8 37  1  0  0  0
  9 10  1  0  0  0
  9 38  1  0  0  0
  9 39  1  0  0  0
 10 11  2  0  0  0
 10 16  1  0  0  0
 11 12  1  0  0  0
 11 40  1  0  0  0
 12 13  2  0  0  0
 12 14  1  0  0  0
 14 15  1  0  0  0
 14 41  1  0  0  0
 14 42  1  0  0  0
 15 16  1  0  0  0
 15 43  1  0  0  0
 15 44  1  0  0  0
 16 45  1  0  0  0
 17 18  1  0  0  0
 17 46  1  0  0  0
 18 19  1  0  0  0
 18 47  1  0  0  0
 18 48  1  0  0  0
 19 20  1  0  0  0
 19 49  1  0  0  0
 19 50  1  0  0  0
 20 21  1  0  0  0
 20 24  1  0  0  0
 21 22  1  0  0  0
 22 23  1  0  0  0
 22 51  1  0  0  0
 22 52  1  0  0  0
 23 24  2  0  0  0
 23 53  1  0  0  0
 24 54  1  0  0  0
M  END
> <s_m_entry_id>
9607

> <s_m_entry_name>
dock_pv.47

> <s_m_Source_Path>
/home/csk/Desktop/cluster/DUD-E-result/mcr

> <s_m_Source_File>
dock_pv.maegz

> <i_m_Source_File_Index>
47

> <chembl_id>
CHEMBL3692351

> <chembl_pref_name>
None

> <i_lp_mmshare_version>
53161

> <i_f3d_flags>
0

> <r_lp_tautomer_probability>
1

> <s_lp_Force_Field>
OPLS_2005

> <r_lp_Energy>
63.420491

> <b_lp_Chiralities_Consistent>
1

> <s_lp_Variant>
CHEMBL1994_lig842-1

> <s_i_glide_gridfile>
glide-grid_2aa2

> <i_i_glide_lignum>
1273

> <i_i_glide_rotatable_bonds>
1

> <r_i_docking_score>
-8.976768881984

> <r_i_glide_ligand_efficiency>
-0.374032036749333

> <r_i_glide_ligand_efficiency_sa>
-1.07889508742293

> <r_i_glide_ligand_efficiency_ln>
-2.14855271054189

> <r_i_glide_gscore>
-8.976768881984

> <r_i_glide_lipo>
-4.78668474812825

> <r_i_glide_hbond>
-0.000555728530124757

> <r_i_glide_metal>
0

> <r_i_glide_rewards>
-2.53314272727273

> <r_i_glide_evdw>
-27.4337596893311

> <r_i_glide_ecoul>
-1.897984623909

> <r_i_glide_erotb>
0

> <r_i_glide_esite>
0

> <r_i_glide_emodel>
-45.0717647314738

> <r_i_glide_energy>
-29.3317443132401

> <r_i_glide_einternal>
6.46074485778809

> <i_i_glide_confnum>
2

> <i_i_glide_posenum>
163

> <r_i_glide_eff_state_penalty>
0

> <s_user_duplicate_titles>
CHEMBL1994_lig842

> <s_m_subgroup_title>
dock_pv

> <s_m_subgroupid>
dock_pv

> <b_m_subgroup_collapsed>
1

$$$$
CHEMBL1994_lig531
                    3D
 Schrodinger Suite 2021-1.
 40 42  0  0  1  0            999 V2000
   18.4723   71.6633   22.0605 C   0  0  0  0  0  0
   18.5776   72.5330   23.3059 C   0  0  0  0  0  0
   18.2507   73.9478   23.0009 N   0  0  2  0  0  0
   19.3835   74.9777   22.1451 S   0  0  0  0  0  0
   19.6417   74.2307   20.5379 C   0  0  0  0  0  0
   18.7151   76.2630   21.9377 O   0  0  0  0  0  0
   20.6564   74.9168   22.8662 O   0  0  0  0  0  0
   17.4240   71.8598   21.1653 C   0  0  0  0  0  0
   17.4405   71.2218   19.9358 C   0  0  0  0  0  0
   18.4585   70.3270   19.6193 C   0  0  0  0  0  0
   19.4518   70.0425   20.5556 C   0  0  0  0  0  0
   19.4491   70.7146   21.7704 C   0  0  0  0  0  0
   18.5036   69.7327   18.3491 N   0  0  0  0  0  0
   19.6200   69.5587   17.5734 C   0  0  0  0  0  0
   19.2021   68.8604   16.4630 C   0  0  0  0  0  0
   17.9023   68.6620   16.4695 N   0  0  0  0  0  0
   17.4802   69.2003   17.5895 C   0  0  0  0  0  0
   16.0256   69.1989   17.9932 C   0  0  0  0  0  0
   18.6426   74.2614   19.5585 C   0  0  0  0  0  0
   18.8613   73.6452   18.3235 C   0  0  0  0  0  0
   20.0601   72.9814   18.0718 C   0  0  0  0  0  0
   21.0418   72.9293   19.0546 C   0  0  0  0  0  0
   20.8434   73.5631   20.2791 C   0  0  0  0  0  0
   17.4540   74.8591   19.8030 F   0  0  0  0  0  0
   17.8399   72.1543   24.0105 H   0  0  0  0  0  0
   19.5401   72.4698   23.8103 H   0  0  0  0  0  0
   17.6636   74.4243   23.6892 H   0  0  0  0  0  0
   16.6414   72.5737   21.3820 H   0  0  0  0  0  0
   16.6678   71.4633   19.2284 H   0  0  0  0  0  0
   20.2392   69.3340   20.3430 H   0  0  0  0  0  0
   20.2412   70.5210   22.4712 H   0  0  0  0  0  0
   20.5914   69.8957   17.9027 H   0  0  0  0  0  0
   19.8344   68.4945   15.6725 H   0  0  0  0  0  0
   15.4413   68.6620   17.2701 H   0  0  0  0  0  0
   15.5780   70.1898   18.0160 H   0  0  0  0  0  0
   15.8508   68.7138   18.9481 H   0  0  0  0  0  0
   18.0962   73.6625   17.5641 H   0  0  0  0  0  0
   20.2365   72.4960   17.1235 H   0  0  0  0  0  0
   21.9654   72.4024   18.8643 H   0  0  0  0  0  0
   21.6209   73.5133   21.0283 H   0  0  0  0  0  0
  1  2  1  0  0  0
  1  8  2  0  0  0
  1 12  1  0  0  0
  2  3  1  0  0  0
  2 25  1  0  0  0
  2 26  1  0  0  0
  3  4  1  0  0  0
  3 27  1  0  0  0
  4  5  1  0  0  0
  4  6  2  0  0  0
  4  7  2  0  0  0
  5 19  2  0  0  0
  5 23  1  0  0  0
  8  9  1  0  0  0
  8 28  1  0  0  0
  9 10  2  0  0  0
  9 29  1  0  0  0
 10 11  1  0  0  0
 10 13  1  0  0  0
 11 12  2  0  0  0
 11 30  1  0  0  0
 12 31  1  0  0  0
 13 14  1  0  0  0
 13 17  1  0  0  0
 14 15  2  0  0  0
 14 32  1  0  0  0
 15 16  1  0  0  0
 15 33  1  0  0  0
 16 17  2  0  0  0
 17 18  1  0  0  0
 18 34  1  0  0  0
 18 35  1  0  0  0
 18 36  1  0  0  0
 19 20  1  0  0  0
 19 24  1  0  0  0
 20 21  2  0  0  0
 20 37  1  0  0  0
 21 22  1  0  0  0
 21 38  1  0  0  0
 22 23  2  0  0  0
 22 39  1  0  0  0
 23 40  1  0  0  0
M  END
> <s_m_entry_id>
9608

> <s_m_entry_name>
dock_pv.48

> <s_m_Source_Path>
/home/csk/Desktop/cluster/DUD-E-result/mcr

> <s_m_Source_File>
dock_pv.maegz

> <i_m_Source_File_Index>
48

> <chembl_id>
CHEMBL3086023

> <chembl_pref_name>
None

> <i_lp_mmshare_version>
53161

> <i_f3d_flags>
0

> <r_lp_tautomer_probability>
1

> <s_lp_Force_Field>
OPLS_2005

> <r_lp_Energy>
13.917137

> <b_lp_Chiralities_Consistent>
1

> <s_lp_Variant>
CHEMBL1994_lig531-1

> <s_i_glide_gridfile>
glide-grid_2aa2

> <i_i_glide_lignum>
842

> <i_i_glide_rotatable_bonds>
5

> <r_i_docking_score>
-8.97371223084455

> <r_i_glide_ligand_efficiency>
-0.37390467628519

> <r_i_glide_ligand_efficiency_sa>
-1.07852771627395

> <r_i_glide_ligand_efficiency_ln>
-2.14782111366364

> <r_i_glide_gscore>
-8.97371223084455

> <r_i_glide_lipo>
-4.08971923320643

> <r_i_glide_hbond>
-0.00869146898683701

> <r_i_glide_metal>
0

> <r_i_glide_rewards>
-3.09097713830326

> <r_i_glide_evdw>
-41.0921020507812

> <r_i_glide_ecoul>
-2.21983075141907

> <r_i_glide_erotb>
0.637046078906349

> <r_i_glide_esite>
-0.0337907540024597

> <r_i_glide_emodel>
-64.5774864241979

> <r_i_glide_energy>
-43.3119328022003

> <r_i_glide_einternal>
5.00940370559692

> <i_i_glide_confnum>
14

> <i_i_glide_posenum>
40

> <r_i_glide_eff_state_penalty>
0

> <s_user_duplicate_titles>
CHEMBL1994_lig531

> <s_m_subgroup_title>
dock_pv

> <s_m_subgroupid>
dock_pv

> <b_m_subgroup_collapsed>
1

$$$$
CHEMBL1994_lig933 
                    3D
 Schrodinger Suite 2021-1.
 47 49  0  0  1  0            999 V2000
   18.0645   77.3862   23.6696 O   0  0  0  0  0  0
   17.2344   76.1883   23.7424 S   0  0  0  0  0  0
   15.8414   76.2620   24.1386 O   0  0  0  0  0  0
   20.6494   75.1558   21.0629 C   0  0  0  0  0  0
   19.4720   75.7232   21.5073 C   0  0  0  0  0  0
   18.3158   74.9681   21.5893 C   0  0  0  0  0  0
   20.6959   73.8625   20.5559 C   0  0  0  0  0  0
   19.1516   71.8095   20.1197 N   0  0  0  0  0  0
   19.5105   73.0935   20.5784 C   0  0  0  0  0  0
   18.3315   73.6408   21.1744 C   0  0  0  0  0  0
   17.3620   72.6142   21.2570 C   0  0  0  0  0  0
   17.9490   71.5140   20.7391 C   0  0  0  0  0  0
   17.1595   75.4621   22.1666 N   0  0  0  0  0  0
   18.0930   74.8932   24.7964 C   0  0  0  0  0  0
   19.9085   70.8177   19.2730 C   0  0  1  0  0  0
   19.0391   70.1104   18.1692 C   0  0  0  0  0  0
   21.1253   71.5562   18.6084 C   0  0  0  0  0  0
   20.4339   69.7531   20.2874 C   0  0  0  0  0  0
   17.6489   70.2765   18.0883 C   0  0  0  0  0  0
   16.8799   69.4815   17.2695 C   0  0  0  0  0  0
   17.5005   68.6620   16.3349 C   0  0  0  0  0  0
   18.8666   68.4739   16.3594 C   0  0  0  0  0  0
   19.6161   69.1904   17.2700 C   0  0  0  0  0  0
   16.6428   68.2620   14.9080 Cl  0  0  0  0  0  0
   19.4687   68.6121   20.6794 C   0  0  0  0  0  0
   21.9042   70.8516   17.6706 O   0  0  0  0  0  0
   22.2411   76.1725   21.1798 Br  0  0  0  0  0  0
   19.4573   76.7555   21.8177 H   0  0  0  0  0  0
   21.6538   73.5226   20.2170 H   0  0  0  0  0  0
   16.3655   72.6621   21.6698 H   0  0  0  0  0  0
   17.5031   70.5432   20.6378 H   0  0  0  0  0  0
   16.3338   74.8930   22.0517 H   0  0  0  0  0  0
   18.2509   75.3174   25.7846 H   0  0  0  0  0  0
   17.4560   74.0149   24.8684 H   0  0  0  0  0  0
   19.0460   74.6376   24.3390 H   0  0  0  0  0  0
   20.8098   72.4866   18.1326 H   0  0  0  0  0  0
   21.8699   71.7779   19.3619 H   0  0  0  0  0  0
   21.3685   69.3407   19.9175 H   0  0  0  0  0  0
   20.7015   70.2416   21.2235 H   0  0  0  0  0  0
   17.0931   71.0256   18.6189 H   0  0  0  0  0  0
   15.8294   69.6759   17.2255 H   0  0  0  0  0  0
   19.3631   67.8368   15.6454 H   0  0  0  0  0  0
   20.6678   68.9744   17.2688 H   0  0  0  0  0  0
   19.9880   67.8631   21.2724 H   0  0  0  0  0  0
   18.6410   68.9624   21.2763 H   0  0  0  0  0  0
   19.0410   68.0868   19.8264 H   0  0  0  0  0  0
   22.4492   71.4851   17.1890 H   0  0  0  0  0  0
  1  2  2  0  0  0
  2  3  2  0  0  0
  2 13  1  0  0  0
  2 14  1  0  0  0
  4  5  2  0  0  0
  4  7  1  0  0  0
  4 27  1  0  0  0
  5  6  1  0  0  0
  5 28  1  0  0  0
  6 10  2  0  0  0
  6 13  1  0  0  0
  7  9  2  0  0  0
  7 29  1  0  0  0
  8  9  1  0  0  0
  8 12  1  0  0  0
  8 15  1  0  0  0
  9 10  1  0  0  0
 10 11  1  0  0  0
 11 12  2  0  0  0
 11 30  1  0  0  0
 12 31  1  0  0  0
 13 32  1  0  0  0
 14 33  1  0  0  0
 14 34  1  0  0  0
 14 35  1  0  0  0
 15 16  1  0  0  0
 15 17  1  0  0  0
 15 18  1  0  0  0
 16 19  2  0  0  0
 16 23  1  0  0  0
 17 26  1  0  0  0
 17 36  1  0  0  0
 17 37  1  0  0  0
 18 25  1  0  0  0
 18 38  1  0  0  0
 18 39  1  0  0  0
 19 20  1  0  0  0
 19 40  1  0  0  0
 20 21  2  0  0  0
 20 41  1  0  0  0
 21 22  1  0  0  0
 21 24  1  0  0  0
 22 23  2  0  0  0
 22 42  1  0  0  0
 23 43  1  0  0  0
 25 44  1  0  0  0
 25 45  1  0  0  0
 25 46  1  0  0  0
 26 47  1  0  0  0
M  END
> <s_m_entry_id>
9609

> <s_m_entry_name>
dock_pv.49

> <s_m_Source_Path>
/home/csk/Desktop/cluster/DUD-E-result/mcr

> <s_m_Source_File>
dock_pv.maegz

> <i_m_Source_File_Index>
49

> <chembl_id>
CHEMBL4515343

> <chembl_pref_name>
None

> <i_lp_mmshare_version>
53161

> <i_f3d_flags>
0

> <r_lp_tautomer_probability>
1

> <s_lp_Force_Field>
OPLS_2005

> <r_lp_Energy>
20.397873

> <b_lp_Chiralities_Consistent>
1

> <s_lp_Variant>
CHEMBL1994_lig933 -2

> <s_i_glide_gridfile>
glide-grid_2aa2

> <i_i_glide_lignum>
1369

> <i_i_glide_rotatable_bonds>
7

> <r_i_docking_score>
-8.96086068141381

> <r_i_glide_ligand_efficiency>
-0.331883728941252

> <r_i_glide_ligand_efficiency_sa>
-0.995651185729923

> <r_i_glide_ligand_efficiency_ln>
-2.08594063529897

> <r_i_glide_gscore>
-8.96086068141381

> <r_i_glide_lipo>
-4.76765433254152

> <r_i_glide_hbond>
0

> <r_i_glide_metal>
0

> <r_i_glide_rewards>
-1.37103228652936

> <r_i_glide_evdw>
-34.1027641296387

> <r_i_glide_ecoul>
-9.41253662109375

> <r_i_glide_erotb>
0.363270420175438

> <r_i_glide_esite>
-0.068425782872378

> <r_i_glide_emodel>
-31.9011924889571

> <r_i_glide_energy>
-43.5153007507324

> <r_i_glide_einternal>
25.2520751953125

> <i_i_glide_confnum>
47

> <i_i_glide_posenum>
201

> <r_i_glide_eff_state_penalty>
0

> <s_user_duplicate_titles>
CHEMBL1994_lig933 

> <s_m_subgroup_title>
dock_pv

> <s_m_subgroupid>
dock_pv

> <b_m_subgroup_collapsed>
1

$$$$
CHEMBL1994_lig955 
                    3D
 Schrodinger Suite 2021-1.
 42 45  0  0  1  0            999 V2000
   17.3441   68.6620   16.4648 C   0  0  0  0  0  0
   16.7178   69.1368   17.6080 C   0  0  0  0  0  0
   17.4770   69.8041   18.5607 C   0  0  0  0  0  0
   18.7026   68.8011   16.2908 C   0  0  0  0  0  0
   19.4639   69.5126   17.2048 C   0  0  0  0  0  0
   18.8652   69.9944   18.3887 C   0  0  0  0  0  0
   19.6448   70.7747   19.2945 N   0  0  0  0  0  0
   20.9240   71.3693   18.8466 C   0  0  1  0  0  0
   21.6822   70.3080   18.0557 C   0  0  0  0  0  0
   20.8915   69.8620   16.8473 C   0  0  0  0  0  0
   19.2253   71.0222   20.5706 C   0  0  0  0  0  0
   19.2799   72.4433   21.0625 C   0  0  0  0  0  0
   18.6410   70.1918   21.2665 O   0  0  0  0  0  0
   20.4920   73.1429   21.1809 C   0  0  0  0  0  0
   20.5543   74.4449   21.6120 C   0  0  0  0  0  0
   18.0868   73.0840   21.4374 C   0  0  0  0  0  0
   18.1429   74.3891   21.9190 C   0  0  0  0  0  0
   19.3739   75.0268   21.9881 C   0  0  0  0  0  0
   19.4400   76.2620   22.5175 O   0  0  0  0  0  0
   18.6104   76.4391   23.6700 C   0  0  0  0  0  0
   17.1528   76.0106   23.4261 C   0  0  0  0  0  0
   17.0521   75.0620   22.4696 N   0  0  0  0  0  0
   16.2243   76.4705   24.0646 O   0  0  0  0  0  0
   20.7728   72.6923   18.0700 C   0  0  0  0  0  0
   16.6410   68.2620   15.3964 F   0  0  0  0  0  0
   15.6475   69.0620   17.7238 H   0  0  0  0  0  0
   16.9524   70.2304   19.4030 H   0  0  0  0  0  0
   19.1281   68.4691   15.3602 H   0  0  0  0  0  0
   21.6097   71.4828   19.6697 H   0  0  0  0  0  0
   22.6410   70.7088   17.7442 H   0  0  0  0  0  0
   21.9143   69.4620   18.7016 H   0  0  0  0  0  0
   21.3901   69.0620   16.3211 H   0  0  0  0  0  0
   20.8888   70.6839   16.1415 H   0  0  0  0  0  0
   21.4500   72.7034   21.0235 H   0  0  0  0  0  0
   21.4969   74.9626   21.7192 H   0  0  0  0  0  0
   17.1394   72.5623   21.4045 H   0  0  0  0  0  0
   18.9528   75.7800   24.4675 H   0  0  0  0  0  0
   18.6408   77.4645   24.0363 H   0  0  0  0  0  0
   16.1217   74.6812   22.3715 H   0  0  0  0  0  0
   21.7554   73.0921   17.8274 H   0  0  0  0  0  0
   20.2410   72.5617   17.1303 H   0  0  0  0  0  0
   20.2424   73.4620   18.6262 H   0  0  0  0  0  0
  1  2  2  0  0  0
  1  4  1  0  0  0
  1 25  1  0  0  0
  2  3  1  0  0  0
  2 26  1  0  0  0
  3  6  2  0  0  0
  3 27  1  0  0  0
  4  5  2  0  0  0
  4 28  1  0  0  0
  5  6  1  0  0  0
  5 10  1  0  0  0
  6  7  1  0  0  0
  7  8  1  0  0  0
  7 11  1  0  0  0
  8  9  1  0  0  0
  8 24  1  0  0  0
  8 29  1  0  0  0
  9 10  1  0  0  0
  9 30  1  0  0  0
  9 31  1  0  0  0
 10 32  1  0  0  0
 10 33  1  0  0  0
 11 12  1  0  0  0
 11 13  2  0  0  0
 12 14  2  0  0  0
 12 16  1  0  0  0
 14 15  1  0  0  0
 14 34  1  0  0  0
 15 18  2  0  0  0
 15 35  1  0  0  0
 16 17  2  0  0  0
 16 36  1  0  0  0
 17 18  1  0  0  0
 17 22  1  0  0  0
 18 19  1  0  0  0
 19 20  1  0  0  0
 20 21  1  0  0  0
 20 37  1  0  0  0
 20 38  1  0  0  0
 21 22  1  0  0  0
 21 23  2  0  0  0
 22 39  1  0  0  0
 24 40  1  0  0  0
 24 41  1  0  0  0
 24 42  1  0  0  0
M  END
> <s_m_entry_id>
9610

> <s_m_entry_name>
dock_pv.50

> <s_m_Source_Path>
/home/csk/Desktop/cluster/DUD-E-result/mcr

> <s_m_Source_File>
dock_pv.maegz

> <i_m_Source_File_Index>
50

> <chembl_id>
CHEMBL4539557

> <chembl_pref_name>
None

> <i_lp_mmshare_version>
53161

> <i_f3d_flags>
0

> <r_lp_tautomer_probability>
1

> <s_lp_Force_Field>
OPLS_2005

> <r_lp_Energy>
50.421729

> <b_lp_Chiralities_Consistent>
1

> <s_lp_Variant>
CHEMBL1994_lig955 -1

> <s_i_glide_gridfile>
glide-grid_2aa2

> <i_i_glide_lignum>
1397

> <i_i_glide_rotatable_bonds>
2

> <r_i_docking_score>
-8.95919811844738

> <r_i_glide_ligand_efficiency>
-0.358367924737895

> <r_i_glide_ligand_efficiency_sa>
-1.04787416761581

> <r_i_glide_ligand_efficiency_ln>
-2.12359843957419

> <r_i_glide_gscore>
-8.95919811844738

> <r_i_glide_lipo>
-4.19948512462513

> <r_i_glide_hbond>
-0.374067515119337

> <r_i_glide_metal>
0

> <r_i_glide_rewards>
-2.09525932034784

> <r_i_glide_evdw>
-31.2025127410889

> <r_i_glide_ecoul>
-6.75080347061157

> <r_i_glide_erotb>
0.326946135774775

> <r_i_glide_esite>
-0.0445861364836719

> <r_i_glide_emodel>
-39.9992009110196

> <r_i_glide_energy>
-37.9533162117004

> <r_i_glide_einternal>
3.40948843955994

> <i_i_glide_confnum>
16

> <i_i_glide_posenum>
181

> <r_i_glide_eff_state_penalty>
0

> <s_user_duplicate_titles>
CHEMBL1994_lig955 

> <s_m_subgroup_title>
dock_pv

> <s_m_subgroupid>
dock_pv

> <b_m_subgroup_collapsed>
1

$$$$
CHEMBL1994_lig540
                    3D
 Schrodinger Suite 2021-1.
 40 42  0  0  1  0            999 V2000
   18.5629   71.6717   21.9577 C   0  0  0  0  0  0
   18.6377   72.5776   23.1814 C   0  0  0  0  0  0
   18.4033   73.9994   22.8410 N   0  0  2  0  0  0
   19.6171   74.9381   21.9869 S   0  0  0  0  0  0
   19.8274   74.1538   20.3947 C   0  0  0  0  0  0
   19.0406   76.2637   21.7579 O   0  0  0  0  0  0
   20.8820   74.7949   22.7100 O   0  0  0  0  0  0
   17.6133   71.8817   20.9528 C   0  0  0  0  0  0
   17.7187   71.1796   19.7546 C   0  0  0  0  0  0
   18.6423   70.1576   19.6067 C   0  0  0  0  0  0
   19.5368   69.8764   20.6358 C   0  0  0  0  0  0
   19.5049   70.6608   21.7865 C   0  0  0  0  0  0
   18.7249   69.5165   18.3681 N   0  0  0  0  0  0
   19.8314   69.4660   17.5696 C   0  0  0  0  0  0
   19.4411   68.7624   16.4603 C   0  0  0  0  0  0
   18.1663   68.4597   16.4683 N   0  0  0  0  0  0
   17.7302   68.9191   17.6158 C   0  0  0  0  0  0
   16.2897   68.7527   18.0379 C   0  0  0  0  0  0
   20.9626   73.3732   20.1440 C   0  0  0  0  0  0
   21.0904   72.6850   18.9387 C   0  0  0  0  0  0
   20.1204   72.8319   17.9549 C   0  0  0  0  0  0
   19.0050   73.6365   18.1819 C   0  0  0  0  0  0
   18.8340   74.2618   19.4176 C   0  0  0  0  0  0
   22.1470   71.8678   18.7244 F   0  0  0  0  0  0
   17.6927   74.9427   19.6697 F   0  0  0  0  0  0
   17.0410   71.5742   18.6653 F   0  0  0  0  0  0
   17.8411   72.2522   23.8468 H   0  0  0  0  0  0
   19.5545   72.4792   23.7605 H   0  0  0  0  0  0
   17.8345   74.5274   23.5077 H   0  0  0  0  0  0
   16.8913   72.6807   21.0420 H   0  0  0  0  0  0
   20.2845   69.1028   20.5298 H   0  0  0  0  0  0
   20.2410   70.4752   22.5475 H   0  0  0  0  0  0
   20.7781   69.8790   17.8860 H   0  0  0  0  0  0
   20.0940   68.4625   15.6700 H   0  0  0  0  0  0
   15.6918   68.6639   17.1428 H   0  0  0  0  0  0
   15.8505   69.5785   18.5866 H   0  0  0  0  0  0
   16.1464   67.8629   18.6426 H   0  0  0  0  0  0
   21.7317   73.2576   20.8929 H   0  0  0  0  0  0
   20.2334   72.3088   17.0178 H   0  0  0  0  0  0
   18.2414   73.7319   17.4242 H   0  0  0  0  0  0
  1  2  1  0  0  0
  1  8  2  0  0  0
  1 12  1  0  0  0
  2  3  1  0  0  0
  2 27  1  0  0  0
  2 28  1  0  0  0
  3  4  1  0  0  0
  3 29  1  0  0  0
  4  5  1  0  0  0
  4  6  2  0  0  0
  4  7  2  0  0  0
  5 19  2  0  0  0
  5 23  1  0  0  0
  8  9  1  0  0  0
  8 30  1  0  0  0
  9 10  2  0  0  0
  9 26  1  0  0  0
 10 11  1  0  0  0
 10 13  1  0  0  0
 11 12  2  0  0  0
 11 31  1  0  0  0
 12 32  1  0  0  0
 13 14  1  0  0  0
 13 17  1  0  0  0
 14 15  2  0  0  0
 14 33  1  0  0  0
 15 16  1  0  0  0
 15 34  1  0  0  0
 16 17  2  0  0  0
 17 18  1  0  0  0
 18 35  1  0  0  0
 18 36  1  0  0  0
 18 37  1  0  0  0
 19 20  1  0  0  0
 19 38  1  0  0  0
 20 21  2  0  0  0
 20 24  1  0  0  0
 21 22  1  0  0  0
 21 39  1  0  0  0
 22 23  2  0  0  0
 22 40  1  0  0  0
 23 25  1  0  0  0
M  END
> <s_m_entry_id>
9611

> <s_m_entry_name>
dock_pv.51

> <s_m_Source_Path>
/home/csk/Desktop/cluster/DUD-E-result/mcr

> <s_m_Source_File>
dock_pv.maegz

> <i_m_Source_File_Index>
51

> <chembl_id>
CHEMBL3086026

> <chembl_pref_name>
None

> <i_lp_mmshare_version>
53161

> <i_f3d_flags>
0

> <r_lp_tautomer_probability>
1

> <s_lp_Force_Field>
OPLS_2005

> <r_lp_Energy>
18.796426

> <b_lp_Chiralities_Consistent>
1

> <s_lp_Variant>
CHEMBL1994_lig540-1

> <s_i_glide_gridfile>
glide-grid_2aa2

> <i_i_glide_lignum>
851

> <i_i_glide_rotatable_bonds>
5

> <r_i_docking_score>
-8.95429510378064

> <r_i_glide_ligand_efficiency>
-0.344395965530025

> <r_i_glide_ligand_efficiency_sa>
-1.02027169275001

> <r_i_glide_ligand_efficiency_ln>
-2.10288682368419

> <r_i_glide_gscore>
-8.95429510378064

> <r_i_glide_lipo>
-4.05866621300274

> <r_i_glide_hbond>
0

> <r_i_glide_metal>
0

> <r_i_glide_rewards>
-3.26262581776928

> <r_i_glide_evdw>
-36.8151931762695

> <r_i_glide_ecoul>
-2.14338445663452

> <r_i_glide_erotb>
0.533819040583876

> <r_i_glide_esite>
-0.00455478628384384

> <r_i_glide_emodel>
-56.6931996503272

> <r_i_glide_energy>
-38.9585776329041

> <r_i_glide_einternal>
4.34447526931763

> <i_i_glide_confnum>
10

> <i_i_glide_posenum>
182

> <r_i_glide_eff_state_penalty>
0

> <s_user_duplicate_titles>
CHEMBL1994_lig540

> <s_m_subgroup_title>
dock_pv

> <s_m_subgroupid>
dock_pv

> <b_m_subgroup_collapsed>
1

$$$$
CHEMBL1994_lig912
                    3D
 Schrodinger Suite 2021-1.
 41 44  0  0  1  0            999 V2000
   19.7871   72.6493   20.4331 C   0  0  0  0  0  0
   20.9798   73.3369   20.7185 C   0  0  0  0  0  0
   21.0053   74.3660   21.6626 C   0  0  0  0  0  0
   18.5879   73.1086   20.9867 C   0  0  0  0  0  0
   18.6035   74.1653   21.8924 C   0  0  0  0  0  0
   19.8109   74.7508   22.2612 C   0  0  0  0  0  0
   19.8011   75.6883   23.2710 O   0  0  0  0  0  0
   18.6395   76.5546   23.2422 C   0  0  0  0  0  0
   17.3013   75.8102   23.1637 C   0  0  0  0  0  0
   17.4409   74.6603   22.4708 N   0  0  0  0  0  0
   16.2566   76.2274   23.6597 O   0  0  0  0  0  0
   19.7409   71.5528   19.5887 N   0  0  0  0  0  0
   20.5825   70.3578   19.7515 C   0  0  0  0  0  0
   21.8529   70.4123   18.8681 C   0  0  0  0  0  0
   21.5534   70.6933   17.5189 O   0  0  0  0  0  0
   20.7315   71.8454   17.3777 C   0  0  0  0  0  0
   19.4132   71.7122   18.1702 C   0  0  1  0  0  0
   18.4584   70.6337   17.6728 C   0  0  0  0  0  0
   17.1317   70.6716   18.1036 C   0  0  0  0  0  0
   16.2473   69.6795   17.7149 C   0  0  0  0  0  0
   16.7039   68.6610   16.8896 C   0  0  0  0  0  0
   18.0193   68.5997   16.4580 C   0  0  0  0  0  0
   18.8988   69.5889   16.8491 C   0  0  0  0  0  0
   21.9078   73.0424   20.2576 H   0  0  0  0  0  0
   21.9363   74.8408   21.9395 H   0  0  0  0  0  0
   17.6554   72.6230   20.7379 H   0  0  0  0  0  0
   18.6386   77.2848   24.0512 H   0  0  0  0  0  0
   18.6780   77.0613   22.2828 H   0  0  0  0  0  0
   16.5825   74.1316   22.3895 H   0  0  0  0  0  0
   20.0026   69.4679   19.5003 H   0  0  0  0  0  0
   20.8331   70.2282   20.8045 H   0  0  0  0  0  0
   22.3819   69.4605   18.9143 H   0  0  0  0  0  0
   22.5535   71.1646   19.2266 H   0  0  0  0  0  0
   20.5471   71.9730   16.3172 H   0  0  0  0  0  0
   21.2838   72.7323   17.6920 H   0  0  0  0  0  0
   18.8672   72.6486   18.0339 H   0  0  0  0  0  0
   16.7900   71.4618   18.7552 H   0  0  0  0  0  0
   15.2261   69.6934   18.0664 H   0  0  0  0  0  0
   16.0222   67.8834   16.5965 H   0  0  0  0  0  0
   18.3612   67.7878   15.8358 H   0  0  0  0  0  0
   19.9116   69.5096   16.4930 H   0  0  0  0  0  0
  1  2  2  0  0  0
  1  4  1  0  0  0
  1 12  1  0  0  0
  2  3  1  0  0  0
  2 24  1  0  0  0
  3  6  2  0  0  0
  3 25  1  0  0  0
  4  5  2  0  0  0
  4 26  1  0  0  0
  5  6  1  0  0  0
  5 10  1  0  0  0
  6  7  1  0  0  0
  7  8  1  0  0  0
  8  9  1  0  0  0
  8 27  1  0  0  0
  8 28  1  0  0  0
  9 10  1  0  0  0
  9 11  2  0  0  0
 10 29  1  0  0  0
 12 13  1  0  0  0
 12 17  1  0  0  0
 13 14  1  0  0  0
 13 30  1  0  0  0
 13 31  1  0  0  0
 14 15  1  0  0  0
 14 32  1  0  0  0
 14 33  1  0  0  0
 15 16  1  0  0  0
 16 17  1  0  0  0
 16 34  1  0  0  0
 16 35  1  0  0  0
 17 18  1  0  0  0
 17 36  1  0  0  0
 18 19  2  0  0  0
 18 23  1  0  0  0
 19 20  1  0  0  0
 19 37  1  0  0  0
 20 21  2  0  0  0
 20 38  1  0  0  0
 21 22  1  0  0  0
 21 39  1  0  0  0
 22 23  2  0  0  0
 22 40  1  0  0  0
 23 41  1  0  0  0
M  END
> <s_m_entry_id>
9612

> <s_m_entry_name>
dock_pv.52

> <s_m_Source_Path>
/home/csk/Desktop/cluster/DUD-E-result/mcr

> <s_m_Source_File>
dock_pv.maegz

> <i_m_Source_File_Index>
52

> <chembl_id>
CHEMBL4062345

> <chembl_pref_name>
None

> <i_lp_mmshare_version>
53161

> <i_f3d_flags>
0

> <r_lp_tautomer_probability>
1

> <s_lp_Force_Field>
OPLS_2005

> <r_lp_Energy>
37.022384

> <b_lp_Chiralities_Consistent>
1

> <s_lp_Variant>
CHEMBL1994_lig912-1

> <s_i_glide_gridfile>
glide-grid_2aa2

> <i_i_glide_lignum>
1345

> <i_i_glide_rotatable_bonds>
2

> <r_i_docking_score>
-8.92778743607034

> <r_i_glide_ligand_efficiency>
-0.388164671133493

> <r_i_glide_ligand_efficiency_sa>
-1.10388868982774

> <r_i_glide_ligand_efficiency_ln>
-2.15881995474257

> <r_i_glide_gscore>
-8.92778743607034

> <r_i_glide_lipo>
-3.72461449555887

> <r_i_glide_hbond>
-0.378056373777783

> <r_i_glide_metal>
0

> <r_i_glide_rewards>
-2.88630877459831

> <r_i_glide_evdw>
-30.9463806152344

> <r_i_glide_ecoul>
-4.25703477859497

> <r_i_glide_erotb>
0.269336375109536

> <r_i_glide_esite>
-0.0222699196939588

> <r_i_glide_emodel>
-35.1091135410521

> <r_i_glide_energy>
-35.2034153938293

> <r_i_glide_einternal>
4.67610883712769

> <i_i_glide_confnum>
31

> <i_i_glide_posenum>
192

> <r_i_glide_eff_state_penalty>
0

> <s_user_duplicate_titles>
CHEMBL1994_lig912

> <s_m_subgroup_title>
dock_pv

> <s_m_subgroupid>
dock_pv

> <b_m_subgroup_collapsed>
1

$$$$
CHEMBL1994_lig1064
                    3D
 Schrodinger Suite 2021-1.
 47 50  0  0  1  0            999 V2000
   21.4034   74.8090   21.8775 C   0  0  0  0  0  0
   20.4806   75.1041   22.8700 C   0  0  0  0  0  0
   19.2310   74.4922   22.9375 C   0  0  0  0  0  0
   21.1137   73.8607   20.9067 C   0  0  0  0  0  0
   19.8593   73.2276   20.9017 C   0  0  0  0  0  0
   18.9322   73.5760   21.9269 C   0  0  0  0  0  0
   17.7813   72.8797   21.6690 N   0  0  0  0  0  0
   17.9286   72.1640   20.5143 C   0  0  0  0  0  0
   19.2371   72.2482   20.0374 C   0  0  0  0  0  0
   18.3432   74.8305   23.9587 N   0  0  0  0  0  0
   16.9879   75.8963   23.6286 S   0  0  0  0  0  0
   17.8435   77.4615   23.2850 C   0  0  0  0  0  0
   16.3383   75.4624   22.3877 O   0  0  0  0  0  0
   16.2416   76.0842   24.8699 O   0  0  0  0  0  0
   19.9119   71.6034   18.8057 C   0  0  2  0  0  0
   19.0705   70.5329   18.0683 C   0  0  0  0  0  0
   21.2011   70.8261   19.2363 C   0  0  0  0  0  0
   20.2148   72.8038   17.8538 C   0  0  0  0  0  0
   21.9818   70.0561   18.1875 C   0  0  0  0  0  0
   22.6409   71.1825   18.8699 C   0  0  0  0  0  0
   19.4294   70.2440   16.7520 C   0  0  0  0  0  0
   18.8124   69.2618   16.0308 C   0  0  0  0  0  0
   17.7243   68.6352   16.5611 C   0  0  0  0  0  0
   17.3552   68.8241   17.8899 C   0  0  0  0  0  0
   18.0798   69.7315   18.6622 C   0  0  0  0  0  0
   17.0409   67.8644   15.7093 F   0  0  0  0  0  0
   22.3602   75.3092   21.8724 H   0  0  0  0  0  0
   20.7517   75.8311   23.6204 H   0  0  0  0  0  0
   21.8516   73.6119   20.1657 H   0  0  0  0  0  0
   16.9131   72.9391   22.1945 H   0  0  0  0  0  0
   17.0594   71.6433   20.1408 H   0  0  0  0  0  0
   18.5767   74.6295   24.9187 H   0  0  0  0  0  0
   17.0937   78.2496   23.2701 H   0  0  0  0  0  0
   18.5772   77.6402   24.0696 H   0  0  0  0  0  0
   18.3166   77.2796   22.3231 H   0  0  0  0  0  0
   21.0396   70.2933   20.1744 H   0  0  0  0  0  0
   19.2943   73.2687   17.4987 H   0  0  0  0  0  0
   20.7906   73.5928   18.3234 H   0  0  0  0  0  0
   20.8062   72.5322   16.9879 H   0  0  0  0  0  0
   22.2772   69.0620   18.4699 H   0  0  0  0  0  0
   21.9216   70.1776   17.1125 H   0  0  0  0  0  0
   22.8544   72.1041   18.3312 H   0  0  0  0  0  0
   23.5243   70.6929   19.2700 H   0  0  0  0  0  0
   20.1913   70.7830   16.2332 H   0  0  0  0  0  0
   19.0410   69.1086   14.9912 H   0  0  0  0  0  0
   16.5381   68.2623   18.3179 H   0  0  0  0  0  0
   17.8556   69.7884   19.7118 H   0  0  0  0  0  0
  1  2  2  0  0  0
  1  4  1  0  0  0
  1 27  1  0  0  0
  2  3  1  0  0  0
  2 28  1  0  0  0
  3  6  2  0  0  0
  3 10  1  0  0  0
  4  5  2  0  0  0
  4 29  1  0  0  0
  5  9  1  0  0  0
  5  6  1  0  0  0
  6  7  1  0  0  0
  7  8  1  0  0  0
  7 30  1  0  0  0
  8  9  2  0  0  0
  8 31  1  0  0  0
  9 15  1  0  0  0
 10 11  1  0  0  0
 10 32  1  0  0  0
 11 13  2  0  0  0
 11 14  2  0  0  0
 11 12  1  0  0  0
 12 33  1  0  0  0
 12 34  1  0  0  0
 12 35  1  0  0  0
 15 16  1  0  0  0
 15 17  1  0  0  0
 15 18  1  0  0  0
 16 21  2  0  0  0
 16 25  1  0  0  0
 17 19  1  0  0  0
 17 20  1  0  0  0
 17 36  1  0  0  0
 18 37  1  0  0  0
 18 38  1  0  0  0
 18 39  1  0  0  0
 19 20  1  0  0  0
 19 40  1  0  0  0
 19 41  1  0  0  0
 20 42  1  0  0  0
 20 43  1  0  0  0
 21 22  1  0  0  0
 21 44  1  0  0  0
 22 23  2  0  0  0
 22 45  1  0  0  0
 23 24  1  0  0  0
 23 26  1  0  0  0
 24 25  2  0  0  0
 24 46  1  0  0  0
 25 47  1  0  0  0
M  END
> <s_m_entry_id>
9613

> <s_m_entry_name>
dock_pv.53

> <s_m_Source_Path>
/home/csk/Desktop/cluster/DUD-E-result/mcr

> <s_m_Source_File>
dock_pv.maegz

> <i_m_Source_File_Index>
53

> <chembl_id>
CHEMBL391439

> <chembl_pref_name>
None

> <i_lp_mmshare_version>
53161

> <i_f3d_flags>
0

> <r_lp_tautomer_probability>
1

> <s_lp_Force_Field>
OPLS_2005

> <r_lp_Energy>
18.975174

> <b_lp_Chiralities_Consistent>
1

> <s_lp_Variant>
CHEMBL1994_lig1064-1

> <s_i_glide_gridfile>
glide-grid_2aa2

> <i_i_glide_lignum>
1543

> <i_i_glide_rotatable_bonds>
5

> <r_i_docking_score>
-8.90952112549974

> <r_i_glide_ligand_efficiency>
-0.342673889442298

> <r_i_glide_ligand_efficiency_sa>
-1.01517004911616

> <r_i_glide_ligand_efficiency_ln>
-2.09237180180033

> <r_i_glide_gscore>
-8.90952112549974

> <r_i_glide_lipo>
-4.58941204836367

> <r_i_glide_hbond>
-0.32

> <r_i_glide_metal>
0

> <r_i_glide_rewards>
-2.21213345747188

> <r_i_glide_evdw>
-18.5847549438477

> <r_i_glide_ecoul>
-8.4661340713501

> <r_i_glide_erotb>
0.556912456165642

> <r_i_glide_esite>
-0.14573021793493

> <r_i_glide_emodel>
-42.7710488167286

> <r_i_glide_energy>
-27.0508890151978

> <r_i_glide_einternal>
6.2473258972168

> <i_i_glide_confnum>
28

> <i_i_glide_posenum>
29

> <r_i_glide_eff_state_penalty>
0

> <s_user_duplicate_titles>
CHEMBL1994_lig1064,CHEMBL1994_lig384,398783

> <s_m_subgroup_title>
dock_pv

> <s_m_subgroupid>
dock_pv

> <b_m_subgroup_collapsed>
1

$$$$
CHEMBL1994_lig19
                    3D
 Schrodinger Suite 2021-1.
 41 43  0  0  1  0            999 V2000
   19.4475   70.9814   19.0207 C   0  0  0  0  0  0
   20.6462   70.9871   18.2837 C   0  0  0  0  0  0
   18.4141   69.6618   18.5719 S   0  0  0  0  0  0
   17.2693   75.0620   22.2836 N   0  0  0  0  0  0
   19.2626   73.7873   21.5679 C   0  0  0  0  0  0
   19.4410   69.2975   17.2700 C   0  0  0  0  0  0
   18.9121   71.9489   20.0125 C   0  0  0  0  0  0
   17.8753   74.0322   21.5481 C   0  0  0  0  0  0
   20.6058   70.0283   17.2700 C   0  0  0  0  0  0
   19.7541   72.7358   20.7940 C   0  0  0  0  0  0
   17.9963   75.6435   23.3970 C   0  0  0  0  0  0
   18.6410   67.4620   15.6700 N   0  0  0  0  0  0
   20.1961   74.6350   22.4129 C   0  0  2  0  0  0
   19.0047   68.2781   16.3796 C   0  0  0  0  0  0
   19.4410   75.8620   22.9231 C   0  0  0  0  0  0
   17.0278   73.1817   20.8706 C   0  0  0  0  0  0
   17.5334   72.1518   20.1048 C   0  0  0  0  0  0
   21.8269   71.9032   18.4700 C   0  0  0  0  0  0
   17.2671   76.9650   23.6700 C   0  0  0  0  0  0
   17.9659   74.6864   24.5981 C   0  0  0  0  0  0
   21.4809   75.0605   21.6700 C   0  0  0  0  0  0
   16.2806   74.9707   22.4696 H   0  0  0  0  0  0
   21.3975   69.8900   16.5478 H   0  0  0  0  0  0
   20.8113   72.5469   20.8065 H   0  0  0  0  0  0
   20.4766   74.0252   23.2700 H   0  0  0  0  0  0
   19.4358   76.6198   22.1345 H   0  0  0  0  0  0
   20.0192   76.2620   23.7443 H   0  0  0  0  0  0
   15.9599   73.3349   20.9173 H   0  0  0  0  0  0
   16.8260   71.5526   19.5519 H   0  0  0  0  0  0
   21.5653   72.9465   18.2924 H   0  0  0  0  0  0
   22.6539   71.6263   17.8213 H   0  0  0  0  0  0
   22.2364   71.8620   19.4710 H   0  0  0  0  0  0
   17.7261   77.5043   24.4700 H   0  0  0  0  0  0
   17.3288   77.6783   22.8700 H   0  0  0  0  0  0
   16.2180   76.8221   23.9283 H   0  0  0  0  0  0
   18.6369   75.0211   25.3883 H   0  0  0  0  0  0
   16.9714   74.6620   25.0361 H   0  0  0  0  0  0
   18.2422   73.6628   24.3425 H   0  0  0  0  0  0
   22.1505   74.2185   21.4938 H   0  0  0  0  0  0
   21.2527   75.5160   20.7053 H   0  0  0  0  0  0
   22.0448   75.7947   22.2462 H   0  0  0  0  0  0
  1  2  2  0  0  0
  1  3  1  0  0  0
  1  7  1  0  0  0
  2  9  1  0  0  0
  2 18  1  0  0  0
  3  6  1  0  0  0
  4  8  1  0  0  0
  4 11  1  0  0  0
  4 22  1  0  0  0
  5 10  2  0  0  0
  5 13  1  0  0  0
  5  8  1  0  0  0
  6 14  1  0  0  0
  6  9  2  0  0  0
  7 10  1  0  0  0
  7 17  2  0  0  0
  8 16  2  0  0  0
  9 23  1  0  0  0
 10 24  1  0  0  0
 11 19  1  0  0  0
 11 20  1  0  0  0
 11 15  1  0  0  0
 12 14  3  0  0  0
 13 15  1  0  0  0
 13 21  1  0  0  0
 13 25  1  0  0  0
 15 26  1  0  0  0
 15 27  1  0  0  0
 16 17  1  0  0  0
 16 28  1  0  0  0
 17 29  1  0  0  0
 18 30  1  0  0  0
 18 31  1  0  0  0
 18 32  1  0  0  0
 19 33  1  0  0  0
 19 34  1  0  0  0
 19 35  1  0  0  0
 20 36  1  0  0  0
 20 37  1  0  0  0
 20 38  1  0  0  0
 21 39  1  0  0  0
 21 40  1  0  0  0
 21 41  1  0  0  0
M  END
> <s_m_entry_id>
9614

> <s_m_entry_name>
dock_pv.54

> <s_m_Source_Path>
/home/csk/Desktop/cluster/DUD-E-result/mcr

> <s_m_Source_File>
dock_pv.maegz

> <i_m_Source_File_Index>
54

> <chembl_id>
CHEMBL134260

> <chembl_pref_name>
None

> <i_lp_mmshare_version>
53161

> <i_f3d_flags>
0

> <r_lp_tautomer_probability>
1

> <s_lp_Force_Field>
OPLS_2005

> <r_lp_Energy>
17.125546

> <b_lp_Chiralities_Consistent>
1

> <s_lp_Variant>
CHEMBL1994_lig19-1

> <s_i_glide_gridfile>
glide-grid_2aa2

> <i_i_glide_lignum>
19

> <i_i_glide_rotatable_bonds>
1

> <r_i_docking_score>
-8.90384566939161

> <r_i_glide_ligand_efficiency>
-0.42399265092341

> <r_i_glide_ligand_efficiency_sa>
-1.16976357405339

> <r_i_glide_ligand_efficiency_ln>
-2.20145784984281

> <r_i_glide_gscore>
-8.90384566939161

> <r_i_glide_lipo>
-4.49020771351071

> <r_i_glide_hbond>
-0.30522855745989

> <r_i_glide_metal>
0

> <r_i_glide_rewards>
-2.46444291144165

> <r_i_glide_evdw>
-28.0435333251953

> <r_i_glide_ecoul>
-3.00183391571045

> <r_i_glide_erotb>
0.208485266636968

> <r_i_glide_esite>
0

> <r_i_glide_emodel>
-31.3717914714413

> <r_i_glide_energy>
-31.0453672409058

> <r_i_glide_einternal>
1.26453304290771

> <i_i_glide_confnum>
2

> <i_i_glide_posenum>
280

> <r_i_glide_eff_state_penalty>
0

> <s_user_duplicate_titles>
CHEMBL1994_lig19

> <s_m_subgroup_title>
dock_pv

> <s_m_subgroupid>
dock_pv

> <b_m_subgroup_collapsed>
1

$$$$
CHEMBL1994_lig70
                    3D
 Schrodinger Suite 2021-1.
 55 58  0  0  1  0            999 V2000
   18.7746   71.2100   19.1172 C   0  0  2  0  0  0
   18.2752   70.9951   20.5636 C   0  0  2  0  0  0
   18.9799   74.5851   22.1391 C   0  0  1  0  0  0
   18.5122   74.1201   23.5540 C   0  0  0  0  0  0
   18.4818   73.5262   21.0781 C   0  0  2  0  0  0
   18.7549   72.0803   21.5477 C   0  0  1  0  0  0
   20.2803   70.8135   19.3763 C   0  0  1  0  0  0
   18.4321   68.4843   16.7352 N   0  3  0  0  0  0
   17.8408   74.8953   24.4093 C   0  0  0  0  0  0
   18.5526   72.6961   18.6587 C   0  0  0  0  0  0
   17.9164   70.2553   18.1933 C   0  0  0  0  0  0
   18.5810   68.1248   15.6701 N   0  5  0  0  0  0
   18.9365   69.6857   21.0086 C   0  0  0  0  0  0
   19.0854   73.7302   19.6690 C   0  0  0  0  0  0
   18.3420   75.9769   21.8201 C   0  0  0  0  0  0
   20.2983   69.6800   20.4173 C   0  0  0  0  0  0
   18.0642   71.8025   22.8700 C   0  0  0  0  0  0
   18.3344   68.8965   17.9653 C   0  0  0  0  0  0
   21.2301   70.5180   18.2307 C   0  0  0  0  0  0
   18.6512   72.6635   23.9308 C   0  0  0  0  0  0
   17.3023   76.1420   24.0458 C   0  0  0  0  0  0
   16.8807   70.6607   17.6701 O   0  0  0  0  0  0
   22.2411   69.8622   18.4282 O   0  0  0  0  0  0
   16.2412   76.5472   24.4701 O   0  0  0  0  0  0
   18.1168   76.8839   23.0522 C   0  0  0  0  0  0
   20.5193   74.7883   22.1730 C   0  0  0  0  0  0
   20.9285   71.0625   16.8700 C   0  0  0  0  0  0
   19.8281   71.9931   21.7120 H   0  0  0  0  0  0
   17.1833   70.9325   20.5977 H   0  0  0  0  0  0
   17.3964   73.6087   20.9853 H   0  0  0  0  0  0
   20.7865   71.6602   19.8356 H   0  0  0  0  0  0
   17.4313   74.4249   25.2700 H   0  0  0  0  0  0
   19.0665   72.8911   17.7193 H   0  0  0  0  0  0
   17.4918   72.9178   18.5193 H   0  0  0  0  0  0
   18.3557   68.7961   20.7785 H   0  0  0  0  0  0
   19.1583   69.6690   22.0550 H   0  0  0  0  0  0
   18.8651   74.7379   19.3160 H   0  0  0  0  0  0
   20.1735   73.6927   19.7075 H   0  0  0  0  0  0
   18.9341   76.5170   21.0827 H   0  0  0  0  0  0
   17.3727   75.8408   21.3359 H   0  0  0  0  0  0
   20.4892   68.6804   20.0702 H   0  0  0  0  0  0
   21.0410   69.8630   21.1872 H   0  0  0  0  0  0
   17.0046   71.8620   22.7288 H   0  0  0  0  0  0
   18.1502   70.7982   23.2595 H   0  0  0  0  0  0
   18.6017   68.1871   18.7385 H   0  0  0  0  0  0
   19.6989   72.4054   24.0699 H   0  0  0  0  0  0
   18.1634   72.4276   24.8782 H   0  0  0  0  0  0
   17.5340   77.7848   22.8700 H   0  0  0  0  0  0
   19.0408   77.1765   23.5437 H   0  0  0  0  0  0
   20.8837   75.2907   21.2766 H   0  0  0  0  0  0
   20.8242   75.4031   23.0210 H   0  0  0  0  0  0
   21.0697   73.8577   22.2351 H   0  0  0  0  0  0
   21.0169   72.1488   16.8707 H   0  0  0  0  0  0
   19.9399   70.7802   16.5216 H   0  0  0  0  0  0
   21.6510   70.6734   16.1490 H   0  0  0  0  0  0
  1  2  1  0  0  0
  1  7  1  0  0  0
  1 10  1  0  0  0
  1 11  1  0  0  0
  2  6  1  0  0  0
  2 13  1  0  0  0
  2 29  1  0  0  0
  3  5  1  0  0  0
  3  4  1  0  0  0
  3 15  1  0  0  0
  3 26  1  0  0  0
  4  9  2  0  0  0
  4 20  1  0  0  0
  5 14  1  0  0  0
  5  6  1  0  0  0
  5 30  1  0  0  0
  6 17  1  0  0  0
  6 28  1  0  0  0
  7 16  1  0  0  0
  7 19  1  0  0  0
  7 31  1  0  0  0
  8 18  2  0  0  0
  8 12  2  0  0  0
  9 21  1  0  0  0
  9 32  1  0  0  0
 10 14  1  0  0  0
 10 33  1  0  0  0
 10 34  1  0  0  0
 11 18  1  0  0  0
 11 22  2  0  0  0
 13 16  1  0  0  0
 13 35  1  0  0  0
 13 36  1  0  0  0
 14 37  1  0  0  0
 14 38  1  0  0  0
 15 25  1  0  0  0
 15 39  1  0  0  0
 15 40  1  0  0  0
 16 41  1  0  0  0
 16 42  1  0  0  0
 17 20  1  0  0  0
 17 43  1  0  0  0
 17 44  1  0  0  0
 18 45  1  0  0  0
 19 23  2  0  0  0
 19 27  1  0  0  0
 20 46  1  0  0  0
 20 47  1  0  0  0
 21 25  1  0  0  0
 21 24  2  0  0  0
 25 48  1  0  0  0
 25 49  1  0  0  0
 26 50  1  0  0  0
 26 51  1  0  0  0
 26 52  1  0  0  0
 27 53  1  0  0  0
 27 54  1  0  0  0
 27 55  1  0  0  0
M  CHG  2   8   1  12  -1
M  END
> <s_m_entry_id>
9615

> <s_m_entry_name>
dock_pv.55

> <s_m_Source_Path>
/home/csk/Desktop/cluster/DUD-E-result/mcr

> <s_m_Source_File>
dock_pv.maegz

> <i_m_Source_File_Index>
55

> <chembl_id>
CHEMBL2112397

> <chembl_pref_name>
None

> <i_lp_mmshare_version>
53161

> <i_f3d_flags>
0

> <r_lp_tautomer_probability>
0.99999997

> <s_lp_Force_Field>
OPLS_2005

> <r_lp_Energy>
54.593057

> <b_lp_Chiralities_Consistent>
1

> <s_lp_Variant>
CHEMBL1994_lig70-6

> <s_i_glide_gridfile>
glide-grid_2aa2

> <i_i_glide_lignum>
102

> <i_i_glide_rotatable_bonds>
3

> <r_i_docking_score>
-8.89516435431434

> <r_i_glide_ligand_efficiency>
-0.329450531641272

> <r_i_glide_ligand_efficiency_sa>
-0.988351593838001

> <r_i_glide_ligand_efficiency_ln>
-2.07064761343881

> <r_i_glide_gscore>
-8.89516435431434

> <r_i_glide_lipo>
-3.86712028552957

> <r_i_glide_hbond>
-0.32

> <r_i_glide_metal>
0

> <r_i_glide_rewards>
-3.26425055429744

> <r_i_glide_evdw>
-21.8197460174561

> <r_i_glide_ecoul>
-4.0826530456543

> <r_i_glide_erotb>
0.28386614039637

> <r_i_glide_esite>
-0.0242743971627487

> <r_i_glide_emodel>
-57.5548394202694

> <r_i_glide_energy>
-25.9023990631104

> <r_i_glide_einternal>
15.2134609222412

> <i_i_glide_confnum>
3

> <i_i_glide_posenum>
110

> <r_i_glide_eff_state_penalty>
0

> <s_user_duplicate_titles>
CHEMBL1994_lig70

> <s_m_subgroup_title>
dock_pv

> <s_m_subgroupid>
dock_pv

> <b_m_subgroup_collapsed>
1

$$$$
CHEMBL1994_lig528
                    3D
 Schrodinger Suite 2021-1.
 40 42  0  0  1  0            999 V2000
   18.5095   71.7223   22.0955 C   0  0  0  0  0  0
   18.6509   72.5912   23.3391 C   0  0  0  0  0  0
   18.3957   74.0253   23.0413 N   0  0  2  0  0  0
   19.5268   75.0165   22.1279 S   0  0  0  0  0  0
   19.8448   74.1717   20.5826 C   0  0  0  0  0  0
   18.8313   76.2649   21.8138 O   0  0  0  0  0  0
   20.7893   75.0490   22.8691 O   0  0  0  0  0  0
   19.4456   70.7353   21.7829 C   0  0  0  0  0  0
   19.3972   70.0626   20.5651 C   0  0  0  0  0  0
   18.4010   70.3901   19.6442 C   0  0  0  0  0  0
   17.4410   71.3433   19.9870 C   0  0  0  0  0  0
   17.4573   71.9658   21.2207 C   0  0  0  0  0  0
   18.3588   69.7582   18.3808 N   0  0  0  0  0  0
   19.4157   69.4620   17.5584 C   0  0  0  0  0  0
   18.8842   68.7667   16.4860 C   0  0  0  0  0  0
   17.5722   68.6620   16.5721 N   0  0  0  0  0  0
   17.2605   69.2870   17.6853 C   0  0  0  0  0  0
   15.8561   69.4750   18.1989 C   0  0  0  0  0  0
   18.9061   74.1646   19.5454 C   0  0  0  0  0  0
   19.1764   73.4625   18.3675 C   0  0  0  0  0  0
   20.3694   72.7528   18.2351 C   0  0  0  0  0  0
   21.2947   72.7477   19.2700 C   0  0  0  0  0  0
   21.0421   73.4690   20.4340 C   0  0  0  0  0  0
   17.7174   74.7931   19.6826 F   0  0  0  0  0  0
   20.6410   72.0636   17.1072 F   0  0  0  0  0  0
   17.8688   72.2555   24.0215 H   0  0  0  0  0  0
   19.5874   72.4733   23.8806 H   0  0  0  0  0  0
   17.8714   74.5299   23.7604 H   0  0  0  0  0  0
   20.2410   70.5054   22.4700 H   0  0  0  0  0  0
   20.1427   69.3136   20.3401 H   0  0  0  0  0  0
   16.6894   71.6627   19.2986 H   0  0  0  0  0  0
   16.7116   72.7150   21.4485 H   0  0  0  0  0  0
   20.4276   69.7260   17.8268 H   0  0  0  0  0  0
   19.4414   68.3367   15.6699 H   0  0  0  0  0  0
   15.0410   69.0620   17.6700 H   0  0  0  0  0  0
   15.5637   70.5179   18.1450 H   0  0  0  0  0  0
   15.7643   69.0620   19.2016 H   0  0  0  0  0  0
   18.4500   73.4590   17.5700 H   0  0  0  0  0  0
   22.2180   72.1974   19.1647 H   0  0  0  0  0  0
   21.7784   73.4618   21.2255 H   0  0  0  0  0  0
  1  2  1  0  0  0
  1  8  2  0  0  0
  1 12  1  0  0  0
  2  3  1  0  0  0
  2 26  1  0  0  0
  2 27  1  0  0  0
  3  4  1  0  0  0
  3 28  1  0  0  0
  4  5  1  0  0  0
  4  6  2  0  0  0
  4  7  2  0  0  0
  5 19  2  0  0  0
  5 23  1  0  0  0
  8  9  1  0  0  0
  8 29  1  0  0  0
  9 10  2  0  0  0
  9 30  1  0  0  0
 10 11  1  0  0  0
 10 13  1  0  0  0
 11 12  2  0  0  0
 11 31  1  0  0  0
 12 32  1  0  0  0
 13 14  1  0  0  0
 13 17  1  0  0  0
 14 15  2  0  0  0
 14 33  1  0  0  0
 15 16  1  0  0  0
 15 34  1  0  0  0
 16 17  2  0  0  0
 17 18  1  0  0  0
 18 35  1  0  0  0
 18 36  1  0  0  0
 18 37  1  0  0  0
 19 20  1  0  0  0
 19 24  1  0  0  0
 20 21  2  0  0  0
 20 38  1  0  0  0
 21 22  1  0  0  0
 21 25  1  0  0  0
 22 23  2  0  0  0
 22 39  1  0  0  0
 23 40  1  0  0  0
M  END
> <s_m_entry_id>
9617

> <s_m_entry_name>
dock_pv.57

> <s_m_Source_Path>
/home/csk/Desktop/cluster/DUD-E-result/mcr

> <s_m_Source_File>
dock_pv.maegz

> <i_m_Source_File_Index>
57

> <chembl_id>
CHEMBL3086024

> <chembl_pref_name>
None

> <i_lp_mmshare_version>
53161

> <i_f3d_flags>
0

> <r_lp_tautomer_probability>
1

> <s_lp_Force_Field>
OPLS_2005

> <r_lp_Energy>
13.173663

> <b_lp_Chiralities_Consistent>
1

> <s_lp_Variant>
CHEMBL1994_lig528-1

> <s_i_glide_gridfile>
glide-grid_2aa2

> <i_i_glide_lignum>
839

> <i_i_glide_rotatable_bonds>
5

> <r_i_docking_score>
-8.88342536709216

> <r_i_glide_ligand_efficiency>
-0.355337014683686

> <r_i_glide_ligand_efficiency_sa>
-1.03901173286389

> <r_i_glide_ligand_efficiency_ln>
-2.10563802677688

> <r_i_glide_gscore>
-8.88342536709216

> <r_i_glide_lipo>
-4.02833374537633

> <r_i_glide_hbond>
0

> <r_i_glide_metal>
0

> <r_i_glide_rewards>
-3.13665611882854

> <r_i_glide_evdw>
-39.6850814819336

> <r_i_glide_ecoul>
-2.03396105766296

> <r_i_glide_erotb>
0.581998680034289

> <r_i_glide_esite>
-0.0110859501754515

> <r_i_glide_emodel>
-60.649401914283

> <r_i_glide_energy>
-41.7190425395966

> <r_i_glide_einternal>
5.33870124816895

> <i_i_glide_confnum>
7

> <i_i_glide_posenum>
263

> <r_i_glide_eff_state_penalty>
0

> <s_user_duplicate_titles>
CHEMBL1994_lig528

> <s_m_subgroup_title>
dock_pv

> <s_m_subgroupid>
dock_pv

> <b_m_subgroup_collapsed>
1

$$$$
CHEMBL1994_lig416
                    3D
 Schrodinger Suite 2021-1.
 38 41  0  0  1  0            999 V2000
   18.2160   71.8737   19.0683 C   0  0  0  0  0  0
   19.1571   72.8193   19.4847 C   0  0  0  0  0  0
   20.4539   72.8070   18.9471 C   0  0  0  0  0  0
   20.8321   71.8031   18.0570 C   0  0  0  0  0  0
   18.6115   70.8527   18.2160 C   0  0  0  0  0  0
   19.9097   70.8232   17.7067 C   0  0  0  0  0  0
   20.3224   69.7746   16.9164 O   0  0  0  0  0  0
   19.2911   69.0614   16.1930 C   0  0  0  0  0  0
   17.8939   68.9863   16.8665 C   0  0  0  0  0  0
   17.7241   69.8554   17.8661 N   0  0  0  0  0  0
   16.9981   68.2620   16.4581 O   0  0  0  0  0  0
   18.8359   73.6640   20.6256 C   0  0  0  0  0  0
   19.7499   73.4489   21.8659 C   0  0  1  0  0  0
   20.1651   75.0624   22.6331 S   0  0  0  0  0  0
   17.8208   74.4496   20.6319 N   0  0  0  0  0  0
   17.5891   75.1338   21.8013 N   0  0  0  0  0  0
   18.4947   75.5874   22.7321 C   0  0  0  0  0  0
   17.9125   76.2843   23.6703 N   0  0  0  0  0  0
   16.5492   76.2619   23.3988 N   0  0  0  0  0  0
   16.3890   75.5470   22.3095 C   0  0  0  0  0  0
   19.1064   72.4675   22.8937 C   0  0  0  0  0  0
   18.6936   71.0769   22.3479 C   0  0  0  0  0  0
   19.8407   70.2625   21.7177 C   0  0  0  0  0  0
   17.2180   71.8627   19.4851 H   0  0  0  0  0  0
   21.1928   73.5291   19.2654 H   0  0  0  0  0  0
   21.8408   71.7621   17.6749 H   0  0  0  0  0  0
   19.1078   69.5511   15.2378 H   0  0  0  0  0  0
   19.6132   68.0411   15.9929 H   0  0  0  0  0  0
   16.8058   69.8355   18.2844 H   0  0  0  0  0  0
   20.7168   73.0625   21.5533 H   0  0  0  0  0  0
   15.4643   75.3102   21.8048 H   0  0  0  0  0  0
   19.8065   72.3341   23.7184 H   0  0  0  0  0  0
   18.2286   72.9230   23.3523 H   0  0  0  0  0  0
   18.2410   70.5004   23.1509 H   0  0  0  0  0  0
   17.8837   71.1887   21.6299 H   0  0  0  0  0  0
   19.4736   69.3371   21.2694 H   0  0  0  0  0  0
   20.3486   70.8060   20.9253 H   0  0  0  0  0  0
   20.5951   70.0069   22.4659 H   0  0  0  0  0  0
  1  2  2  0  0  0
  1  5  1  0  0  0
  1 24  1  0  0  0
  2  3  1  0  0  0
  2 12  1  0  0  0
  3  4  2  0  0  0
  3 25  1  0  0  0
  4  6  1  0  0  0
  4 26  1  0  0  0
  5 10  1  0  0  0
  5  6  2  0  0  0
  6  7  1  0  0  0
  7  8  1  0  0  0
  8  9  1  0  0  0
  8 27  1  0  0  0
  8 28  1  0  0  0
  9 11  2  0  0  0
  9 10  1  0  0  0
 10 29  1  0  0  0
 12 13  1  0  0  0
 12 15  2  0  0  0
 13 14  1  0  0  0
 13 21  1  0  0  0
 13 30  1  0  0  0
 14 17  1  0  0  0
 15 16  1  0  0  0
 16 17  1  0  0  0
 16 20  1  0  0  0
 17 18  2  0  0  0
 18 19  1  0  0  0
 19 20  2  0  0  0
 20 31  1  0  0  0
 21 22  1  0  0  0
 21 32  1  0  0  0
 21 33  1  0  0  0
 22 23  1  0  0  0
 22 34  1  0  0  0
 22 35  1  0  0  0
 23 36  1  0  0  0
 23 37  1  0  0  0
 23 38  1  0  0  0
M  END
> <s_m_entry_id>
9618

> <s_m_entry_name>
dock_pv.58

> <s_m_Source_Path>
/home/csk/Desktop/cluster/DUD-E-result/mcr

> <s_m_Source_File>
dock_pv.maegz

> <i_m_Source_File_Index>
58

> <chembl_id>
CHEMBL1928870

> <chembl_pref_name>
None

> <i_lp_mmshare_version>
53161

> <i_f3d_flags>
0

> <r_lp_tautomer_probability>
1

> <s_lp_Force_Field>
OPLS_2005

> <r_lp_Energy>
29.700325

> <b_lp_Chiralities_Consistent>
1

> <s_lp_Variant>
CHEMBL1994_lig416-2

> <s_i_glide_gridfile>
glide-grid_2aa2

> <i_i_glide_lignum>
689

> <i_i_glide_rotatable_bonds>
3

> <r_i_docking_score>
-8.87727091012958

> <r_i_glide_ligand_efficiency>
-0.385968300440417

> <r_i_glide_ligand_efficiency_sa>
-1.09764250374471

> <r_i_glide_ligand_efficiency_ln>
-2.14660460071157

> <r_i_glide_gscore>
-8.87727091012958

> <r_i_glide_lipo>
-3.07108990065247

> <r_i_glide_hbond>
-0.186801021985635

> <r_i_glide_metal>
0

> <r_i_glide_rewards>
-3.3009813035641

> <r_i_glide_evdw>
-42.9794731140137

> <r_i_glide_ecoul>
-3.43928050994873

> <r_i_glide_erotb>
0.346467048265611

> <r_i_glide_esite>
0

> <r_i_glide_emodel>
-53.532281982809

> <r_i_glide_energy>
-46.4187536239624

> <r_i_glide_einternal>
6.1907205581665

> <i_i_glide_confnum>
12

> <i_i_glide_posenum>
122

> <r_i_glide_eff_state_penalty>
0

> <s_user_duplicate_titles>
CHEMBL1994_lig416

> <s_m_subgroup_title>
dock_pv

> <s_m_subgroupid>
dock_pv

> <b_m_subgroup_collapsed>
1

$$$$
CHEMBL1994_lig70
                    3D
 Schrodinger Suite 2021-1.
 55 58  0  0  1  0            999 V2000
   18.4211   74.0996   21.2513 C   0  0  2  0  0  0
   19.5337   74.0507   20.1288 C   0  0  2  0  0  0
   18.5949   70.4592   18.5567 C   0  0  1  0  0  0
   19.7131   70.4095   17.4884 C   0  0  0  0  0  0
   18.3850   71.9317   19.0529 C   0  0  2  0  0  0
   19.7026   72.6669   19.4057 C   0  0  1  0  0  0
   19.2006   73.6132   22.5073 C   0  0  2  0  0  0
   16.7684   76.6652   23.3683 N   0  3  0  0  0  0
   19.6750   69.5322   16.4701 C   0  0  0  0  0  0
   17.1289   73.3584   20.7886 C   0  0  0  0  0  0
   18.0145   75.5416   21.6844 C   0  0  0  0  0  0
   16.6410   77.5453   24.0699 N   0  5  0  0  0  0
   20.8611   74.4271   20.8421 C   0  0  0  0  0  0
   17.3184   71.9843   20.1430 C   0  0  0  0  0  0
   17.2562   69.9601   17.9247 C   0  0  0  0  0  0
   20.6111   74.2617   22.3428 C   0  0  0  0  0  0
   20.4920   72.7444   18.0966 C   0  0  0  0  0  0
   16.8392   75.6775   22.5251 C   0  0  0  0  0  0
   19.0410   72.0955   22.6584 C   0  0  0  0  0  0
   20.9173   71.3305   17.6683 C   0  0  0  0  0  0
   18.5752   68.6446   16.1989 C   0  0  0  0  0  0
   18.7331   76.5012   21.4191 O   0  0  0  0  0  0
   19.6871   71.2292   22.0698 O   0  0  0  0  0  0
   18.6410   67.8621   15.2714 O   0  0  0  0  0  0
   17.3745   68.6620   17.1366 C   0  0  0  0  0  0
   19.0392   69.4664   19.6738 C   0  0  0  0  0  0
   17.8618   71.6544   23.4557 C   0  0  0  0  0  0
   20.3165   72.0378   20.0378 H   0  0  0  0  0  0
   19.2927   74.7917   19.3669 H   0  0  0  0  0  0
   17.9576   72.5227   18.2384 H   0  0  0  0  0  0
   18.7773   73.9943   23.4400 H   0  0  0  0  0  0
   20.5220   69.4878   15.8030 H   0  0  0  0  0  0
   16.4203   73.1976   21.5970 H   0  0  0  0  0  0
   16.6410   74.0074   20.0696 H   0  0  0  0  0  0
   21.1517   75.4521   20.6068 H   0  0  0  0  0  0
   21.6993   73.7982   20.5393 H   0  0  0  0  0  0
   16.3764   71.6236   19.7571 H   0  0  0  0  0  0
   17.4968   71.2454   20.8996 H   0  0  0  0  0  0
   16.5052   69.7865   18.6948 H   0  0  0  0  0  0
   16.8397   70.7248   17.2693 H   0  0  0  0  0  0
   20.5632   75.2579   22.7858 H   0  0  0  0  0  0
   21.4617   73.8621   22.8701 H   0  0  0  0  0  0
   19.9413   73.2929   17.3300 H   0  0  0  0  0  0
   21.4023   73.3261   18.2490 H   0  0  0  0  0  0
   15.9690   75.0367   22.4775 H   0  0  0  0  0  0
   21.6218   70.9074   18.3861 H   0  0  0  0  0  0
   21.4448   71.4031   16.7213 H   0  0  0  0  0  0
   16.4647   68.4113   16.5925 H   0  0  0  0  0  0
   17.5533   67.8622   17.8511 H   0  0  0  0  0  0
   18.3732   69.4332   20.5304 H   0  0  0  0  0  0
   19.0410   68.4399   19.3150 H   0  0  0  0  0  0
   20.0416   69.6804   20.0451 H   0  0  0  0  0  0
   17.7506   72.2151   24.3841 H   0  0  0  0  0  0
   18.0894   70.6430   23.6700 H   0  0  0  0  0  0
   16.9536   71.6355   22.8696 H   0  0  0  0  0  0
  1  2  1  0  0  0
  1  7  1  0  0  0
  1 10  1  0  0  0
  1 11  1  0  0  0
  2  6  1  0  0  0
  2 13  1  0  0  0
  2 29  1  0  0  0
  3  5  1  0  0  0
  3  4  1  0  0  0
  3 15  1  0  0  0
  3 26  1  0  0  0
  4  9  2  0  0  0
  4 20  1  0  0  0
  5 14  1  0  0  0
  5  6  1  0  0  0
  5 30  1  0  0  0
  6 17  1  0  0  0
  6 28  1  0  0  0
  7 16  1  0  0  0
  7 19  1  0  0  0
  7 31  1  0  0  0
  8 18  2  0  0  0
  8 12  2  0  0  0
  9 21  1  0  0  0
  9 32  1  0  0  0
 10 14  1  0  0  0
 10 33  1  0  0  0
 10 34  1  0  0  0
 11 18  1  0  0  0
 11 22  2  0  0  0
 13 16  1  0  0  0
 13 35  1  0  0  0
 13 36  1  0  0  0
 14 37  1  0  0  0
 14 38  1  0  0  0
 15 25  1  0  0  0
 15 39  1  0  0  0
 15 40  1  0  0  0
 16 41  1  0  0  0
 16 42  1  0  0  0
 17 20  1  0  0  0
 17 43  1  0  0  0
 17 44  1  0  0  0
 18 45  1  0  0  0
 19 23  2  0  0  0
 19 27  1  0  0  0
 20 46  1  0  0  0
 20 47  1  0  0  0
 21 25  1  0  0  0
 21 24  2  0  0  0
 25 48  1  0  0  0
 25 49  1  0  0  0
 26 50  1  0  0  0
 26 51  1  0  0  0
 26 52  1  0  0  0
 27 53  1  0  0  0
 27 54  1  0  0  0
 27 55  1  0  0  0
M  CHG  2   8   1  12  -1
M  END
> <s_m_entry_id>
9619

> <s_m_entry_name>
dock_pv.59

> <s_m_Source_Path>
/home/csk/Desktop/cluster/DUD-E-result/mcr

> <s_m_Source_File>
dock_pv.maegz

> <i_m_Source_File_Index>
59

> <chembl_id>
CHEMBL2112397

> <chembl_pref_name>
None

> <i_lp_mmshare_version>
53161

> <i_f3d_flags>
0

> <r_lp_tautomer_probability>
0.99999997

> <s_lp_Force_Field>
OPLS_2005

> <r_lp_Energy>
55.642637

> <b_lp_Chiralities_Consistent>
1

> <s_lp_Variant>
CHEMBL1994_lig70-2

> <s_i_glide_gridfile>
glide-grid_2aa2

> <i_i_glide_lignum>
98

> <i_i_glide_rotatable_bonds>
3

> <r_i_docking_score>
-8.85735082950624

> <r_i_glide_ligand_efficiency>
-0.328050030722453

> <r_i_glide_ligand_efficiency_sa>
-0.984150091086161

> <r_i_glide_ligand_efficiency_ln>
-2.06184524826817

> <r_i_glide_gscore>
-8.85735082950624

> <r_i_glide_lipo>
-4.47961338497186

> <r_i_glide_hbond>
-0.108336742830619

> <r_i_glide_metal>
0

> <r_i_glide_rewards>
-3.12325828722935

> <r_i_glide_evdw>
-14.4451847076416

> <r_i_glide_ecoul>
-4.50859451293945

> <r_i_glide_erotb>
0.28386614039637

> <r_i_glide_esite>
-0.0314601425477824

> <r_i_glide_emodel>
-44.379372857961

> <r_i_glide_energy>
-18.9537792205811

> <r_i_glide_einternal>
8.64186477661133

> <i_i_glide_confnum>
1

> <i_i_glide_posenum>
124

> <r_i_glide_eff_state_penalty>
0

> <s_user_duplicate_titles>
CHEMBL1994_lig70

> <s_m_subgroup_title>
dock_pv

> <s_m_subgroupid>
dock_pv

> <b_m_subgroup_collapsed>
1

$$$$
CHEMBL1994_lig1039
                    3D
 Schrodinger Suite 2021-1.
 38 41  0  0  1  0            999 V2000
   17.0413   72.9099   20.8700 C   0  0  0  0  0  0
   19.6778   73.3901   20.0976 C   0  0  0  0  0  0
   17.6764   74.0645   21.2699 C   0  0  0  0  0  0
   19.0383   74.2543   20.9991 C   0  0  0  0  0  0
   19.7294   75.2550   21.8565 C   0  0  0  0  0  0
   18.9938   75.8603   22.8395 C   0  0  0  0  0  0
   17.5476   75.8307   22.9387 C   0  0  0  0  0  0
   16.9926   74.9709   22.0738 N   0  0  0  0  0  0
   19.0284   72.2361   19.6462 C   0  0  0  0  0  0
   17.7161   72.0059   20.0687 C   0  0  0  0  0  0
   17.0413   70.8608   19.7635 O   0  0  0  0  0  0
   17.3101   70.3627   18.4720 C   0  0  0  0  0  0
   21.2507   75.3631   21.7594 C   0  0  0  0  0  0
   21.8411   74.1818   21.6210 F   0  0  0  0  0  0
   21.6021   76.1599   20.7601 F   0  0  0  0  0  0
   21.7227   75.8620   22.8706 F   0  0  0  0  0  0
   16.8610   76.5343   23.6718 O   0  0  0  0  0  0
   19.6000   71.3451   18.7462 N   0  0  0  0  0  0
   18.8229   70.1506   18.3267 C   0  0  2  0  0  0
   19.1586   69.8119   16.8726 C   0  0  0  0  0  0
   20.6434   69.5646   16.7166 C   0  0  0  0  0  0
   21.4774   70.6733   17.3458 C   0  0  0  0  0  0
   21.0322   71.0263   18.7665 C   0  0  0  0  0  0
   16.0563   72.6987   21.2420 H   0  0  0  0  0  0
   20.6882   73.5814   19.7794 H   0  0  0  0  0  0
   19.4409   76.4401   23.6276 H   0  0  0  0  0  0
   15.9967   74.8824   22.1989 H   0  0  0  0  0  0
   16.7684   69.4259   18.3370 H   0  0  0  0  0  0
   16.9394   71.0676   17.7270 H   0  0  0  0  0  0
   19.1046   69.3056   18.9584 H   0  0  0  0  0  0
   18.5738   68.9623   16.5169 H   0  0  0  0  0  0
   18.8908   70.6502   16.2399 H   0  0  0  0  0  0
   20.9277   69.4323   15.6731 H   0  0  0  0  0  0
   20.8798   68.6621   17.2503 H   0  0  0  0  0  0
   21.4368   71.5699   16.7329 H   0  0  0  0  0  0
   22.5257   70.3860   17.3636 H   0  0  0  0  0  0
   21.6379   71.8552   19.1288 H   0  0  0  0  0  0
   21.2059   70.1945   19.4515 H   0  0  0  0  0  0
  1  3  1  0  0  0
  1 10  2  0  0  0
  1 24  1  0  0  0
  2  9  2  0  0  0
  2  4  1  0  0  0
  2 25  1  0  0  0
  3  4  2  0  0  0
  3  8  1  0  0  0
  4  5  1  0  0  0
  5 13  1  0  0  0
  5  6  2  0  0  0
  6  7  1  0  0  0
  6 26  1  0  0  0
  7 17  2  0  0  0
  7  8  1  0  0  0
  8 27  1  0  0  0
  9 18  1  0  0  0
  9 10  1  0  0  0
 10 11  1  0  0  0
 11 12  1  0  0  0
 12 19  1  0  0  0
 12 28  1  0  0  0
 12 29  1  0  0  0
 13 14  1  0  0  0
 13 15  1  0  0  0
 13 16  1  0  0  0
 18 19  1  0  0  0
 18 23  1  0  0  0
 19 20  1  0  0  0
 19 30  1  0  0  0
 20 21  1  0  0  0
 20 31  1  0  0  0
 20 32  1  0  0  0
 21 22  1  0  0  0
 21 33  1  0  0  0
 21 34  1  0  0  0
 22 23  1  0  0  0
 22 35  1  0  0  0
 22 36  1  0  0  0
 23 37  1  0  0  0
 23 38  1  0  0  0
M  END
> <s_m_entry_id>
9620

> <s_m_entry_name>
dock_pv.60

> <s_m_Source_Path>
/home/csk/Desktop/cluster/DUD-E-result/mcr

> <s_m_Source_File>
dock_pv.maegz

> <i_m_Source_File_Index>
60

> <chembl_id>
CHEMBL226609

> <chembl_pref_name>
None

> <i_lp_mmshare_version>
53161

> <i_f3d_flags>
0

> <r_lp_tautomer_probability>
1

> <s_lp_Force_Field>
OPLS_2005

> <r_lp_Energy>
35.046772

> <b_lp_Chiralities_Consistent>
1

> <s_lp_Variant>
CHEMBL1994_lig1039-1

> <s_i_glide_gridfile>
glide-grid_2aa2

> <i_i_glide_lignum>
1498

> <i_i_glide_rotatable_bonds>
1

> <r_i_docking_score>
-8.85658519248422

> <r_i_glide_ligand_efficiency>
-0.385068921412357

> <r_i_glide_ligand_efficiency_sa>
-1.09508478942712

> <r_i_glide_ligand_efficiency_ln>
-2.1416026066172

> <r_i_glide_gscore>
-8.85658519248422

> <r_i_glide_lipo>
-4.45928724075784

> <r_i_glide_hbond>
-0.00964738895579285

> <r_i_glide_metal>
0

> <r_i_glide_rewards>
-2.76961060497035

> <r_i_glide_evdw>
-28.401403427124

> <r_i_glide_ecoul>
-1.23218929767609

> <r_i_glide_erotb>
0

> <r_i_glide_esite>
-0.0131413917926216

> <r_i_glide_emodel>
-33.8893454213899

> <r_i_glide_energy>
-29.6335927248001

> <r_i_glide_einternal>
3.04843735694885

> <i_i_glide_confnum>
2

> <i_i_glide_posenum>
9

> <r_i_glide_eff_state_penalty>
0

> <s_user_duplicate_titles>
CHEMBL1994_lig1039

> <s_m_subgroup_title>
dock_pv

> <s_m_subgroupid>
dock_pv

> <b_m_subgroup_collapsed>
1

$$$$
CHEMBL1994_lig536
                    3D
 Schrodinger Suite 2021-1.
 40 42  0  0  1  0            999 V2000
   18.5073   71.6012   21.9830 C   0  0  0  0  0  0
   18.5946   72.4302   23.2626 C   0  0  0  0  0  0
   18.2667   73.8627   23.0382 N   0  0  2  0  0  0
   19.3696   74.9537   22.2149 S   0  0  0  0  0  0
   19.5660   74.2728   20.5846 C   0  0  0  0  0  0
   18.6996   76.2514   22.0917 O   0  0  0  0  0  0
   20.6737   74.8548   22.8699 O   0  0  0  0  0  0
   17.4430   71.7914   21.1032 C   0  0  0  0  0  0
   17.4408   71.1472   19.8735 C   0  0  0  0  0  0
   18.4554   70.2525   19.5336 C   0  0  0  0  0  0
   19.4681   69.9778   20.4547 C   0  0  0  0  0  0
   19.4900   70.6617   21.6696 C   0  0  0  0  0  0
   18.3831   69.6173   18.2755 N   0  0  0  0  0  0
   17.2309   69.1118   17.7234 C   0  0  0  0  0  0
   17.5711   68.6618   16.4699 C   0  0  0  0  0  0
   18.8549   68.8175   16.2250 N   0  0  0  0  0  0
   19.3435   69.4119   17.2908 C   0  0  0  0  0  0
   20.8041   69.8203   17.3587 C   0  0  0  0  0  0
   20.7484   73.5975   20.2592 C   0  0  0  0  0  0
   20.8762   72.9757   19.0215 C   0  0  0  0  0  0
   19.8417   73.0630   18.0960 C   0  0  0  0  0  0
   18.6591   73.7243   18.4190 C   0  0  0  0  0  0
   18.5135   74.3245   19.6687 C   0  0  0  0  0  0
   21.9862   72.2620   18.7313 F   0  0  0  0  0  0
   17.3434   74.9204   19.9933 F   0  0  0  0  0  0
   17.8408   72.0192   23.9325 H   0  0  0  0  0  0
   19.5375   72.3380   23.7985 H   0  0  0  0  0  0
   17.6473   74.2966   23.7274 H   0  0  0  0  0  0
   16.6516   72.4890   21.3416 H   0  0  0  0  0  0
   16.6397   71.3555   19.1811 H   0  0  0  0  0  0
   20.2348   69.2459   20.2474 H   0  0  0  0  0  0
   20.2806   70.4534   22.3705 H   0  0  0  0  0  0
   16.2908   69.1431   18.2564 H   0  0  0  0  0  0
   16.8884   68.2615   15.7385 H   0  0  0  0  0  0
   21.4365   69.1124   16.8299 H   0  0  0  0  0  0
   21.2030   69.8838   18.3674 H   0  0  0  0  0  0
   20.9924   70.7720   16.8699 H   0  0  0  0  0  0
   21.5565   73.5127   20.9719 H   0  0  0  0  0  0
   19.9511   72.5956   17.1366 H   0  0  0  0  0  0
   17.8455   73.7323   17.7126 H   0  0  0  0  0  0
  1  2  1  0  0  0
  1  8  2  0  0  0
  1 12  1  0  0  0
  2  3  1  0  0  0
  2 26  1  0  0  0
  2 27  1  0  0  0
  3  4  1  0  0  0
  3 28  1  0  0  0
  4  5  1  0  0  0
  4  6  2  0  0  0
  4  7  2  0  0  0
  5 19  2  0  0  0
  5 23  1  0  0  0
  8  9  1  0  0  0
  8 29  1  0  0  0
  9 10  2  0  0  0
  9 30  1  0  0  0
 10 11  1  0  0  0
 10 13  1  0  0  0
 11 12  2  0  0  0
 11 31  1  0  0  0
 12 32  1  0  0  0
 13 14  1  0  0  0
 13 17  1  0  0  0
 14 15  2  0  0  0
 14 33  1  0  0  0
 15 16  1  0  0  0
 15 34  1  0  0  0
 16 17  2  0  0  0
 17 18  1  0  0  0
 18 35  1  0  0  0
 18 36  1  0  0  0
 18 37  1  0  0  0
 19 20  1  0  0  0
 19 38  1  0  0  0
 20 21  2  0  0  0
 20 24  1  0  0  0
 21 22  1  0  0  0
 21 39  1  0  0  0
 22 23  2  0  0  0
 22 40  1  0  0  0
 23 25  1  0  0  0
M  END
> <s_m_entry_id>
9621

> <s_m_entry_name>
dock_pv.61

> <s_m_Source_Path>
/home/csk/Desktop/cluster/DUD-E-result/mcr

> <s_m_Source_File>
dock_pv.maegz

> <i_m_Source_File_Index>
61

> <chembl_id>
CHEMBL3086025

> <chembl_pref_name>
None

> <i_lp_mmshare_version>
53161

> <i_f3d_flags>
0

> <r_lp_tautomer_probability>
1

> <s_lp_Force_Field>
OPLS_2005

> <r_lp_Energy>
11.788148

> <b_lp_Chiralities_Consistent>
1

> <s_lp_Variant>
CHEMBL1994_lig536-1

> <s_i_glide_gridfile>
glide-grid_2aa2

> <i_i_glide_lignum>
847

> <i_i_glide_rotatable_bonds>
5

> <r_i_docking_score>
-8.85140839524022

> <r_i_glide_ligand_efficiency>
-0.354056335809609

> <r_i_glide_ligand_efficiency_sa>
-1.03526700512315

> <r_i_glide_ligand_efficiency_ln>
-2.09804904497675

> <r_i_glide_gscore>
-8.85140839524022

> <r_i_glide_lipo>
-3.90361814289317

> <r_i_glide_hbond>
-0.0286949190583109

> <r_i_glide_metal>
0

> <r_i_glide_rewards>
-3.17137167317489

> <r_i_glide_evdw>
-43.8880348205566

> <r_i_glide_ecoul>
-0.664239525794983

> <r_i_glide_erotb>
0.581998680034289

> <r_i_glide_esite>
-0.0356846702510575

> <r_i_glide_emodel>
-65.9198801706544

> <r_i_glide_energy>
-44.5522743463516

> <r_i_glide_einternal>
4.71745491027832

> <i_i_glide_confnum>
28

> <i_i_glide_posenum>
338

> <r_i_glide_eff_state_penalty>
0

> <s_user_duplicate_titles>
CHEMBL1994_lig536

> <s_m_subgroup_title>
dock_pv

> <s_m_subgroupid>
dock_pv

> <b_m_subgroup_collapsed>
1

$$$$
CHEMBL1994_lig749
                    3D
 Schrodinger Suite 2021-1.
 32 34  0  0  1  0            999 V2000
   17.3187   68.6621   17.7131 C   0  0  0  0  0  0
   18.4951   68.8881   16.7179 C   0  0  0  0  0  0
   19.3199   69.8757   17.1199 N   0  0  0  0  0  0
   16.9420   69.8265   18.4696 O   0  0  0  0  0  0
   18.0012   70.5135   19.0140 C   0  0  0  0  0  0
   19.1951   70.6114   18.2986 C   0  0  0  0  0  0
   20.2132   71.4401   18.7724 C   0  0  0  0  0  0
   20.0459   72.1365   19.9789 C   0  0  0  0  0  0
   18.8841   71.9199   20.7381 C   0  0  0  0  0  0
   17.8407   71.1474   20.2385 C   0  0  0  0  0  0
   18.6407   68.2617   15.6699 O   0  0  0  0  0  0
   21.0692   73.1282   20.3692 C   0  0  0  0  0  0
   20.9227   74.2591   21.0952 C   0  0  0  0  0  0
   19.6885   74.8112   21.6899 C   0  0  0  0  0  0
   18.4933   74.9876   20.9710 C   0  0  0  0  0  0
   17.3507   75.4618   21.6141 C   0  0  0  0  0  0
   17.3949   75.8052   22.9626 C   0  0  0  0  0  0
   18.5835   75.6680   23.6700 C   0  0  0  0  0  0
   19.7225   75.1755   23.0368 C   0  0  0  0  0  0
   18.4143   74.6616   19.6604 F   0  0  0  0  0  0
   16.2864   76.2621   23.5871 F   0  0  0  0  0  0
   17.6754   67.9072   18.4170 H   0  0  0  0  0  0
   16.4603   68.2618   17.1753 H   0  0  0  0  0  0
   20.1161   70.0272   16.5199 H   0  0  0  0  0  0
   21.1166   71.5679   18.1926 H   0  0  0  0  0  0
   18.7470   72.3990   21.6953 H   0  0  0  0  0  0
   16.9131   71.0615   20.7860 H   0  0  0  0  0  0
   22.0697   72.9008   20.0330 H   0  0  0  0  0  0
   21.8125   74.8482   21.2701 H   0  0  0  0  0  0
   16.4261   75.5602   21.0658 H   0  0  0  0  0  0
   18.6153   75.9315   24.7161 H   0  0  0  0  0  0
   20.6334   75.0670   23.6057 H   0  0  0  0  0  0
  1  2  1  0  0  0
  1  4  1  0  0  0
  1 22  1  0  0  0
  1 23  1  0  0  0
  2  3  1  0  0  0
  2 11  2  0  0  0
  3  6  1  0  0  0
  3 24  1  0  0  0
  4  5  1  0  0  0
  5  6  2  0  0  0
  5 10  1  0  0  0
  6  7  1  0  0  0
  7  8  2  0  0  0
  7 25  1  0  0  0
  8  9  1  0  0  0
  8 12  1  0  0  0
  9 10  2  0  0  0
  9 26  1  0  0  0
 10 27  1  0  0  0
 12 13  2  0  0  0
 12 28  1  0  0  0
 13 14  1  0  0  0
 13 29  1  0  0  0
 14 15  2  0  0  0
 14 19  1  0  0  0
 15 16  1  0  0  0
 15 20  1  0  0  0
 16 17  2  0  0  0
 16 30  1  0  0  0
 17 18  1  0  0  0
 17 21  1  0  0  0
 18 19  2  0  0  0
 18 31  1  0  0  0
 19 32  1  0  0  0
M  END
> <s_m_entry_id>
9622

> <s_m_entry_name>
dock_pv.62

> <s_m_Source_Path>
/home/csk/Desktop/cluster/DUD-E-result/mcr

> <s_m_Source_File>
dock_pv.maegz

> <i_m_Source_File_Index>
62

> <chembl_id>
CHEMBL3774738

> <chembl_pref_name>
None

> <i_lp_mmshare_version>
53161

> <i_f3d_flags>
0

> <r_lp_tautomer_probability>
1

> <s_lp_Force_Field>
OPLS_2005

> <r_lp_Energy>
28.408992

> <b_lp_Chiralities_Consistent>
1

> <s_lp_Variant>
CHEMBL1994_lig749-1

> <s_i_glide_gridfile>
glide-grid_2aa2

> <i_i_glide_lignum>
1163

> <i_i_glide_rotatable_bonds>
2

> <r_i_docking_score>
-8.85066059168127

> <r_i_glide_ligand_efficiency>
-0.421460028175299

> <r_i_glide_ligand_efficiency_sa>
-1.16277625993107

> <r_i_glide_ligand_efficiency_ln>
-2.1883079468495

> <r_i_glide_gscore>
-8.85066059168127

> <r_i_glide_lipo>
-4.14878279723387

> <r_i_glide_hbond>
0

> <r_i_glide_metal>
0

> <r_i_glide_rewards>
-2.76302499161023

> <r_i_glide_evdw>
-38.929615020752

> <r_i_glide_ecoul>
-2.8661904335022

> <r_i_glide_erotb>
0.440469716657385

> <r_i_glide_esite>
-0.00291320343162302

> <r_i_glide_emodel>
-63.2009019611456

> <r_i_glide_energy>
-41.7958054542542

> <r_i_glide_einternal>
3.12679767608643

> <i_i_glide_confnum>
12

> <i_i_glide_posenum>
396

> <r_i_glide_eff_state_penalty>
0

> <s_user_duplicate_titles>
CHEMBL1994_lig749,CHEMBL1994_lig748

> <s_m_subgroup_title>
dock_pv

> <s_m_subgroupid>
dock_pv

> <b_m_subgroup_collapsed>
1

$$$$
CHEMBL1994_lig750
                    3D
 Schrodinger Suite 2021-1.
 32 34  0  0  1  0            999 V2000
   18.4590   75.3060   24.0695 C   0  0  0  0  0  0
   17.2571   75.7482   23.1999 C   0  0  0  0  0  0
   17.4550   75.4608   21.8973 N   0  0  0  0  0  0
   19.7260   75.4398   23.3847 O   0  0  0  0  0  0
   19.7511   74.8383   22.1495 C   0  0  0  0  0  0
   18.5979   74.8630   21.3628 C   0  0  0  0  0  0
   18.6197   74.2919   20.0918 C   0  0  0  0  0  0
   19.8010   73.7002   19.6256 C   0  0  0  0  0  0
   20.9454   73.6787   20.4301 C   0  0  0  0  0  0
   20.9307   74.2629   21.6931 C   0  0  0  0  0  0
   16.2408   76.2684   23.6471 O   0  0  0  0  0  0
   19.8697   73.1091   18.2328 C   0  0  0  0  0  0
   20.2290   71.7366   18.3102 O   0  0  0  0  0  0
   19.2290   70.8316   18.0625 C   0  0  0  0  0  0
   17.9180   71.0028   18.5309 C   0  0  0  0  0  0
   16.9175   70.1225   18.1353 C   0  0  0  0  0  0
   17.2259   69.0623   17.2934 C   0  0  0  0  0  0
   18.5331   68.8508   16.8655 C   0  0  0  0  0  0
   19.5312   69.7418   17.2458 C   0  0  0  0  0  0
   20.7881   69.5703   16.7834 F   0  0  0  0  0  0
   16.2430   68.2622   16.8635 F   0  0  0  0  0  0
   18.2885   74.2516   24.2985 H   0  0  0  0  0  0
   18.4387   75.8614   25.0026 H   0  0  0  0  0  0
   16.6605   75.6530   21.3058 H   0  0  0  0  0  0
   17.7348   74.3183   19.4719 H   0  0  0  0  0  0
   21.8480   73.2090   20.0698 H   0  0  0  0  0  0
   21.8180   74.2655   22.3096 H   0  0  0  0  0  0
   20.6533   73.6129   17.6713 H   0  0  0  0  0  0
   18.9511   73.2997   17.6709 H   0  0  0  0  0  0
   17.6641   71.8278   19.1790 H   0  0  0  0  0  0
   15.9004   70.2669   18.4682 H   0  0  0  0  0  0
   18.7689   68.0172   16.2221 H   0  0  0  0  0  0
  1  2  1  0  0  0
  1  4  1  0  0  0
  1 22  1  0  0  0
  1 23  1  0  0  0
  2  3  1  0  0  0
  2 11  2  0  0  0
  3  6  1  0  0  0
  3 24  1  0  0  0
  4  5  1  0  0  0
  5  6  2  0  0  0
  5 10  1  0  0  0
  6  7  1  0  0  0
  7  8  2  0  0  0
  7 25  1  0  0  0
  8  9  1  0  0  0
  8 12  1  0  0  0
  9 10  2  0  0  0
  9 26  1  0  0  0
 10 27  1  0  0  0
 12 13  1  0  0  0
 12 28  1  0  0  0
 12 29  1  0  0  0
 13 14  1  0  0  0
 14 15  2  0  0  0
 14 19  1  0  0  0
 15 16  1  0  0  0
 15 30  1  0  0  0
 16 17  2  0  0  0
 16 31  1  0  0  0
 17 18  1  0  0  0
 17 21  1  0  0  0
 18 19  2  0  0  0
 18 32  1  0  0  0
 19 20  1  0  0  0
M  END
> <s_m_entry_id>
9623

> <s_m_entry_name>
dock_pv.63

> <s_m_Source_Path>
/home/csk/Desktop/cluster/DUD-E-result/mcr

> <s_m_Source_File>
dock_pv.maegz

> <i_m_Source_File_Index>
63

> <chembl_id>
CHEMBL3774930

> <chembl_pref_name>
None

> <i_lp_mmshare_version>
53161

> <i_f3d_flags>
0

> <r_lp_tautomer_probability>
1

> <s_lp_Force_Field>
OPLS_2005

> <r_lp_Energy>
25.039112

> <b_lp_Chiralities_Consistent>
1

> <s_lp_Variant>
CHEMBL1994_lig750-1

> <s_i_glide_gridfile>
glide-grid_2aa2

> <i_i_glide_lignum>
1164

> <i_i_glide_rotatable_bonds>
3

> <r_i_docking_score>
-8.82358738917485

> <r_i_glide_ligand_efficiency>
-0.420170828055945

> <r_i_glide_ligand_efficiency_sa>
-1.1592194545572

> <r_i_glide_ligand_efficiency_ln>
-2.18161415223634

> <r_i_glide_gscore>
-8.82358738917485

> <r_i_glide_lipo>
-4.04316023539269

> <r_i_glide_hbond>
-0.195144242973277

> <r_i_glide_metal>
0

> <r_i_glide_rewards>
-2.9320186644825

> <r_i_glide_evdw>
-36.075267791748

> <r_i_glide_ecoul>
-3.29675674438477

> <r_i_glide_erotb>
0.645012654918736

> <r_i_glide_esite>
0

> <r_i_glide_emodel>
-60.8759457237406

> <r_i_glide_energy>
-39.3720245361328

> <r_i_glide_einternal>
2.56860518455505

> <i_i_glide_confnum>
11

> <i_i_glide_posenum>
207

> <r_i_glide_eff_state_penalty>
0

> <s_user_duplicate_titles>
CHEMBL1994_lig750

> <s_m_subgroup_title>
dock_pv

> <s_m_subgroupid>
dock_pv

> <b_m_subgroup_collapsed>
1

$$$$
CHEMBL1994_lig520
                    3D
 Schrodinger Suite 2021-1.
 39 42  0  0  1  0            999 V2000
   17.2197   68.4531   17.6770 C   0  0  0  0  0  0
   18.3802   68.7855   16.6932 C   0  0  0  0  0  0
   19.0607   69.8851   17.0800 N   0  0  0  0  0  0
   16.6408   69.6124   18.3014 O   0  0  0  0  0  0
   17.5781   70.4392   18.8737 C   0  0  0  0  0  0
   18.7940   70.6410   18.2253 C   0  0  0  0  0  0
   19.6975   71.5614   18.7541 C   0  0  0  0  0  0
   19.4050   72.2178   19.9660 C   0  0  0  0  0  0
   18.2311   71.9067   20.6491 C   0  0  0  0  0  0
   17.3049   71.0620   20.0830 C   0  0  0  0  0  0
   20.3037   73.2425   20.5018 C   0  0  0  0  0  0
   20.1015   74.1905   21.4317 C   0  0  0  0  0  0
   21.3353   74.9100   21.6233 C   0  0  0  0  0  0
   22.2410   74.3600   20.8700 O   0  0  0  0  0  0
   21.7012   73.3625   20.0389 C   0  0  0  0  0  0
   18.8772   74.6442   22.1056 C   0  0  0  0  0  0
   21.5459   75.8620   22.3580 O   0  0  0  0  0  0
   18.9279   74.8123   23.4965 C   0  0  0  0  0  0
   17.9039   75.4620   24.1657 C   0  0  0  0  0  0
   16.7858   75.8620   23.4561 C   0  0  0  0  0  0
   16.6369   75.5293   22.1168 C   0  0  0  0  0  0
   17.7097   75.0094   21.4071 C   0  0  0  0  0  0
   15.8410   76.5774   24.0700 F   0  0  0  0  0  0
   18.6281   68.1510   15.6701 O   0  0  0  0  0  0
   17.5897   74.9856   19.8907 C   0  0  0  0  0  0
   17.6783   67.8620   18.4701 H   0  0  0  0  0  0
   16.4541   67.8620   17.1783 H   0  0  0  0  0  0
   19.8572   70.1103   16.5036 H   0  0  0  0  0  0
   20.6200   71.7540   18.2261 H   0  0  0  0  0  0
   17.9916   72.3384   21.6079 H   0  0  0  0  0  0
   16.3919   70.8951   20.6231 H   0  0  0  0  0  0
   21.7148   73.6849   18.9983 H   0  0  0  0  0  0
   22.2472   72.4279   20.0700 H   0  0  0  0  0  0
   19.8079   74.5250   24.0530 H   0  0  0  0  0  0
   17.9843   75.6754   25.2211 H   0  0  0  0  0  0
   15.7370   75.8335   21.6045 H   0  0  0  0  0  0
   18.5552   75.0253   19.3895 H   0  0  0  0  0  0
   17.0434   74.1058   19.5642 H   0  0  0  0  0  0
   17.0412   75.8615   19.5433 H   0  0  0  0  0  0
  1  2  1  0  0  0
  1  4  1  0  0  0
  1 26  1  0  0  0
  1 27  1  0  0  0
  2  3  1  0  0  0
  2 24  2  0  0  0
  3  6  1  0  0  0
  3 28  1  0  0  0
  4  5  1  0  0  0
  5  6  2  0  0  0
  5 10  1  0  0  0
  6  7  1  0  0  0
  7  8  2  0  0  0
  7 29  1  0  0  0
  8  9  1  0  0  0
  8 11  1  0  0  0
  9 10  2  0  0  0
  9 30  1  0  0  0
 10 31  1  0  0  0
 11 12  2  0  0  0
 11 15  1  0  0  0
 12 13  1  0  0  0
 12 16  1  0  0  0
 13 14  1  0  0  0
 13 17  2  0  0  0
 14 15  1  0  0  0
 15 32  1  0  0  0
 15 33  1  0  0  0
 16 18  2  0  0  0
 16 22  1  0  0  0
 18 19  1  0  0  0
 18 34  1  0  0  0
 19 20  2  0  0  0
 19 35  1  0  0  0
 20 21  1  0  0  0
 20 23  1  0  0  0
 21 22  2  0  0  0
 21 36  1  0  0  0
 22 25  1  0  0  0
 25 37  1  0  0  0
 25 38  1  0  0  0
 25 39  1  0  0  0
M  END
> <s_m_entry_id>
9624

> <s_m_entry_name>
dock_pv.64

> <s_m_Source_Path>
/home/csk/Desktop/cluster/DUD-E-result/mcr

> <s_m_Source_File>
dock_pv.maegz

> <i_m_Source_File_Index>
64

> <chembl_id>
CHEMBL2419304

> <chembl_pref_name>
None

> <i_lp_mmshare_version>
53161

> <i_f3d_flags>
0

> <r_lp_tautomer_probability>
0.999841193423406

> <s_lp_Force_Field>
OPLS_2005

> <r_lp_Energy>
32.449375

> <b_lp_Chiralities_Consistent>
1

> <s_lp_Variant>
CHEMBL1994_lig520-1

> <s_i_glide_gridfile>
glide-grid_2aa2

> <i_i_glide_lignum>
831

> <i_i_glide_rotatable_bonds>
2

> <r_i_docking_score>
-8.821937714682

> <r_i_glide_ligand_efficiency>
-0.35287750858728

> <r_i_glide_ligand_efficiency_sa>
-1.03182009341847

> <r_i_glide_ligand_efficiency_ln>
-2.09106361051942

> <r_i_glide_gscore>
-8.821937714682

> <r_i_glide_lipo>
-4.01574281098676

> <r_i_glide_hbond>
-0.0161369391255647

> <r_i_glide_metal>
0

> <r_i_glide_rewards>
-2.86192161074566

> <r_i_glide_evdw>
-30.1682014465332

> <r_i_glide_ecoul>
-4.75555229187012

> <r_i_glide_erotb>
0.328709368789412

> <r_i_glide_esite>
-0.0351028065062493

> <r_i_glide_emodel>
-36.4545772922979

> <r_i_glide_energy>
-34.9237537384033

> <r_i_glide_einternal>
2.62344264984131

> <i_i_glide_confnum>
13

> <i_i_glide_posenum>
156

> <r_i_glide_eff_state_penalty>
0

> <s_user_duplicate_titles>
CHEMBL1994_lig520

> <s_m_subgroup_title>
dock_pv

> <s_m_subgroupid>
dock_pv

> <b_m_subgroup_collapsed>
1

$$$$
CHEMBL1994_lig19
                    3D
 Schrodinger Suite 2021-1.
 41 43  0  0  1  0            999 V2000
   19.1881   71.0225   18.4016 C   0  0  0  0  0  0
   20.4940   70.8350   17.9283 C   0  0  0  0  0  0
   18.0277   69.9532   17.6700 S   0  0  0  0  0  0
   17.0410   74.7111   22.0700 N   0  0  0  0  0  0
   18.9075   74.0438   20.6172 C   0  0  0  0  0  0
   19.2964   69.1631   16.8714 C   0  0  0  0  0  0
   18.6881   71.9463   19.4316 C   0  0  0  0  0  0
   17.6524   73.7933   21.2075 C   0  0  0  0  0  0
   20.5062   69.8238   16.9763 C   0  0  0  0  0  0
   19.3579   73.1450   19.6633 C   0  0  0  0  0  0
   17.9270   75.5788   22.8295 C   0  0  0  0  0  0
   19.0410   66.7325   16.0700 N   0  0  0  0  0  0
   19.7498   75.2535   20.9917 C   0  0  1  0  0  0
   19.1086   67.8275   16.4105 C   0  0  0  0  0  0
   18.8645   76.2338   21.7694 C   0  0  0  0  0  0
   17.0410   72.5600   21.0653 C   0  0  0  0  0  0
   17.5598   71.6297   20.1909 C   0  0  0  0  0  0
   21.7549   71.4761   18.4700 C   0  0  0  0  0  0
   17.0423   76.6251   23.5352 C   0  0  0  0  0  0
   18.6288   74.6620   23.8545 C   0  0  0  0  0  0
   21.0838   74.8928   21.6829 C   0  0  0  0  0  0
   16.3012   74.3331   22.6542 H   0  0  0  0  0  0
   21.4194   69.4620   16.5277 H   0  0  0  0  0  0
   20.2495   73.4020   19.1174 H   0  0  0  0  0  0
   20.0297   75.7534   20.0700 H   0  0  0  0  0  0
   18.2410   76.6954   21.0103 H   0  0  0  0  0  0
   19.4410   77.0619   22.1310 H   0  0  0  0  0  0
   16.1402   72.3280   21.6127 H   0  0  0  0  0  0
   17.0410   70.6895   20.0816 H   0  0  0  0  0  0
   21.6882   71.6187   19.5475 H   0  0  0  0  0  0
   21.9471   72.4580   18.0425 H   0  0  0  0  0  0
   22.6398   70.8591   18.3136 H   0  0  0  0  0  0
   17.6425   77.4356   23.9492 H   0  0  0  0  0  0
   16.3046   77.0620   22.8700 H   0  0  0  0  0  0
   16.4846   76.1877   24.3636 H   0  0  0  0  0  0
   19.4410   75.1843   24.3188 H   0  0  0  0  0  0
   17.9478   74.3530   24.6490 H   0  0  0  0  0  0
   19.0364   73.7416   23.4383 H   0  0  0  0  0  0
   21.7381   74.3450   21.0037 H   0  0  0  0  0  0
   21.6239   75.7899   21.9878 H   0  0  0  0  0  0
   20.9612   74.2708   22.5657 H   0  0  0  0  0  0
  1  2  2  0  0  0
  1  3  1  0  0  0
  1  7  1  0  0  0
  2  9  1  0  0  0
  2 18  1  0  0  0
  3  6  1  0  0  0
  4  8  1  0  0  0
  4 11  1  0  0  0
  4 22  1  0  0  0
  5 10  2  0  0  0
  5 13  1  0  0  0
  5  8  1  0  0  0
  6 14  1  0  0  0
  6  9  2  0  0  0
  7 10  1  0  0  0
  7 17  2  0  0  0
  8 16  2  0  0  0
  9 23  1  0  0  0
 10 24  1  0  0  0
 11 19  1  0  0  0
 11 20  1  0  0  0
 11 15  1  0  0  0
 12 14  3  0  0  0
 13 15  1  0  0  0
 13 21  1  0  0  0
 13 25  1  0  0  0
 15 26  1  0  0  0
 15 27  1  0  0  0
 16 17  1  0  0  0
 16 28  1  0  0  0
 17 29  1  0  0  0
 18 30  1  0  0  0
 18 31  1  0  0  0
 18 32  1  0  0  0
 19 33  1  0  0  0
 19 34  1  0  0  0
 19 35  1  0  0  0
 20 36  1  0  0  0
 20 37  1  0  0  0
 20 38  1  0  0  0
 21 39  1  0  0  0
 21 40  1  0  0  0
 21 41  1  0  0  0
M  END
> <s_m_entry_id>
9625

> <s_m_entry_name>
dock_pv.65

> <s_m_Source_Path>
/home/csk/Desktop/cluster/DUD-E-result/mcr

> <s_m_Source_File>
dock_pv.maegz

> <i_m_Source_File_Index>
65

> <chembl_id>
CHEMBL134260

> <chembl_pref_name>
None

> <i_lp_mmshare_version>
53161

> <i_f3d_flags>
0

> <r_lp_tautomer_probability>
1

> <s_lp_Force_Field>
OPLS_2005

> <r_lp_Energy>
17.125546

> <b_lp_Chiralities_Consistent>
1

> <s_lp_Variant>
CHEMBL1994_lig19-2

> <s_i_glide_gridfile>
glide-grid_2aa2

> <i_i_glide_lignum>
20

> <i_i_glide_rotatable_bonds>
1

> <r_i_docking_score>
-8.81276932789605

> <r_i_glide_ligand_efficiency>
-0.419655682280764

> <r_i_glide_ligand_efficiency_sa>
-1.15779820642513

> <r_i_glide_ligand_efficiency_ln>
-2.17893940844511

> <r_i_glide_gscore>
-8.81276932789605

> <r_i_glide_lipo>
-4.65470320997628

> <r_i_glide_hbond>
-0.48

> <r_i_glide_metal>
0

> <r_i_glide_rewards>
-2.01297669004854

> <r_i_glide_evdw>
-25.531909942627

> <r_i_glide_ecoul>
-3.38055753707886

> <r_i_glide_erotb>
0.208485266636968

> <r_i_glide_esite>
-0.0898955668150189

> <r_i_glide_emodel>
-30.64893298409

> <r_i_glide_energy>
-28.9124674797058

> <r_i_glide_einternal>
2.92116808891296

> <i_i_glide_confnum>
7

> <i_i_glide_posenum>
94

> <r_i_glide_eff_state_penalty>
0

> <s_user_duplicate_titles>
CHEMBL1994_lig19

> <s_m_subgroup_title>
dock_pv

> <s_m_subgroupid>
dock_pv

> <b_m_subgroup_collapsed>
1

$$$$
CHEMBL1994_lig41
                    3D
 Schrodinger Suite 2021-1.
 38 40  0  0  1  0            999 V2000
   19.4705   70.1549   17.7734 C   0  0  0  0  0  0
   19.1229   71.1043   18.8517 C   0  0  0  0  0  0
   17.8317   71.0316   19.3771 C   0  0  0  0  0  0
   20.8607   70.2407   17.1744 C   0  0  0  0  0  0
   17.9271   73.6083   22.0019 N   0  0  0  0  0  0
   18.3190   72.8327   20.9001 C   0  0  0  0  0  0
   16.8950   70.1497   18.8700 O   0  0  0  0  0  0
   17.1708   69.3173   17.8107 C   0  0  0  0  0  0
   18.5296   69.3195   17.2916 C   0  0  0  0  0  0
   19.6107   72.9431   20.3573 C   0  0  0  0  0  0
   19.9990   72.0655   19.3537 C   0  0  0  0  0  0
   17.4410   71.8620   20.4244 C   0  0  0  0  0  0
   18.9646   74.2328   22.8227 C   0  0  1  0  0  0
   20.6156   73.9446   20.8666 C   0  0  0  0  0  0
   20.0312   74.9120   21.9127 C   0  0  2  0  0  0
   16.2410   68.6620   17.3752 O   0  0  0  0  0  0
   20.9756   69.4620   16.1081 F   0  0  0  0  0  0
   21.0410   71.4864   16.7799 F   0  0  0  0  0  0
   21.7888   69.9071   18.0713 F   0  0  0  0  0  0
   18.2534   75.1712   23.8313 C   0  0  0  0  0  0
   21.2311   75.4620   22.6939 C   0  0  0  0  0  0
   17.4014   76.3081   23.2400 C   0  0  0  0  0  0
   17.0977   73.3541   22.5300 H   0  0  0  0  0  0
   18.7698   68.6443   16.4847 H   0  0  0  0  0  0
   21.0123   72.1492   18.9917 H   0  0  0  0  0  0
   16.4535   71.7683   20.8510 H   0  0  0  0  0  0
   19.4523   73.4369   23.3889 H   0  0  0  0  0  0
   21.0459   74.5142   20.0428 H   0  0  0  0  0  0
   21.4410   73.3570   21.2700 H   0  0  0  0  0  0
   19.5459   75.7347   21.3840 H   0  0  0  0  0  0
   18.9976   75.6264   24.4700 H   0  0  0  0  0  0
   17.6287   74.5767   24.4997 H   0  0  0  0  0  0
   21.9426   74.6633   22.8700 H   0  0  0  0  0  0
   21.7606   76.2289   22.1258 H   0  0  0  0  0  0
   20.9701   75.8676   23.6654 H   0  0  0  0  0  0
   16.9405   76.8978   24.0332 H   0  0  0  0  0  0
   16.5998   75.9262   22.6066 H   0  0  0  0  0  0
   18.0132   76.9868   22.6473 H   0  0  0  0  0  0
  1  2  1  0  0  0
  1  4  1  0  0  0
  1  9  2  0  0  0
  2  3  2  0  0  0
  2 11  1  0  0  0
  3 12  1  0  0  0
  3  7  1  0  0  0
  4 17  1  0  0  0
  4 18  1  0  0  0
  4 19  1  0  0  0
  5  6  1  0  0  0
  5 13  1  0  0  0
  5 23  1  0  0  0
  6 10  1  0  0  0
  6 12  2  0  0  0
  7  8  1  0  0  0
  8  9  1  0  0  0
  8 16  2  0  0  0
  9 24  1  0  0  0
 10 11  2  0  0  0
 10 14  1  0  0  0
 11 25  1  0  0  0
 12 26  1  0  0  0
 13 15  1  0  0  0
 13 20  1  0  0  0
 13 27  1  0  0  0
 14 15  1  0  0  0
 14 28  1  0  0  0
 14 29  1  0  0  0
 15 21  1  0  0  0
 15 30  1  0  0  0
 20 22  1  0  0  0
 20 31  1  0  0  0
 20 32  1  0  0  0
 21 33  1  0  0  0
 21 34  1  0  0  0
 21 35  1  0  0  0
 22 36  1  0  0  0
 22 37  1  0  0  0
 22 38  1  0  0  0
M  END
> <s_m_entry_id>
9626

> <s_m_entry_name>
dock_pv.66

> <s_m_Source_Path>
/home/csk/Desktop/cluster/DUD-E-result/mcr

> <s_m_Source_File>
dock_pv.maegz

> <i_m_Source_File_Index>
66

> <chembl_id>
CHEMBL6654

> <chembl_pref_name>
None

> <i_lp_mmshare_version>
53161

> <i_f3d_flags>
0

> <r_lp_tautomer_probability>
1

> <s_lp_Force_Field>
OPLS_2005

> <r_lp_Energy>
19.979005

> <b_lp_Chiralities_Consistent>
1

> <s_lp_Variant>
CHEMBL1994_lig41-2

> <s_i_glide_gridfile>
glide-grid_2aa2

> <i_i_glide_lignum>
46

> <i_i_glide_rotatable_bonds>
2

> <r_i_docking_score>
-8.80036001361929

> <r_i_glide_ligand_efficiency>
-0.400016364255422

> <r_i_glide_ligand_efficiency_sa>
-1.12086158439459

> <r_i_glide_ligand_efficiency_ln>
-2.15112898825949

> <r_i_glide_gscore>
-8.80036001361929

> <r_i_glide_lipo>
-4.31581206126491

> <r_i_glide_hbond>
-0.32

> <r_i_glide_metal>
0

> <r_i_glide_rewards>
-2.20729424656198

> <r_i_glide_evdw>
-31.8529167175293

> <r_i_glide_ecoul>
-2.18387007713318

> <r_i_glide_erotb>
0

> <r_i_glide_esite>
-0.0370273583459566

> <r_i_glide_emodel>
-42.9665852231946

> <r_i_glide_energy>
-34.0367867946625

> <r_i_glide_einternal>
1.42471706867218

> <i_i_glide_confnum>
1

> <i_i_glide_posenum>
89

> <r_i_glide_eff_state_penalty>
0

> <s_user_duplicate_titles>
CHEMBL1994_lig41

> <s_m_subgroup_title>
dock_pv

> <s_m_subgroupid>
dock_pv

> <b_m_subgroup_collapsed>
1

$$$$
CHEMBL1994_lig1038
                    3D
 Schrodinger Suite 2021-1.
 34 36  0  0  1  0            999 V2000
   17.3012   72.4122   20.6820 C   0  0  0  0  0  0
   20.0471   72.4622   20.2179 C   0  0  0  0  0  0
   17.8643   71.5392   19.7567 C   0  0  0  0  0  0
   19.2486   71.5612   19.5005 C   0  0  0  0  0  0
   19.7546   70.6316   18.4414 C   0  0  0  0  0  0
   18.8505   69.8495   17.7920 C   0  0  0  0  0  0
   17.4259   69.8081   18.0690 C   0  0  0  0  0  0
   17.0411   70.6616   19.0397 N   0  0  0  0  0  0
   19.4804   73.3929   21.0955 C   0  0  0  0  0  0
   18.0945   73.3641   21.3033 C   0  0  0  0  0  0
   17.4410   74.3009   22.0700 O   0  0  0  0  0  0
   18.2173   74.7317   23.1864 C   0  0  0  0  0  0
   19.5765   75.2703   22.7007 C   0  0  0  0  0  0
   20.2347   74.3768   21.7279 N   0  0  0  0  0  0
   21.2387   70.6395   18.0486 C   0  0  0  0  0  0
   21.3924   70.1865   16.8088 F   0  0  0  0  0  0
   21.7484   71.8655   18.0702 F   0  0  0  0  0  0
   21.9347   69.8621   18.8702 F   0  0  0  0  0  0
   16.6334   69.0822   17.4796 O   0  0  0  0  0  0
   21.6146   74.6982   21.3514 C   0  0  0  0  0  0
   22.0836   76.1147   21.6695 C   0  0  0  0  0  0
   16.2468   72.4123   20.8950 H   0  0  0  0  0  0
   21.1135   72.4759   20.0887 H   0  0  0  0  0  0
   19.1834   69.1872   17.0066 H   0  0  0  0  0  0
   16.0492   70.6360   19.2433 H   0  0  0  0  0  0
   17.6718   75.4955   23.7417 H   0  0  0  0  0  0
   18.3793   73.8953   23.8700 H   0  0  0  0  0  0
   19.2967   76.1531   22.1237 H   0  0  0  0  0  0
   20.2354   75.6450   23.4828 H   0  0  0  0  0  0
   22.2887   73.9621   21.7903 H   0  0  0  0  0  0
   21.6993   74.5923   20.2692 H   0  0  0  0  0  0
   23.0410   76.2620   21.2045 H   0  0  0  0  0  0
   21.4103   76.8730   21.2699 H   0  0  0  0  0  0
   22.2182   76.2620   22.7387 H   0  0  0  0  0  0
  1 10  2  0  0  0
  1  3  1  0  0  0
  1 22  1  0  0  0
  2  9  2  0  0  0
  2  4  1  0  0  0
  2 23  1  0  0  0
  3  4  2  0  0  0
  3  8  1  0  0  0
  4  5  1  0  0  0
  5 15  1  0  0  0
  5  6  2  0  0  0
  6  7  1  0  0  0
  6 24  1  0  0  0
  7  8  1  0  0  0
  7 19  2  0  0  0
  8 25  1  0  0  0
  9 14  1  0  0  0
  9 10  1  0  0  0
 10 11  1  0  0  0
 11 12  1  0  0  0
 12 13  1  0  0  0
 12 26  1  0  0  0
 12 27  1  0  0  0
 13 14  1  0  0  0
 13 28  1  0  0  0
 13 29  1  0  0  0
 14 20  1  0  0  0
 15 16  1  0  0  0
 15 17  1  0  0  0
 15 18  1  0  0  0
 20 21  1  0  0  0
 20 30  1  0  0  0
 20 31  1  0  0  0
 21 32  1  0  0  0
 21 33  1  0  0  0
 21 34  1  0  0  0
M  END
> <s_m_entry_id>
9627

> <s_m_entry_name>
dock_pv.67

> <s_m_Source_Path>
/home/csk/Desktop/cluster/DUD-E-result/mcr

> <s_m_Source_File>
dock_pv.maegz

> <i_m_Source_File_Index>
67

> <chembl_id>
CHEMBL224204

> <chembl_pref_name>
None

> <i_lp_mmshare_version>
53161

> <i_f3d_flags>
0

> <r_lp_tautomer_probability>
1

> <s_lp_Force_Field>
OPLS_2005

> <r_lp_Energy>
25.408837

> <b_lp_Chiralities_Consistent>
1

> <s_lp_Variant>
CHEMBL1994_lig1038-1

> <s_i_glide_gridfile>
glide-grid_2aa2

> <i_i_glide_lignum>
1497

> <i_i_glide_rotatable_bonds>
2

> <r_i_docking_score>
-8.7665321678908

> <r_i_glide_ligand_efficiency>
-0.417453912756705

> <r_i_glide_ligand_efficiency_sa>
-1.15172369126055

> <r_i_glide_ligand_efficiency_ln>
-2.16750736406479

> <r_i_glide_gscore>
-8.7665321678908

> <r_i_glide_lipo>
-3.2435421149171

> <r_i_glide_hbond>
-0.32

> <r_i_glide_metal>
0

> <r_i_glide_rewards>
-3.07672445833036

> <r_i_glide_evdw>
-35.2258453369141

> <r_i_glide_ecoul>
-2.33369827270508

> <r_i_glide_erotb>
0

> <r_i_glide_esite>
-0.0149185868918769

> <r_i_glide_emodel>
-52.846943270886

> <r_i_glide_energy>
-37.5595436096191

> <r_i_glide_einternal>
5.19154834747314

> <i_i_glide_confnum>
1

> <i_i_glide_posenum>
294

> <r_i_glide_eff_state_penalty>
0

> <s_user_duplicate_titles>
CHEMBL1994_lig1038

> <s_m_subgroup_title>
dock_pv

> <s_m_subgroupid>
dock_pv

> <b_m_subgroup_collapsed>
1

$$$$
CHEMBL1994_lig39
                    3D
 Schrodinger Suite 2021-1.
 35 37  0  0  1  0            999 V2000
   19.8341   70.6664   18.4382 C   0  0  0  0  0  0
   19.3171   71.6552   19.4260 C   0  0  0  0  0  0
   17.9469   71.5821   19.7117 C   0  0  0  0  0  0
   21.3131   70.6645   18.0420 C   0  0  0  0  0  0
   17.0995   70.6622   19.1131 O   0  0  0  0  0  0
   18.1051   73.5070   21.1407 C   0  0  0  0  0  0
   17.4392   74.3863   22.0065 N   0  0  0  0  0  0
   17.5312   69.8025   18.1302 C   0  0  0  0  0  0
   18.9617   69.8289   17.8252 C   0  0  0  0  0  0
   17.3639   72.4629   20.6087 C   0  0  0  0  0  0
   20.0764   72.6524   20.0679 C   0  0  0  0  0  0
   19.4867   73.6059   20.9030 C   0  0  0  0  0  0
   18.2010   75.1227   23.0012 C   0  0  0  0  0  0
   16.6755   69.0923   17.6056 O   0  0  0  0  0  0
   20.3157   74.7093   21.5587 C   0  0  0  0  0  0
   21.8415   71.8791   18.0702 F   0  0  0  0  0  0
   21.4409   70.2394   16.7897 F   0  0  0  0  0  0
   22.0016   69.8630   18.8522 F   0  0  0  0  0  0
   19.4149   75.7399   22.2799 C   0  0  0  0  0  0
   18.6410   74.1199   24.0699 C   0  0  0  0  0  0
   17.2703   76.2051   23.5848 C   0  0  0  0  0  0
   16.5564   74.0683   22.3911 H   0  0  0  0  0  0
   19.3278   69.1313   17.0866 H   0  0  0  0  0  0
   16.3142   72.3712   20.8499 H   0  0  0  0  0  0
   21.1438   72.7297   19.9491 H   0  0  0  0  0  0
   21.0015   74.2571   22.2762 H   0  0  0  0  0  0
   20.9406   75.2109   20.8183 H   0  0  0  0  0  0
   19.9929   76.2576   23.0354 H   0  0  0  0  0  0
   19.0789   76.4922   21.5629 H   0  0  0  0  0  0
   19.0410   74.6624   24.9210 H   0  0  0  0  0  0
   17.8409   73.5064   24.4665 H   0  0  0  0  0  0
   19.4050   73.4250   23.7228 H   0  0  0  0  0  0
   17.8363   77.0009   24.0695 H   0  0  0  0  0  0
   16.6286   76.6624   22.8398 H   0  0  0  0  0  0
   16.6078   75.7838   24.3401 H   0  0  0  0  0  0
  1  2  1  0  0  0
  1  4  1  0  0  0
  1  9  2  0  0  0
  2  3  2  0  0  0
  2 11  1  0  0  0
  3 10  1  0  0  0
  3  5  1  0  0  0
  4 16  1  0  0  0
  4 17  1  0  0  0
  4 18  1  0  0  0
  5  8  1  0  0  0
  6 12  1  0  0  0
  6  7  1  0  0  0
  6 10  2  0  0  0
  7 13  1  0  0  0
  7 22  1  0  0  0
  8  9  1  0  0  0
  8 14  2  0  0  0
  9 23  1  0  0  0
 10 24  1  0  0  0
 11 12  2  0  0  0
 11 25  1  0  0  0
 12 15  1  0  0  0
 13 19  1  0  0  0
 13 20  1  0  0  0
 13 21  1  0  0  0
 15 19  1  0  0  0
 15 26  1  0  0  0
 15 27  1  0  0  0
 19 28  1  0  0  0
 19 29  1  0  0  0
 20 30  1  0  0  0
 20 31  1  0  0  0
 20 32  1  0  0  0
 21 33  1  0  0  0
 21 34  1  0  0  0
 21 35  1  0  0  0
M  END
> <s_m_entry_id>
9628

> <s_m_entry_name>
dock_pv.68

> <s_m_Source_Path>
/home/csk/Desktop/cluster/DUD-E-result/mcr

> <s_m_Source_File>
dock_pv.maegz

> <i_m_Source_File_Index>
68

> <chembl_id>
CHEMBL7289

> <chembl_pref_name>
None

> <i_lp_mmshare_version>
53161

> <i_f3d_flags>
0

> <r_lp_tautomer_probability>
1

> <s_lp_Force_Field>
OPLS_2005

> <r_lp_Energy>
16.431545

> <b_lp_Chiralities_Consistent>
1

> <s_lp_Variant>
CHEMBL1994_lig39-1

> <s_i_glide_gridfile>
glide-grid_2aa2

> <i_i_glide_lignum>
43

> <i_i_glide_rotatable_bonds>
1

> <r_i_docking_score>
-8.75495281156627

> <r_i_glide_ligand_efficiency>
-0.416902514836489

> <r_i_glide_ligand_efficiency_sa>
-1.15020242620921

> <r_i_glide_ligand_efficiency_ln>
-2.16464439161184

> <r_i_glide_gscore>
-8.75495281156627

> <r_i_glide_lipo>
-3.68868885532566

> <r_i_glide_hbond>
-0.293830147067841

> <r_i_glide_metal>
0

> <r_i_glide_rewards>
-2.70156170119025

> <r_i_glide_evdw>
-34.9560165405273

> <r_i_glide_ecoul>
-1.93889379501343

> <r_i_glide_erotb>
0

> <r_i_glide_esite>
-0.0322372117041329

> <r_i_glide_emodel>
-51.1660843380722

> <r_i_glide_energy>
-36.8949103355408

> <r_i_glide_einternal>
3.33188080787659

> <i_i_glide_confnum>
2

> <i_i_glide_posenum>
254

> <r_i_glide_eff_state_penalty>
0

> <s_user_duplicate_titles>
CHEMBL1994_lig39

> <s_m_subgroup_title>
dock_pv

> <s_m_subgroupid>
dock_pv

> <b_m_subgroup_collapsed>
1

$$$$
CHEMBL1994_lig1037
                    3D
 Schrodinger Suite 2021-1.
 35 36  0  0  1  0            999 V2000
   17.0410   70.0968   18.8700 N   0  0  0  0  0  0
   17.4683   69.4981   17.7407 C   0  0  0  0  0  0
   18.8669   69.7562   17.4511 C   0  0  0  0  0  0
   19.6675   70.5897   18.1701 C   0  0  0  0  0  0
   21.4410   70.2620   16.6555 F   0  0  0  0  0  0
   21.3011   72.1633   17.6700 F   0  0  0  0  0  0
   21.9200   70.3837   18.7557 F   0  0  0  0  0  0
   19.0962   71.2981   19.3544 C   0  0  0  0  0  0
   19.7701   72.2656   20.1254 C   0  0  0  0  0  0
   19.1470   72.8634   21.2315 C   0  0  0  0  0  0
   17.9039   72.3880   21.6084 C   0  0  0  0  0  0
   17.2118   71.4620   20.8670 C   0  0  0  0  0  0
   17.7793   70.9516   19.7031 C   0  0  0  0  0  0
   21.1200   70.8549   17.8024 C   0  0  0  0  0  0
   19.2382   74.2674   23.3083 C   0  0  0  0  0  0
   19.7281   73.9325   21.9484 N   0  0  0  0  0  0
   20.2129   75.0349   21.1135 C   0  0  0  0  0  0
   17.5237   75.2870   24.5908 F   0  0  0  0  0  0
   17.1939   75.2504   22.4700 F   0  0  0  0  0  0
   18.6410   76.5831   23.3113 F   0  0  0  0  0  0
   18.1338   75.3567   23.4099 C   0  0  0  0  0  0
   22.5239   74.6645   21.2700 F   0  0  0  0  0  0
   21.8410   76.6620   20.8700 F   0  0  0  0  0  0
   21.6228   75.8620   22.8206 F   0  0  0  0  0  0
   21.5759   75.5563   21.5338 C   0  0  0  0  0  0
   16.7194   68.8445   17.0223 O   0  0  0  0  0  0
   16.0703   69.9226   19.0910 H   0  0  0  0  0  0
   19.2629   69.2395   16.5897 H   0  0  0  0  0  0
   20.7764   72.5706   19.8863 H   0  0  0  0  0  0
   17.4410   72.7859   22.4700 H   0  0  0  0  0  0
   16.2553   71.1699   21.2674 H   0  0  0  0  0  0
   20.0845   74.6020   23.9002 H   0  0  0  0  0  0
   18.9174   73.3707   23.8397 H   0  0  0  0  0  0
   20.2774   74.7532   20.0647 H   0  0  0  0  0  0
   19.4917   75.8524   21.1171 H   0  0  0  0  0  0
  1  2  1  0  0  0
  1 13  1  0  0  0
  1 27  1  0  0  0
  2 26  2  0  0  0
  2  3  1  0  0  0
  3  4  2  0  0  0
  3 28  1  0  0  0
  4  8  1  0  0  0
  4 14  1  0  0  0
  5 14  1  0  0  0
  6 14  1  0  0  0
  7 14  1  0  0  0
  8 13  2  0  0  0
  8  9  1  0  0  0
  9 10  2  0  0  0
  9 29  1  0  0  0
 10 11  1  0  0  0
 10 16  1  0  0  0
 11 12  2  0  0  0
 11 30  1  0  0  0
 12 13  1  0  0  0
 12 31  1  0  0  0
 15 16  1  0  0  0
 15 21  1  0  0  0
 15 32  1  0  0  0
 15 33  1  0  0  0
 16 17  1  0  0  0
 17 25  1  0  0  0
 17 34  1  0  0  0
 17 35  1  0  0  0
 18 21  1  0  0  0
 19 21  1  0  0  0
 20 21  1  0  0  0
 22 25  1  0  0  0
 23 25  1  0  0  0
 24 25  1  0  0  0
M  END
> <s_m_entry_id>
9629

> <s_m_entry_name>
dock_pv.69

> <s_m_Source_Path>
/home/csk/Desktop/cluster/DUD-E-result/mcr

> <s_m_Source_File>
dock_pv.maegz

> <i_m_Source_File_Index>
69

> <chembl_id>
CHEMBL436784

> <chembl_pref_name>
None

> <i_lp_mmshare_version>
53161

> <i_f3d_flags>
0

> <r_lp_tautomer_probability>
1

> <s_lp_Force_Field>
OPLS_2005

> <r_lp_Energy>
28.112021

> <b_lp_Chiralities_Consistent>
1

> <s_lp_Variant>
CHEMBL1994_lig1037-1

> <s_i_glide_gridfile>
glide-grid_2aa2

> <i_i_glide_lignum>
1496

> <i_i_glide_rotatable_bonds>
6

> <r_i_docking_score>
-8.75119209298515

> <r_i_glide_ligand_efficiency>
-0.33658431126866

> <r_i_glide_ligand_efficiency_sa>
-0.997129697738092

> <r_i_glide_ligand_efficiency_ln>
-2.05518874803421

> <r_i_glide_gscore>
-8.75119209298515

> <r_i_glide_lipo>
-3.61206075727721

> <r_i_glide_hbond>
-0.293159047956466

> <r_i_glide_metal>
0

> <r_i_glide_rewards>
-3.12902606859354

> <r_i_glide_evdw>
-28.054069519043

> <r_i_glide_ecoul>
-4.63304567337036

> <r_i_glide_erotb>
0.38071410779977

> <r_i_glide_esite>
0

> <r_i_glide_emodel>
-37.7621691207091

> <r_i_glide_energy>
-32.6871151924133

> <r_i_glide_einternal>
6.24678039550781

> <i_i_glide_confnum>
36

> <i_i_glide_posenum>
3

> <r_i_glide_eff_state_penalty>
0

> <s_user_duplicate_titles>
CHEMBL1994_lig1037

> <s_m_subgroup_title>
dock_pv

> <s_m_subgroupid>
dock_pv

> <b_m_subgroup_collapsed>
1

$$$$
CHEMBL1994_lig67
                    3D
 Schrodinger Suite 2021-1.
 32 34  0  0  1  0            999 V2000
   18.9922   70.5799   18.4575 C   0  0  0  0  0  0
   19.0410   68.5066   16.4751 C   0  0  0  0  0  0
   17.9737   69.4488   18.4699 C   0  0  0  0  0  0
   20.0329   69.4620   16.6100 N   0  0  0  0  0  0
   17.9634   68.6302   17.2843 O   0  0  0  0  0  0
   20.0307   73.6358   20.4517 C   0  0  0  0  0  0
   20.0244   70.4975   17.5304 C   0  0  0  0  0  0
   19.0051   71.6111   19.4045 C   0  0  0  0  0  0
   18.8944   74.1224   21.1255 C   0  0  0  0  0  0
   21.1801   74.2780   20.9001 C   0  0  0  0  0  0
   20.8663   75.4619   22.1095 S   0  0  0  0  0  0
   20.0218   72.5658   19.4182 C   0  0  0  0  0  0
   19.1739   75.0965   22.0721 C   0  0  0  0  0  0
   17.4945   76.2983   23.6691 N   0  0  0  0  0  0
   18.2412   75.7680   22.9619 C   0  0  0  0  0  0
   19.0410   67.5836   15.6700 O   0  0  0  0  0  0
   21.0410   71.4313   17.5442 C   0  0  0  0  0  0
   21.0410   72.4687   18.4700 C   0  0  0  0  0  0
   18.3327   68.5510   19.6649 C   0  0  0  0  0  0
   16.5785   70.0481   18.4328 C   0  0  0  0  0  0
   20.8151   69.3439   15.9848 H   0  0  0  0  0  0
   18.2342   71.6429   20.1599 H   0  0  0  0  0  0
   17.8915   73.7654   20.9411 H   0  0  0  0  0  0
   22.1991   74.1031   20.5910 H   0  0  0  0  0  0
   21.8410   71.3388   16.8379 H   0  0  0  0  0  0
   21.8410   73.1884   18.4413 H   0  0  0  0  0  0
   18.2410   69.0837   20.6096 H   0  0  0  0  0  0
   17.7340   67.6412   19.6833 H   0  0  0  0  0  0
   19.3725   68.2620   19.6700 H   0  0  0  0  0  0
   16.4164   70.7217   19.2700 H   0  0  0  0  0  0
   16.4088   70.6267   17.5234 H   0  0  0  0  0  0
   15.8103   69.2746   18.4760 H   0  0  0  0  0  0
  1  3  1  0  0  0
  1  7  1  0  0  0
  1  8  2  0  0  0
  2  4  1  0  0  0
  2 16  2  0  0  0
  2  5  1  0  0  0
  3  5  1  0  0  0
  3 19  1  0  0  0
  3 20  1  0  0  0
  4  7  1  0  0  0
  4 21  1  0  0  0
  6 12  1  0  0  0
  6  9  1  0  0  0
  6 10  2  0  0  0
  7 17  2  0  0  0
  8 12  1  0  0  0
  8 22  1  0  0  0
  9 13  2  0  0  0
  9 23  1  0  0  0
 10 11  1  0  0  0
 10 24  1  0  0  0
 11 13  1  0  0  0
 12 18  2  0  0  0
 13 15  1  0  0  0
 14 15  3  0  0  0
 17 18  1  0  0  0
 17 25  1  0  0  0
 18 26  1  0  0  0
 19 27  1  0  0  0
 19 28  1  0  0  0
 19 29  1  0  0  0
 20 30  1  0  0  0
 20 31  1  0  0  0
 20 32  1  0  0  0
M  END
> <s_m_entry_id>
9630

> <s_m_entry_name>
dock_pv.70

> <s_m_Source_Path>
/home/csk/Desktop/cluster/DUD-E-result/mcr

> <s_m_Source_File>
dock_pv.maegz

> <i_m_Source_File_Index>
70

> <chembl_id>
CHEMBL139749

> <chembl_pref_name>
None

> <i_lp_mmshare_version>
53161

> <i_f3d_flags>
0

> <r_lp_tautomer_probability>
1

> <s_lp_Force_Field>
OPLS_2005

> <r_lp_Energy>
16.65614

> <b_lp_Chiralities_Consistent>
1

> <s_lp_Variant>
CHEMBL1994_lig67-1

> <s_i_glide_gridfile>
glide-grid_2aa2

> <i_i_glide_lignum>
87

> <i_i_glide_rotatable_bonds>
1

> <r_i_docking_score>
-8.74928599927228

> <r_i_glide_ligand_efficiency>
-0.437464299963614

> <r_i_glide_ligand_efficiency_sa>
-1.18746080126682

> <r_i_glide_ligand_efficiency_ln>
-2.18965771485242

> <r_i_glide_gscore>
-8.74928599927228

> <r_i_glide_lipo>
-3.65712437462069

> <r_i_glide_hbond>
-0.125506453339566

> <r_i_glide_metal>
0

> <r_i_glide_rewards>
-3.23431078128314

> <r_i_glide_evdw>
-33.2334175109863

> <r_i_glide_ecoul>
-1.96579909324646

> <r_i_glide_erotb>
0.224196349507401

> <r_i_glide_esite>
0

> <r_i_glide_emodel>
-48.6514640568331

> <r_i_glide_energy>
-35.1992166042328

> <r_i_glide_einternal>
0.256547123193741

> <i_i_glide_confnum>
3

> <i_i_glide_posenum>
111

> <r_i_glide_eff_state_penalty>
0

> <s_user_duplicate_titles>
CHEMBL1994_lig67

> <s_m_subgroup_title>
dock_pv

> <s_m_subgroupid>
dock_pv

> <b_m_subgroup_collapsed>
1

$$$$
CHEMBL1994_lig68
                    3D
 Schrodinger Suite 2021-1.
 32 34  0  0  1  0            999 V2000
   19.4516   73.5028   21.6398 C   0  0  0  0  0  0
   18.3968   74.8728   23.9310 C   0  0  0  0  0  0
   19.4753   75.0340   21.7264 C   0  0  0  0  0  0
   18.2499   73.5254   23.7062 N   0  0  0  0  0  0
   19.2230   75.5469   23.0632 O   0  0  0  0  0  0
   19.8108   70.7344   19.1185 C   0  0  0  0  0  0
   18.7510   72.8189   22.6358 C   0  0  0  0  0  0
   19.8827   72.7843   20.5185 C   0  0  0  0  0  0
   18.8743   69.8740   18.5654 C   0  0  0  0  0  0
   20.8524   70.7979   18.1983 C   0  0  0  0  0  0
   19.5898   71.4288   20.3938 C   0  0  0  0  0  0
   19.3578   69.4624   17.3573 C   0  0  0  0  0  0
   20.5770   70.0127   17.1220 O   0  0  0  0  0  0
   18.2410   67.8620   15.6700 N   0  0  0  0  0  0
   18.7493   68.5749   16.4105 C   0  0  0  0  0  0
   17.8611   75.4620   24.8591 O   0  0  0  0  0  0
   18.4796   71.4621   22.5269 C   0  0  0  0  0  0
   18.9141   70.7606   21.4149 C   0  0  0  0  0  0
   20.8592   75.5795   21.3132 C   0  0  0  0  0  0
   18.2893   75.5131   20.8700 C   0  0  0  0  0  0
   17.5533   73.0873   24.2919 H   0  0  0  0  0  0
   20.3446   73.2995   19.6896 H   0  0  0  0  0  0
   17.9227   69.5952   18.9957 H   0  0  0  0  0  0
   21.7882   71.3376   18.1713 H   0  0  0  0  0  0
   17.8951   70.9591   23.2778 H   0  0  0  0  0  0
   18.6639   69.7140   21.3202 H   0  0  0  0  0  0
   21.1663   75.2426   20.3253 H   0  0  0  0  0  0
   20.8546   76.6670   21.2700 H   0  0  0  0  0  0
   21.6340   75.2763   22.0192 H   0  0  0  0  0  0
   18.3834   75.1896   19.8330 H   0  0  0  0  0  0
   17.3305   75.1439   21.2378 H   0  0  0  0  0  0
   18.2410   76.6008   20.8700 H   0  0  0  0  0  0
  1  3  1  0  0  0
  1  7  1  0  0  0
  1  8  2  0  0  0
  2  4  1  0  0  0
  2 16  2  0  0  0
  2  5  1  0  0  0
  3  5  1  0  0  0
  3 19  1  0  0  0
  3 20  1  0  0  0
  4  7  1  0  0  0
  4 21  1  0  0  0
  6 11  1  0  0  0
  6  9  1  0  0  0
  6 10  2  0  0  0
  7 17  2  0  0  0
  8 11  1  0  0  0
  8 22  1  0  0  0
  9 12  2  0  0  0
  9 23  1  0  0  0
 10 13  1  0  0  0
 10 24  1  0  0  0
 11 18  2  0  0  0
 12 15  1  0  0  0
 12 13  1  0  0  0
 14 15  3  0  0  0
 17 18  1  0  0  0
 17 25  1  0  0  0
 18 26  1  0  0  0
 19 27  1  0  0  0
 19 28  1  0  0  0
 19 29  1  0  0  0
 20 30  1  0  0  0
 20 31  1  0  0  0
 20 32  1  0  0  0
M  END
> <s_m_entry_id>
9631

> <s_m_entry_name>
dock_pv.71

> <s_m_Source_Path>
/home/csk/Desktop/cluster/DUD-E-result/mcr

> <s_m_Source_File>
dock_pv.maegz

> <i_m_Source_File_Index>
71

> <chembl_id>
CHEMBL138059

> <chembl_pref_name>
None

> <i_lp_mmshare_version>
53161

> <i_f3d_flags>
0

> <r_lp_tautomer_probability>
1

> <s_lp_Force_Field>
OPLS_2005

> <r_lp_Energy>
14.777492

> <b_lp_Chiralities_Consistent>
1

> <s_lp_Variant>
CHEMBL1994_lig68-1

> <s_i_glide_gridfile>
glide-grid_2aa2

> <i_i_glide_lignum>
88

> <i_i_glide_rotatable_bonds>
1

> <r_i_docking_score>
-8.74864578895951

> <r_i_glide_ligand_efficiency>
-0.437432289447975

> <r_i_glide_ligand_efficiency_sa>
-1.18737391135934

> <r_i_glide_ligand_efficiency_ln>
-2.18949749132668

> <r_i_glide_gscore>
-8.74864578895951

> <r_i_glide_lipo>
-3.35016289495473

> <r_i_glide_hbond>
-0.484807358992755

> <r_i_glide_metal>
0

> <r_i_glide_rewards>
-2.89182532554105

> <r_i_glide_evdw>
-32.7664604187012

> <r_i_glide_ecoul>
-3.80201268196106

> <r_i_glide_erotb>
0.24799045446609

> <r_i_glide_esite>
-0.0612157407078449

> <r_i_glide_emodel>
-46.787529806088

> <r_i_glide_energy>
-36.5684731006622

> <r_i_glide_einternal>
1.26043176651001

> <i_i_glide_confnum>
1

> <i_i_glide_posenum>
29

> <r_i_glide_eff_state_penalty>
0

> <s_user_duplicate_titles>
CHEMBL1994_lig68

> <s_m_subgroup_title>
dock_pv

> <s_m_subgroupid>
dock_pv

> <b_m_subgroup_collapsed>
1

$$$$
CHEMBL1994_lig28
                    3D
 Schrodinger Suite 2021-1.
 41 42  0  0  1  0            999 V2000
   18.2412   68.3845   16.3821 N   0  3  0  0  0  0
   18.6997   72.2887   21.2470 C   0  0  0  0  0  0
   19.9367   73.0781   20.7905 C   0  0  2  0  0  0
   19.9031   74.4888   21.5056 C   0  0  0  0  0  0
   17.4411   73.0121   21.2943 C   0  0  0  0  0  0
   17.3464   74.3572   21.2699 C   0  0  0  0  0  0
   18.7160   69.5793   17.1216 C   0  0  0  0  0  0
   18.5875   75.2409   21.1233 C   0  0  0  0  0  0
   17.0571   68.3142   16.0699 O   0  5  0  0  0  0
   19.0405   67.5126   16.0709 O   0  0  0  0  0  0
   20.0388   73.1338   19.2249 C   0  0  0  0  0  0
   18.7594   70.9967   21.6168 C   0  0  0  0  0  0
   17.7906   70.4753   17.6700 C   0  0  0  0  0  0
   20.0862   69.8538   17.2568 C   0  0  0  0  0  0
   19.5892   71.8802   18.4700 C   0  0  0  0  0  0
   18.2245   71.6306   18.3045 C   0  0  0  0  0  0
   20.5222   70.9876   17.9407 C   0  0  0  0  0  0
   21.1353   75.3312   21.1070 C   0  0  0  0  0  0
   19.9349   74.3122   23.0354 C   0  0  0  0  0  0
   16.0045   75.0537   21.2700 C   0  0  0  0  0  0
   20.8208   72.5442   21.1381 H   0  0  0  0  0  0
   16.5306   72.4378   21.3908 H   0  0  0  0  0  0
   18.5998   75.5014   20.0699 H   0  0  0  0  0  0
   18.4756   76.1818   21.6642 H   0  0  0  0  0  0
   19.4352   73.9477   18.8273 H   0  0  0  0  0  0
   21.0586   73.3871   18.9322 H   0  0  0  0  0  0
   19.6921   70.4516   21.5936 H   0  0  0  0  0  0
   17.8807   70.4623   21.9479 H   0  0  0  0  0  0
   16.7276   70.2992   17.5811 H   0  0  0  0  0  0
   20.8198   69.1823   16.8339 H   0  0  0  0  0  0
   17.4916   72.3235   18.6892 H   0  0  0  0  0  0
   21.5811   71.1747   18.0497 H   0  0  0  0  0  0
   22.0678   74.7931   21.2890 H   0  0  0  0  0  0
   21.1234   75.6146   20.0700 H   0  0  0  0  0  0
   21.1848   76.2621   21.6701 H   0  0  0  0  0  0
   20.8967   73.8798   23.2700 H   0  0  0  0  0  0
   19.8705   75.2676   23.5580 H   0  0  0  0  0  0
   19.1548   73.6669   23.4397 H   0  0  0  0  0  0
   15.8946   75.6748   22.1585 H   0  0  0  0  0  0
   15.1935   74.3260   21.2705 H   0  0  0  0  0  0
   15.9030   75.6776   20.3833 H   0  0  0  0  0  0
  1  7  1  0  0  0
  1  9  1  0  0  0
  1 10  2  0  0  0
  2  3  1  0  0  0
  2  5  1  0  0  0
  2 12  2  0  0  0
  3 11  1  0  0  0
  3  4  1  0  0  0
  3 21  1  0  0  0
  4  8  1  0  0  0
  4 18  1  0  0  0
  4 19  1  0  0  0
  5  6  2  0  0  0
  5 22  1  0  0  0
  6  8  1  0  0  0
  6 20  1  0  0  0
  7 13  2  0  0  0
  7 14  1  0  0  0
  8 23  1  0  0  0
  8 24  1  0  0  0
 11 15  1  0  0  0
 11 25  1  0  0  0
 11 26  1  0  0  0
 12 27  1  0  0  0
 12 28  1  0  0  0
 13 16  1  0  0  0
 13 29  1  0  0  0
 14 17  2  0  0  0
 14 30  1  0  0  0
 15 17  1  0  0  0
 15 16  2  0  0  0
 16 31  1  0  0  0
 17 32  1  0  0  0
 18 33  1  0  0  0
 18 34  1  0  0  0
 18 35  1  0  0  0
 19 36  1  0  0  0
 19 37  1  0  0  0
 19 38  1  0  0  0
 20 39  1  0  0  0
 20 40  1  0  0  0
 20 41  1  0  0  0
M  CHG  2   1   1   9  -1
M  END
> <s_m_entry_id>
9632

> <s_m_entry_name>
dock_pv.72

> <s_m_Source_Path>
/home/csk/Desktop/cluster/DUD-E-result/mcr

> <s_m_Source_File>
dock_pv.maegz

> <i_m_Source_File_Index>
72

> <chembl_id>
CHEMBL50023

> <chembl_pref_name>
None

> <i_lp_mmshare_version>
53161

> <i_f3d_flags>
0

> <r_lp_tautomer_probability>
1

> <s_lp_Force_Field>
OPLS_2005

> <r_lp_Energy>
22.995981

> <b_lp_Chiralities_Consistent>
1

> <s_lp_Variant>
CHEMBL1994_lig28-2

> <s_i_glide_gridfile>
glide-grid_2aa2

> <i_i_glide_lignum>
30

> <i_i_glide_rotatable_bonds>
3

> <r_i_docking_score>
-8.74437267051473

> <r_i_glide_ligand_efficiency>
-0.437218633525737

> <r_i_glide_ligand_efficiency_sa>
-1.18679395996071

> <r_i_glide_ligand_efficiency_ln>
-2.18842807071683

> <r_i_glide_gscore>
-8.74437267051473

> <r_i_glide_lipo>
-4.54349865932067

> <r_i_glide_hbond>
0

> <r_i_glide_metal>
0

> <r_i_glide_rewards>
-2.44678683690524

> <r_i_glide_evdw>
-36.1167526245117

> <r_i_glide_ecoul>
-1.85386157035828

> <r_i_glide_erotb>
0.486263148930052

> <r_i_glide_esite>
-0.156433456439554

> <r_i_glide_emodel>
-55.7938661503625

> <r_i_glide_energy>
-37.97061419487

> <r_i_glide_einternal>
3.63173413276672

> <i_i_glide_confnum>
1

> <i_i_glide_posenum>
350

> <r_i_glide_eff_state_penalty>
0

> <s_user_duplicate_titles>
CHEMBL1994_lig28

> <s_m_subgroup_title>
dock_pv

> <s_m_subgroupid>
dock_pv

> <b_m_subgroup_collapsed>
1

$$$$
CHEMBL1994_lig1039
                    3D
 Schrodinger Suite 2021-1.
 38 41  0  0  1  0            999 V2000
   21.4411   72.4428   19.3068 C   0  0  0  0  0  0
   18.6793   72.7597   19.3563 C   0  0  0  0  0  0
   20.8636   73.4158   20.1150 C   0  0  0  0  0  0
   19.4698   73.6008   20.1303 C   0  0  0  0  0  0
   18.9256   74.6843   20.9959 C   0  0  0  0  0  0
   19.8193   75.4706   21.6486 C   0  0  0  0  0  0
   21.2619   75.3896   21.4656 C   0  0  0  0  0  0
   21.6716   74.2638   20.8685 N   0  0  0  0  0  0
   19.2408   71.6673   18.6960 C   0  0  0  0  0  0
   20.6389   71.5612   18.6201 C   0  0  0  0  0  0
   21.3065   70.5388   17.9874 O   0  0  0  0  0  0
   20.5404   69.9244   16.9676 C   0  0  0  0  0  0
   17.4059   74.8450   21.1493 C   0  0  0  0  0  0
   17.1067   75.5552   22.2377 F   0  0  0  0  0  0
   16.9172   75.4597   20.0750 F   0  0  0  0  0  0
   16.8041   73.6637   21.2728 F   0  0  0  0  0  0
   22.0835   76.2625   21.6714 O   0  0  0  0  0  0
   18.4440   70.7524   18.0339 N   0  0  0  0  0  0
   19.1385   69.5668   17.4899 C   0  0  1  0  0  0
   18.3035   68.8124   16.4498 C   0  0  0  0  0  0
   16.8351   68.6618   16.8726 C   0  0  0  0  0  0
   16.2410   69.8598   17.5980 C   0  0  0  0  0  0
   17.1909   70.3460   18.6723 C   0  0  0  0  0  0
   22.5040   72.2620   19.2695 H   0  0  0  0  0  0
   17.6211   72.9256   19.2969 H   0  0  0  0  0  0
   19.4443   76.2517   22.2912 H   0  0  0  0  0  0
   22.6714   74.2159   20.7699 H   0  0  0  0  0  0
   20.4383   70.6040   16.1304 H   0  0  0  0  0  0
   21.0818   69.0625   16.6106 H   0  0  0  0  0  0
   19.2341   68.8906   18.3386 H   0  0  0  0  0  0
   18.3528   69.3521   15.5090 H   0  0  0  0  0  0
   18.7248   67.8204   16.2807 H   0  0  0  0  0  0
   16.7664   67.8623   17.5955 H   0  0  0  0  0  0
   16.2410   68.3682   16.0128 H   0  0  0  0  0  0
   15.2960   69.5832   18.0691 H   0  0  0  0  0  0
   16.0116   70.6610   16.8970 H   0  0  0  0  0  0
   17.4272   69.5525   19.3823 H   0  0  0  0  0  0
   16.6926   71.1256   19.2448 H   0  0  0  0  0  0
  1  3  1  0  0  0
  1 10  2  0  0  0
  1 24  1  0  0  0
  2  9  2  0  0  0
  2  4  1  0  0  0
  2 25  1  0  0  0
  3  4  2  0  0  0
  3  8  1  0  0  0
  4  5  1  0  0  0
  5 13  1  0  0  0
  5  6  2  0  0  0
  6  7  1  0  0  0
  6 26  1  0  0  0
  7 17  2  0  0  0
  7  8  1  0  0  0
  8 27  1  0  0  0
  9 18  1  0  0  0
  9 10  1  0  0  0
 10 11  1  0  0  0
 11 12  1  0  0  0
 12 19  1  0  0  0
 12 28  1  0  0  0
 12 29  1  0  0  0
 13 14  1  0  0  0
 13 15  1  0  0  0
 13 16  1  0  0  0
 18 19  1  0  0  0
 18 23  1  0  0  0
 19 20  1  0  0  0
 19 30  1  0  0  0
 20 21  1  0  0  0
 20 31  1  0  0  0
 20 32  1  0  0  0
 21 22  1  0  0  0
 21 33  1  0  0  0
 21 34  1  0  0  0
 22 23  1  0  0  0
 22 35  1  0  0  0
 22 36  1  0  0  0
 23 37  1  0  0  0
 23 38  1  0  0  0
M  END
> <s_m_entry_id>
9633

> <s_m_entry_name>
dock_pv.73

> <s_m_Source_Path>
/home/csk/Desktop/cluster/DUD-E-result/mcr

> <s_m_Source_File>
dock_pv.maegz

> <i_m_Source_File_Index>
73

> <chembl_id>
CHEMBL226609

> <chembl_pref_name>
None

> <i_lp_mmshare_version>
53161

> <i_f3d_flags>
0

> <r_lp_tautomer_probability>
1

> <s_lp_Force_Field>
OPLS_2005

> <r_lp_Energy>
35.051745

> <b_lp_Chiralities_Consistent>
1

> <s_lp_Variant>
CHEMBL1994_lig1039-2

> <s_i_glide_gridfile>
glide-grid_2aa2

> <i_i_glide_lignum>
1499

> <i_i_glide_rotatable_bonds>
1

> <r_i_docking_score>
-8.72335894979214

> <r_i_glide_ligand_efficiency>
-0.379276476077919

> <r_i_glide_ligand_efficiency_sa>
-1.07861184542513

> <r_i_glide_ligand_efficiency_ln>
-2.10938729310548

> <r_i_glide_gscore>
-8.72335894979214

> <r_i_glide_lipo>
-4.26392791800877

> <r_i_glide_hbond>
0

> <r_i_glide_metal>
0

> <r_i_glide_rewards>
-2.67384695398553

> <r_i_glide_evdw>
-35.8609008789062

> <r_i_glide_ecoul>
0.0497397743165493

> <r_i_glide_erotb>
0

> <r_i_glide_esite>
0

> <r_i_glide_emodel>
-36.9452773169529

> <r_i_glide_energy>
-35.8111611045897

> <r_i_glide_einternal>
1.64825987815857

> <i_i_glide_confnum>
2

> <i_i_glide_posenum>
283

> <r_i_glide_eff_state_penalty>
0

> <s_user_duplicate_titles>
CHEMBL1994_lig1039

> <s_m_subgroup_title>
dock_pv

> <s_m_subgroupid>
dock_pv

> <b_m_subgroup_collapsed>
1

$$$$
CHEMBL1994_lig41
                    3D
 Schrodinger Suite 2021-1.
 38 40  0  0  1  0            999 V2000
   19.5183   70.2761   18.0113 C   0  0  0  0  0  0
   19.1518   71.2915   19.0272 C   0  0  0  0  0  0
   17.8741   71.1833   19.5727 C   0  0  0  0  0  0
   20.9022   70.3547   17.4015 C   0  0  0  0  0  0
   17.7236   74.0534   21.8479 N   0  0  0  0  0  0
   18.2414   73.1274   20.9331 C   0  0  0  0  0  0
   16.9611   70.2620   19.1045 O   0  0  0  0  0  0
   17.2346   69.3744   18.0948 C   0  0  0  0  0  0
   18.5936   69.3915   17.5724 C   0  0  0  0  0  0
   19.4730   73.3448   20.2969 C   0  0  0  0  0  0
   19.9522   72.3761   19.4122 C   0  0  0  0  0  0
   17.4409   72.0536   20.5639 C   0  0  0  0  0  0
   18.2551   75.4146   21.9057 C   0  0  2  0  0  0
   20.2007   74.6620   20.4700 C   0  0  0  0  0  0
   19.7996   75.4312   21.7169 C   0  0  2  0  0  0
   16.3049   68.6623   17.7289 O   0  0  0  0  0  0
   21.0409   69.4620   16.4313 F   0  0  0  0  0  0
   21.0410   71.5551   16.8699 F   0  0  0  0  0  0
   21.8409   70.1547   18.3267 F   0  0  0  0  0  0
   17.6909   76.1282   23.1598 C   0  0  0  0  0  0
   20.6410   74.9316   22.8700 C   0  0  0  0  0  0
   17.7826   75.3674   24.4946 C   0  0  0  0  0  0
   16.8141   73.9152   22.2738 H   0  0  0  0  0  0
   18.8483   68.6767   16.8052 H   0  0  0  0  0  0
   20.9243   72.5376   18.9725 H   0  0  0  0  0  0
   16.4578   71.9335   20.9958 H   0  0  0  0  0  0
   17.8389   75.9288   21.0373 H   0  0  0  0  0  0
   19.8410   75.2831   19.6700 H   0  0  0  0  0  0
   21.2810   74.5711   20.3408 H   0  0  0  0  0  0
   20.0905   76.4693   21.5510 H   0  0  0  0  0  0
   16.6354   76.3372   22.9782 H   0  0  0  0  0  0
   18.1630   77.1043   23.2701 H   0  0  0  0  0  0
   20.2723   73.9819   23.2605 H   0  0  0  0  0  0
   21.6889   74.8018   22.5948 H   0  0  0  0  0  0
   20.6317   75.6645   23.6700 H   0  0  0  0  0  0
   17.1928   75.8610   25.2674 H   0  0  0  0  0  0
   18.7896   75.2950   24.8691 H   0  0  0  0  0  0
   17.4410   74.3387   24.4284 H   0  0  0  0  0  0
  1  2  1  0  0  0
  1  4  1  0  0  0
  1  9  2  0  0  0
  2  3  2  0  0  0
  2 11  1  0  0  0
  3 12  1  0  0  0
  3  7  1  0  0  0
  4 17  1  0  0  0
  4 18  1  0  0  0
  4 19  1  0  0  0
  5  6  1  0  0  0
  5 13  1  0  0  0
  5 23  1  0  0  0
  6 10  1  0  0  0
  6 12  2  0  0  0
  7  8  1  0  0  0
  8  9  1  0  0  0
  8 16  2  0  0  0
  9 24  1  0  0  0
 10 11  2  0  0  0
 10 14  1  0  0  0
 11 25  1  0  0  0
 12 26  1  0  0  0
 13 15  1  0  0  0
 13 20  1  0  0  0
 13 27  1  0  0  0
 14 15  1  0  0  0
 14 28  1  0  0  0
 14 29  1  0  0  0
 15 21  1  0  0  0
 15 30  1  0  0  0
 20 22  1  0  0  0
 20 31  1  0  0  0
 20 32  1  0  0  0
 21 33  1  0  0  0
 21 34  1  0  0  0
 21 35  1  0  0  0
 22 36  1  0  0  0
 22 37  1  0  0  0
 22 38  1  0  0  0
M  END
> <s_m_entry_id>
9634

> <s_m_entry_name>
dock_pv.74

> <s_m_Source_Path>
/home/csk/Desktop/cluster/DUD-E-result/mcr

> <s_m_Source_File>
dock_pv.maegz

> <i_m_Source_File_Index>
74

> <chembl_id>
CHEMBL6654

> <chembl_pref_name>
None

> <i_lp_mmshare_version>
53161

> <i_f3d_flags>
0

> <r_lp_tautomer_probability>
1

> <s_lp_Force_Field>
OPLS_2005

> <r_lp_Energy>
18.884954

> <b_lp_Chiralities_Consistent>
1

> <s_lp_Variant>
CHEMBL1994_lig41-1

> <s_i_glide_gridfile>
glide-grid_2aa2

> <i_i_glide_lignum>
45

> <i_i_glide_rotatable_bonds>
2

> <r_i_docking_score>
-8.72020906427563

> <r_i_glide_ligand_efficiency>
-0.396373139285256

> <r_i_glide_ligand_efficiency_sa>
-1.11065312474827

> <r_i_glide_ligand_efficiency_ln>
-2.13153717266299

> <r_i_glide_gscore>
-8.72020906427563

> <r_i_glide_lipo>
-4.15817187488178

> <r_i_glide_hbond>
-0.309815378356886

> <r_i_glide_metal>
0

> <r_i_glide_rewards>
-2.3673509242343

> <r_i_glide_evdw>
-33.4961585998535

> <r_i_glide_ecoul>
-1.40041971206665

> <r_i_glide_erotb>
0

> <r_i_glide_esite>
0

> <r_i_glide_emodel>
-40.7318671993986

> <r_i_glide_energy>
-34.8965783119202

> <r_i_glide_einternal>
6.5902214050293

> <i_i_glide_confnum>
2

> <i_i_glide_posenum>
95

> <r_i_glide_eff_state_penalty>
0

> <s_user_duplicate_titles>
CHEMBL1994_lig41

> <s_m_subgroup_title>
dock_pv

> <s_m_subgroupid>
dock_pv

> <b_m_subgroup_collapsed>
1

$$$$
CHEMBL1994_lig38
                    3D
 Schrodinger Suite 2021-1.
 32 34  0  0  1  0            999 V2000
   19.7108   70.6801   18.4527 C   0  0  0  0  0  0
   19.2552   71.6895   19.4518 C   0  0  0  0  0  0
   17.9058   71.6338   19.8053 C   0  0  0  0  0  0
   21.1462   70.7364   17.9539 C   0  0  0  0  0  0
   17.0410   70.6948   19.2700 O   0  0  0  0  0  0
   17.4188   69.7909   18.3086 C   0  0  0  0  0  0
   18.8226   69.8084   17.9219 C   0  0  0  0  0  0
   18.1393   73.5963   21.1822 C   0  0  0  0  0  0
   19.5116   73.6795   20.8718 C   0  0  0  0  0  0
   20.0538   72.6972   20.0247 C   0  0  0  0  0  0
   17.3638   72.5512   20.6953 C   0  0  0  0  0  0
   17.5252   74.5023   22.0700 N   0  0  0  0  0  0
   16.5369   69.0620   17.8614 O   0  0  0  0  0  0
   20.3159   74.8394   21.4722 C   0  0  1  0  0  0
   21.4410   71.9946   17.6700 F   0  0  0  0  0  0
   21.2976   70.0284   16.8385 F   0  0  0  0  0  0
   21.9825   70.2620   18.8700 F   0  0  0  0  0  0
   18.2958   75.4883   22.8326 C   0  0  0  0  0  0
   19.7808   75.0957   22.8875 C   0  0  0  0  0  0
   21.8410   74.6973   21.4675 C   0  0  0  0  0  0
   19.1447   69.1006   17.1731 H   0  0  0  0  0  0
   21.1077   72.7432   19.8045 H   0  0  0  0  0  0
   16.3218   72.4767   20.9723 H   0  0  0  0  0  0
   16.5231   74.5142   22.2060 H   0  0  0  0  0  0
   20.0928   75.7142   20.8575 H   0  0  0  0  0  0
   17.8660   75.6255   23.8259 H   0  0  0  0  0  0
   18.1905   76.4196   22.2747 H   0  0  0  0  0  0
   19.8910   74.1970   23.4981 H   0  0  0  0  0  0
   20.3568   75.8620   23.3996 H   0  0  0  0  0  0
   22.2410   74.5674   20.4700 H   0  0  0  0  0  0
   22.3006   75.6004   21.8690 H   0  0  0  0  0  0
   22.1786   73.8620   22.0748 H   0  0  0  0  0  0
  1  2  1  0  0  0
  1  4  1  0  0  0
  1  7  2  0  0  0
  2  3  2  0  0  0
  2 10  1  0  0  0
  3 11  1  0  0  0
  3  5  1  0  0  0
  4 15  1  0  0  0
  4 16  1  0  0  0
  4 17  1  0  0  0
  5  6  1  0  0  0
  6  7  1  0  0  0
  6 13  2  0  0  0
  7 21  1  0  0  0
  8  9  1  0  0  0
  8 12  1  0  0  0
  8 11  2  0  0  0
  9 10  2  0  0  0
  9 14  1  0  0  0
 10 22  1  0  0  0
 11 23  1  0  0  0
 12 18  1  0  0  0
 12 24  1  0  0  0
 14 19  1  0  0  0
 14 20  1  0  0  0
 14 25  1  0  0  0
 18 19  1  0  0  0
 18 26  1  0  0  0
 18 27  1  0  0  0
 19 28  1  0  0  0
 19 29  1  0  0  0
 20 30  1  0  0  0
 20 31  1  0  0  0
 20 32  1  0  0  0
M  END
> <s_m_entry_id>
9636

> <s_m_entry_name>
dock_pv.76

> <s_m_Source_Path>
/home/csk/Desktop/cluster/DUD-E-result/mcr

> <s_m_Source_File>
dock_pv.maegz

> <i_m_Source_File_Index>
76

> <chembl_id>
CHEMBL415289

> <chembl_pref_name>
None

> <i_lp_mmshare_version>
53161

> <i_f3d_flags>
0

> <r_lp_tautomer_probability>
1

> <s_lp_Force_Field>
OPLS_2005

> <r_lp_Energy>
16.889715

> <b_lp_Chiralities_Consistent>
1

> <s_lp_Variant>
CHEMBL1994_lig38-2

> <s_i_glide_gridfile>
glide-grid_2aa2

> <i_i_glide_lignum>
42

> <i_i_glide_rotatable_bonds>
1

> <r_i_docking_score>
-8.68852385792797

> <r_i_glide_ligand_efficiency>
-0.434426192896398

> <r_i_glide_ligand_efficiency_sa>
-1.1792141099307

> <r_i_glide_ligand_efficiency_ln>
-2.17445095494348

> <r_i_glide_gscore>
-8.68852385792797

> <r_i_glide_lipo>
-3.77655934195954

> <r_i_glide_hbond>
-0.0644326748303937

> <r_i_glide_metal>
0

> <r_i_glide_rewards>
-2.98978825412877

> <r_i_glide_evdw>
-36.3329849243164

> <r_i_glide_ecoul>
-0.210997313261032

> <r_i_glide_erotb>
0

> <r_i_glide_esite>
-0.00944474380428273

> <r_i_glide_emodel>
-49.8936396638665

> <r_i_glide_energy>
-36.5439822375774

> <r_i_glide_einternal>
2.67191815376282

> <i_i_glide_confnum>
1

> <i_i_glide_posenum>
33

> <r_i_glide_eff_state_penalty>
0

> <s_user_duplicate_titles>
CHEMBL1994_lig38

> <s_m_subgroup_title>
dock_pv

> <s_m_subgroupid>
dock_pv

> <b_m_subgroup_collapsed>
1

$$$$
CHEMBL1994_lig518
                    3D
 Schrodinger Suite 2021-1.
 39 42  0  0  1  0            999 V2000
   16.9166   68.6882   17.3077 C   0  0  0  0  0  0
   18.3508   68.6619   16.7065 C   0  0  0  0  0  0
   19.2212   69.3866   17.4414 N   0  0  0  0  0  0
   16.5956   69.9185   17.9847 O   0  0  0  0  0  0
   17.5650   70.3324   18.8699 C   0  0  0  0  0  0
   18.9074   70.1027   18.5985 C   0  0  0  0  0  0
   19.8666   70.7000   19.4215 C   0  0  0  0  0  0
   19.4459   71.6034   20.4267 C   0  0  0  0  0  0
   18.1348   71.5972   20.8404 C   0  0  0  0  0  0
   17.2132   71.0620   19.9906 C   0  0  0  0  0  0
   20.2437   72.7812   20.7748 C   0  0  0  0  0  0
   19.9646   73.8918   21.4966 C   0  0  0  0  0  0
   21.0049   74.8579   21.2633 C   0  0  0  0  0  0
   21.8411   74.3337   20.4700 O   0  0  0  0  0  0
   21.4303   73.1054   19.9470 C   0  0  2  0  0  0
   18.7819   74.3721   22.2108 C   0  0  0  0  0  0
   21.1213   76.0001   21.6700 O   0  0  0  0  0  0
   18.9010   74.6958   23.5606 C   0  0  0  0  0  0
   17.9217   75.4573   24.1784 C   0  0  0  0  0  0
   16.8166   75.8620   23.4451 C   0  0  0  0  0  0
   16.6409   75.4620   22.1222 C   0  0  0  0  0  0
   17.6384   74.7324   21.4930 C   0  0  0  0  0  0
   15.9007   76.6435   24.0392 F   0  0  0  0  0  0
   18.6410   68.0701   15.6701 O   0  0  0  0  0  0
   21.0594   73.3243   18.4700 C   0  0  0  0  0  0
   16.8690   67.8834   18.0413 H   0  0  0  0  0  0
   16.2056   68.4787   16.5121 H   0  0  0  0  0  0
   20.1713   69.3680   17.1039 H   0  0  0  0  0  0
   20.9081   70.6176   19.1476 H   0  0  0  0  0  0
   17.7686   72.1809   21.6673 H   0  0  0  0  0  0
   16.2410   71.3217   20.2437 H   0  0  0  0  0  0
   22.2414   72.3913   20.0326 H   0  0  0  0  0  0
   19.8033   74.4363   24.0894 H   0  0  0  0  0  0
   18.0292   75.7591   25.2093 H   0  0  0  0  0  0
   15.7618   75.7701   21.5778 H   0  0  0  0  0  0
   17.5520   74.5061   20.4397 H   0  0  0  0  0  0
   20.9987   72.4086   17.8868 H   0  0  0  0  0  0
   20.1163   73.8598   18.3504 H   0  0  0  0  0  0
   21.8409   73.9124   17.9975 H   0  0  0  0  0  0
  1  2  1  0  0  0
  1  4  1  0  0  0
  1 26  1  0  0  0
  1 27  1  0  0  0
  2  3  1  0  0  0
  2 24  2  0  0  0
  3  6  1  0  0  0
  3 28  1  0  0  0
  4  5  1  0  0  0
  5  6  2  0  0  0
  5 10  1  0  0  0
  6  7  1  0  0  0
  7  8  2  0  0  0
  7 29  1  0  0  0
  8  9  1  0  0  0
  8 11  1  0  0  0
  9 10  2  0  0  0
  9 30  1  0  0  0
 10 31  1  0  0  0
 11 12  2  0  0  0
 11 15  1  0  0  0
 12 13  1  0  0  0
 12 16  1  0  0  0
 13 14  1  0  0  0
 13 17  2  0  0  0
 14 15  1  0  0  0
 15 25  1  0  0  0
 15 32  1  0  0  0
 16 18  2  0  0  0
 16 22  1  0  0  0
 18 19  1  0  0  0
 18 33  1  0  0  0
 19 20  2  0  0  0
 19 34  1  0  0  0
 20 21  1  0  0  0
 20 23  1  0  0  0
 21 22  2  0  0  0
 21 35  1  0  0  0
 22 36  1  0  0  0
 25 37  1  0  0  0
 25 38  1  0  0  0
 25 39  1  0  0  0
M  END
> <s_m_entry_id>
9637

> <s_m_entry_name>
dock_pv.77

> <s_m_Source_Path>
/home/csk/Desktop/cluster/DUD-E-result/mcr

> <s_m_Source_File>
dock_pv.maegz

> <i_m_Source_File_Index>
77

> <chembl_id>
CHEMBL2419306

> <chembl_pref_name>
None

> <i_lp_mmshare_version>
53161

> <i_f3d_flags>
0

> <r_lp_tautomer_probability>
0.999841193423406

> <s_lp_Force_Field>
OPLS_2005

> <r_lp_Energy>
29.408328

> <b_lp_Chiralities_Consistent>
1

> <s_lp_Variant>
CHEMBL1994_lig518-2

> <s_i_glide_gridfile>
glide-grid_2aa2

> <i_i_glide_lignum>
829

> <i_i_glide_rotatable_bonds>
2

> <r_i_docking_score>
-8.65999962021502

> <r_i_glide_ligand_efficiency>
-0.346399984808601

> <r_i_glide_ligand_efficiency_sa>
-1.01287969901024

> <r_i_glide_ligand_efficiency_ln>
-2.05267942923766

> <r_i_glide_gscore>
-8.65999962021502

> <r_i_glide_lipo>
-3.9218970008934

> <r_i_glide_hbond>
-0.0304934874439849

> <r_i_glide_metal>
0

> <r_i_glide_rewards>
-2.87254202046226

> <r_i_glide_evdw>
-29.0141201019287

> <r_i_glide_ecoul>
-4.51688671112061

> <r_i_glide_erotb>
0.328709368789412

> <r_i_glide_esite>
-0.0355374684402641

> <r_i_glide_emodel>
-69.0010467517833

> <r_i_glide_energy>
-33.5310068130493

> <r_i_glide_einternal>
4.87540483474731

> <i_i_glide_confnum>
9

> <i_i_glide_posenum>
325

> <r_i_glide_eff_state_penalty>
0

> <s_user_duplicate_titles>
CHEMBL1994_lig518

> <s_m_subgroup_title>
dock_pv

> <s_m_subgroupid>
dock_pv

> <b_m_subgroup_collapsed>
1

$$$$
CHEMBL1994_lig954 
                    3D
 Schrodinger Suite 2021-1.
 42 45  0  0  1  0            999 V2000
   18.3263   68.7138   16.7667 C   0  0  0  0  0  0
   19.0809   69.7533   16.2731 C   0  0  0  0  0  0
   19.6873   70.6626   17.1357 C   0  0  0  0  0  0
   18.2406   68.5464   18.1377 C   0  0  0  0  0  0
   18.9162   69.3791   19.0118 C   0  0  0  0  0  0
   19.5481   70.5428   18.5254 C   0  0  0  0  0  0
   20.0344   71.4963   19.4750 N   0  0  0  0  0  0
   19.8652   71.2037   20.9286 C   0  0  2  0  0  0
   20.2385   69.7230   21.0547 C   0  0  0  0  0  0
   19.1106   68.9224   20.4484 C   0  0  0  0  0  0
   20.6867   72.6558   19.1508 C   0  0  0  0  0  0
   20.4370   73.8129   20.0694 C   0  0  0  0  0  0
   21.4090   72.8150   18.1727 O   0  0  0  0  0  0
   21.4449   74.2747   20.9283 C   0  0  0  0  0  0
   21.1043   75.0632   22.0266 C   0  0  0  0  0  0
   19.1195   74.2567   20.2160 C   0  0  0  0  0  0
   18.7794   74.9848   21.3440 C   0  0  0  0  0  0
   19.7687   75.3615   22.2526 C   0  0  0  0  0  0
   19.4036   75.8615   23.4819 O   0  0  0  0  0  0
   18.1502   76.5695   23.4870 C   0  0  0  0  0  0
   17.0139   75.8330   22.7678 C   0  0  0  0  0  0
   17.4494   75.1681   21.6888 N   0  0  0  0  0  0
   15.8445   75.8620   23.1018 O   0  0  0  0  0  0
   18.5171   71.5382   21.6254 C   0  0  0  0  0  0
   17.7315   67.8636   15.9045 F   0  0  0  0  0  0
   19.1532   69.8619   15.2042 H   0  0  0  0  0  0
   20.2415   71.4696   16.6872 H   0  0  0  0  0  0
   17.7114   67.7242   18.5662 H   0  0  0  0  0  0
   20.6368   71.7349   21.4693 H   0  0  0  0  0  0
   21.1796   69.4956   20.5491 H   0  0  0  0  0  0
   20.4438   69.4626   22.0742 H   0  0  0  0  0  0
   18.2421   69.0660   21.0574 H   0  0  0  0  0  0
   19.3353   67.8613   20.4980 H   0  0  0  0  0  0
   22.4627   73.9264   20.8396 H   0  0  0  0  0  0
   21.8407   75.3448   22.7616 H   0  0  0  0  0  0
   18.3372   73.8882   19.5652 H   0  0  0  0  0  0
   17.8007   76.8323   24.4703 H   0  0  0  0  0  0
   18.2625   77.4616   22.8951 H   0  0  0  0  0  0
   16.7226   74.7064   21.1638 H   0  0  0  0  0  0
   18.3444   70.8924   22.4862 H   0  0  0  0  0  0
   18.5147   72.5311   22.0590 H   0  0  0  0  0  0
   17.6645   71.4510   20.9513 H   0  0  0  0  0  0
  1  2  2  0  0  0
  1  4  1  0  0  0
  1 25  1  0  0  0
  2  3  1  0  0  0
  2 26  1  0  0  0
  3  6  2  0  0  0
  3 27  1  0  0  0
  4  5  2  0  0  0
  4 28  1  0  0  0
  5  6  1  0  0  0
  5 10  1  0  0  0
  6  7  1  0  0  0
  7  8  1  0  0  0
  7 11  1  0  0  0
  8  9  1  0  0  0
  8 24  1  0  0  0
  8 29  1  0  0  0
  9 10  1  0  0  0
  9 30  1  0  0  0
  9 31  1  0  0  0
 10 32  1  0  0  0
 10 33  1  0  0  0
 11 12  1  0  0  0
 11 13  2  0  0  0
 12 14  2  0  0  0
 12 16  1  0  0  0
 14 15  1  0  0  0
 14 34  1  0  0  0
 15 18  2  0  0  0
 15 35  1  0  0  0
 16 17  2  0  0  0
 16 36  1  0  0  0
 17 18  1  0  0  0
 17 22  1  0  0  0
 18 19  1  0  0  0
 19 20  1  0  0  0
 20 21  1  0  0  0
 20 37  1  0  0  0
 20 38  1  0  0  0
 21 22  1  0  0  0
 21 23  2  0  0  0
 22 39  1  0  0  0
 24 40  1  0  0  0
 24 41  1  0  0  0
 24 42  1  0  0  0
M  END
> <s_m_entry_id>
9638

> <s_m_entry_name>
dock_pv.78

> <s_m_Source_Path>
/home/csk/Desktop/cluster/DUD-E-result/mcr

> <s_m_Source_File>
dock_pv.maegz

> <i_m_Source_File_Index>
78

> <chembl_id>
CHEMBL4440099

> <chembl_pref_name>
None

> <i_lp_mmshare_version>
53161

> <i_f3d_flags>
0

> <r_lp_tautomer_probability>
1

> <s_lp_Force_Field>
OPLS_2005

> <r_lp_Energy>
50.42173

> <b_lp_Chiralities_Consistent>
1

> <s_lp_Variant>
CHEMBL1994_lig954 -1

> <s_i_glide_gridfile>
glide-grid_2aa2

> <i_i_glide_lignum>
1396

> <i_i_glide_rotatable_bonds>
2

> <r_i_docking_score>
-8.65987789219483

> <r_i_glide_ligand_efficiency>
-0.346395115687793

> <r_i_glide_ligand_efficiency_sa>
-1.01286546161464

> <r_i_glide_ligand_efficiency_ln>
-2.05265057604898

> <r_i_glide_gscore>
-8.65987789219483

> <r_i_glide_lipo>
-4.47944103613264

> <r_i_glide_hbond>
-0.0757974347488586

> <r_i_glide_metal>
0

> <r_i_glide_rewards>
-2.46623129951252

> <r_i_glide_evdw>
-24.1432094573975

> <r_i_glide_ecoul>
-4.55995178222656

> <r_i_glide_erotb>
0.326946135774775

> <r_i_glide_esite>
-0.0742010173717272

> <r_i_glide_emodel>
-40.9660441661349

> <r_i_glide_energy>
-28.703161239624

> <r_i_glide_einternal>
1.70446050167084

> <i_i_glide_confnum>
15

> <i_i_glide_posenum>
31

> <r_i_glide_eff_state_penalty>
0

> <s_user_duplicate_titles>
CHEMBL1994_lig954 

> <s_m_subgroup_title>
dock_pv

> <s_m_subgroupid>
dock_pv

> <b_m_subgroup_collapsed>
1

$$$$
CHEMBL1994_lig1115
                    3D
 Schrodinger Suite 2021-1.
 38 39  0  0  1  0            999 V2000
   18.5239   72.1440   19.1843 C   0  0  0  0  0  0
   18.3926   73.3197   19.9443 N   0  0  0  0  0  0
   17.4410   71.2671   19.0898 C   0  0  0  0  0  0
   17.5051   70.1297   18.3036 C   0  0  0  0  0  0
   18.6704   69.8376   17.6022 C   0  0  0  0  0  0
   19.7942   70.6755   17.7149 C   0  0  0  0  0  0
   19.7220   71.8403   18.5052 C   0  0  0  0  0  0
   18.6579   68.6620   16.7501 C   0  0  0  0  0  0
   18.6410   67.7320   16.0692 N   0  0  0  0  0  0
   21.2731   70.2818   16.8854 Cl  0  0  0  0  0  0
   20.9637   72.7274   18.6477 C   0  0  0  0  0  0
   17.8177   73.2864   21.2977 C   0  0  1  0  0  0
   18.8639   72.7370   22.3398 C   0  0  2  0  0  0
   19.9677   73.7965   22.6007 C   0  0  0  0  0  0
   19.4382   75.1910   22.9618 C   0  0  0  0  0  0
   18.4673   75.7180   21.8958 C   0  0  0  0  0  0
   17.3238   74.7202   21.6203 C   0  0  0  0  0  0
   19.4280   71.3378   22.0018 C   0  0  0  0  0  0
   18.2410   72.5449   23.5925 O   0  0  0  0  0  0
   19.1423   73.9873   19.8418 H   0  0  0  0  0  0
   16.5212   71.4620   19.6119 H   0  0  0  0  0  0
   16.6336   69.4903   18.2432 H   0  0  0  0  0  0
   20.8184   73.6139   19.2627 H   0  0  0  0  0  0
   21.7812   72.1546   19.0877 H   0  0  0  0  0  0
   21.3018   73.0620   17.6700 H   0  0  0  0  0  0
   16.9452   72.6335   21.3023 H   0  0  0  0  0  0
   20.6267   73.4620   23.3964 H   0  0  0  0  0  0
   20.6077   73.8728   21.7210 H   0  0  0  0  0  0
   20.2855   75.8620   23.0817 H   0  0  0  0  0  0
   18.9377   75.1578   23.9313 H   0  0  0  0  0  0
   19.0091   75.9309   20.9731 H   0  0  0  0  0  0
   18.0525   76.6622   22.2374 H   0  0  0  0  0  0
   16.7087   75.0979   20.8010 H   0  0  0  0  0  0
   16.6500   74.6896   22.4720 H   0  0  0  0  0  0
   20.2217   71.3866   21.2574 H   0  0  0  0  0  0
   19.8410   70.8367   22.8700 H   0  0  0  0  0  0
   18.6485   70.6760   21.6246 H   0  0  0  0  0  0
   17.2969   72.7719   23.5408 H   0  0  0  0  0  0
  1  2  1  0  0  0
  1  3  2  0  0  0
  1  7  1  0  0  0
  2 12  1  0  0  0
  2 20  1  0  0  0
  3  4  1  0  0  0
  3 21  1  0  0  0
  4  5  2  0  0  0
  4 22  1  0  0  0
  5  6  1  0  0  0
  5  8  1  0  0  0
  6  7  2  0  0  0
  6 10  1  0  0  0
  7 11  1  0  0  0
  8  9  3  0  0  0
 11 23  1  0  0  0
 11 24  1  0  0  0
 11 25  1  0  0  0
 12 13  1  0  0  0
 12 17  1  0  0  0
 12 26  1  0  0  0
 13 14  1  0  0  0
 13 18  1  0  0  0
 13 19  1  0  0  0
 14 15  1  0  0  0
 14 27  1  0  0  0
 14 28  1  0  0  0
 15 16  1  0  0  0
 15 29  1  0  0  0
 15 30  1  0  0  0
 16 17  1  0  0  0
 16 31  1  0  0  0
 16 32  1  0  0  0
 17 33  1  0  0  0
 17 34  1  0  0  0
 18 35  1  0  0  0
 18 36  1  0  0  0
 18 37  1  0  0  0
 19 38  1  0  0  0
M  END
> <s_m_entry_id>
9639

> <s_m_entry_name>
dock_pv.79

> <s_m_Source_Path>
/home/csk/Desktop/cluster/DUD-E-result/mcr

> <s_m_Source_File>
dock_pv.maegz

> <i_m_Source_File_Index>
79

> <chembl_id>
CHEMBL3765823

> <chembl_pref_name>
None

> <i_lp_mmshare_version>
53161

> <i_f3d_flags>
0

> <r_lp_tautomer_probability>
1

> <s_lp_Force_Field>
OPLS_2005

> <r_lp_Energy>
25.22154

> <b_lp_Chiralities_Consistent>
1

> <s_lp_Variant>
CHEMBL1994_lig1115-1

> <s_i_glide_gridfile>
glide-grid_2aa2

> <i_i_glide_lignum>
1601

> <i_i_glide_rotatable_bonds>
3

> <r_i_docking_score>
-8.65876136296342

> <r_i_glide_ligand_efficiency>
-0.455724282261232

> <r_i_glide_ligand_efficiency_sa>
-1.21605542495496

> <r_i_glide_ligand_efficiency_ln>
-2.19518197865321

> <r_i_glide_gscore>
-8.65876136296342

> <r_i_glide_lipo>
-3.62110158181354

> <r_i_glide_hbond>
-0.390577892655571

> <r_i_glide_metal>
0

> <r_i_glide_rewards>
-2.37429578865718

> <r_i_glide_evdw>
-30.8466720581055

> <r_i_glide_ecoul>
-7.96328687667847

> <r_i_glide_erotb>
0.464040534569921

> <r_i_glide_esite>
0

> <r_i_glide_emodel>
-57.5810896077975

> <r_i_glide_energy>
-38.8099589347839

> <r_i_glide_einternal>
1.64641714096069

> <i_i_glide_confnum>
3

> <i_i_glide_posenum>
19

> <r_i_glide_eff_state_penalty>
0

> <s_user_duplicate_titles>
CHEMBL1994_lig1115

> <s_m_subgroup_title>
dock_pv

> <s_m_subgroupid>
dock_pv

> <b_m_subgroup_collapsed>
1

$$$$
CHEMBL1994_lig959 
                    3D
 Schrodinger Suite 2021-1.
 39 42  0  0  1  0            999 V2000
   16.4221   75.4622   22.0712 C   0  0  0  0  0  0
   16.6507   75.0621   20.7600 C   0  0  0  0  0  0
   17.8732   74.7637   20.2608 N   0  0  0  0  0  0
   17.5183   75.6929   22.8915 C   0  0  0  0  0  0
   18.7838   75.4259   22.3883 C   0  0  0  0  0  0
   18.9431   74.9122   21.0904 C   0  0  0  0  0  0
   20.2083   74.3474   20.7612 N   0  0  0  0  0  0
   21.3955   74.9219   21.4055 C   0  0  2  0  0  0
   21.0198   75.0224   22.8701 C   0  0  0  0  0  0
   19.8407   75.7332   23.1984 O   0  0  0  0  0  0
   20.4532   73.2802   19.9447 C   0  0  0  0  0  0
   19.4263   72.2436   19.6494 C   0  0  0  0  0  0
   21.5461   73.0619   19.4477 O   0  0  0  0  0  0
   18.4006   71.9465   20.5515 C   0  0  0  0  0  0
   17.3769   71.1135   20.1564 C   0  0  0  0  0  0
   19.5458   71.5162   18.4577 C   0  0  0  0  0  0
   18.5649   70.6136   18.1099 C   0  0  0  0  0  0
   17.4424   70.4887   18.9174 C   0  0  0  0  0  0
   16.3649   69.7814   18.4684 O   0  0  0  0  0  0
   16.6854   68.6618   17.6342 C   0  0  0  0  0  0
   17.9010   68.7910   16.6686 C   0  0  0  0  0  0
   18.6984   69.8161   16.9889 N   0  0  0  0  0  0
   18.0904   68.0905   15.6753 O   0  0  0  0  0  0
   21.8409   76.2620   20.8700 C   0  0  0  0  0  0
   15.4295   75.6823   22.4239 H   0  0  0  0  0  0
   15.8467   75.0620   20.0652 H   0  0  0  0  0  0
   17.3931   76.0751   23.8943 H   0  0  0  0  0  0
   22.2603   74.2534   21.3580 H   0  0  0  0  0  0
   21.8408   75.4770   23.4076 H   0  0  0  0  0  0
   20.8803   74.0122   23.2562 H   0  0  0  0  0  0
   18.3310   72.4198   21.5211 H   0  0  0  0  0  0
   16.5279   71.0000   20.8100 H   0  0  0  0  0  0
   20.3848   71.6632   17.7911 H   0  0  0  0  0  0
   15.8411   68.3474   17.0346 H   0  0  0  0  0  0
   16.9368   67.8620   18.3238 H   0  0  0  0  0  0
   19.4964   69.9334   16.3829 H   0  0  0  0  0  0
   22.6411   76.6617   21.4918 H   0  0  0  0  0  0
   22.2409   76.1313   19.8736 H   0  0  0  0  0  0
   21.0385   77.0011   20.8628 H   0  0  0  0  0  0
  1  2  2  0  0  0
  1  4  1  0  0  0
  1 25  1  0  0  0
  2  3  1  0  0  0
  2 26  1  0  0  0
  3  6  2  0  0  0
  4  5  2  0  0  0
  4 27  1  0  0  0
  5  6  1  0  0  0
  5 10  1  0  0  0
  6  7  1  0  0  0
  7  8  1  0  0  0
  7 11  1  0  0  0
  8  9  1  0  0  0
  8 24  1  0  0  0
  8 28  1  0  0  0
  9 10  1  0  0  0
  9 29  1  0  0  0
  9 30  1  0  0  0
 11 12  1  0  0  0
 11 13  2  0  0  0
 12 14  2  0  0  0
 12 16  1  0  0  0
 14 15  1  0  0  0
 14 31  1  0  0  0
 15 18  2  0  0  0
 15 32  1  0  0  0
 16 17  2  0  0  0
 16 33  1  0  0  0
 17 18  1  0  0  0
 17 22  1  0  0  0
 18 19  1  0  0  0
 19 20  1  0  0  0
 20 21  1  0  0  0
 20 34  1  0  0  0
 20 35  1  0  0  0
 21 22  1  0  0  0
 21 23  2  0  0  0
 22 36  1  0  0  0
 24 37  1  0  0  0
 24 38  1  0  0  0
 24 39  1  0  0  0
M  END
> <s_m_entry_id>
9640

> <s_m_entry_name>
dock_pv.80

> <s_m_Source_Path>
/home/csk/Desktop/cluster/DUD-E-result/mcr

> <s_m_Source_File>
dock_pv.maegz

> <i_m_Source_File_Index>
80

> <chembl_id>
CHEMBL4446088

> <chembl_pref_name>
None

> <i_lp_mmshare_version>
53161

> <i_f3d_flags>
0

> <r_lp_tautomer_probability>
1

> <s_lp_Force_Field>
OPLS_2005

> <r_lp_Energy>
43.187655

> <b_lp_Chiralities_Consistent>
1

> <s_lp_Variant>
CHEMBL1994_lig959 -1

> <s_i_glide_gridfile>
glide-grid_2aa2

> <i_i_glide_lignum>
1401

> <i_i_glide_rotatable_bonds>
2

> <r_i_docking_score>
-8.65055524125092

> <r_i_glide_ligand_efficiency>
-0.360439801718788

> <r_i_glide_ligand_efficiency_sa>
-1.03968829719982

> <r_i_glide_ligand_efficiency_ln>
-2.07047481734588

> <r_i_glide_gscore>
-8.65055524125092

> <r_i_glide_lipo>
-3.84002588248216

> <r_i_glide_hbond>
-0.290266211852709

> <r_i_glide_metal>
0

> <r_i_glide_rewards>
-2.98470990133543

> <r_i_glide_evdw>
-28.3110866546631

> <r_i_glide_ecoul>
-3.16091299057007

> <r_i_glide_erotb>
0.354138035738043

> <r_i_glide_esite>
0

> <r_i_glide_emodel>
-37.5165542644986

> <r_i_glide_energy>
-31.4719996452332

> <r_i_glide_einternal>
2.00445938110352

> <i_i_glide_confnum>
9

> <i_i_glide_posenum>
37

> <r_i_glide_eff_state_penalty>
0

> <s_user_duplicate_titles>
CHEMBL1994_lig959 

> <s_m_subgroup_title>
dock_pv

> <s_m_subgroupid>
dock_pv

> <b_m_subgroup_collapsed>
1

$$$$
CHEMBL1994_lig38
                    3D
 Schrodinger Suite 2021-1.
 32 34  0  0  1  0            999 V2000
   19.7771   70.7662   18.4840 C   0  0  0  0  0  0
   19.3537   71.7544   19.5155 C   0  0  0  0  0  0
   17.9778   71.8629   19.7667 C   0  0  0  0  0  0
   21.2569   70.6609   18.0886 C   0  0  0  0  0  0
   17.0445   71.0615   19.1241 O   0  0  0  0  0  0
   17.4043   70.1270   18.1764 C   0  0  0  0  0  0
   18.8310   70.0165   17.8686 C   0  0  0  0  0  0
   18.3717   73.6557   21.3345 C   0  0  0  0  0  0
   19.7622   73.5574   21.1196 C   0  0  0  0  0  0
   20.2280   72.5812   20.2360 C   0  0  0  0  0  0
   17.4916   72.8004   20.6761 C   0  0  0  0  0  0
   17.8280   74.6345   22.1865 N   0  0  0  0  0  0
   16.4907   69.4793   17.6696 O   0  0  0  0  0  0
   20.7450   74.4766   21.8426 C   0  0  2  0  0  0
   21.9011   69.8643   18.9337 F   0  0  0  0  0  0
   21.8412   71.8524   18.0708 F   0  0  0  0  0  0
   21.3883   70.1555   16.8664 F   0  0  0  0  0  0
   18.6755   75.6926   22.7302 C   0  0  0  0  0  0
   20.0574   75.1120   23.0626 C   0  0  0  0  0  0
   21.3499   75.5278   20.8958 C   0  0  0  0  0  0
   19.1277   69.3077   17.1110 H   0  0  0  0  0  0
   21.2974   72.5013   20.1268 H   0  0  0  0  0  0
   16.4301   72.8680   20.8697 H   0  0  0  0  0  0
   16.8411   74.8505   22.1428 H   0  0  0  0  0  0
   21.5654   73.8628   22.2204 H   0  0  0  0  0  0
   18.2083   76.1729   23.5899 H   0  0  0  0  0  0
   18.7564   76.4380   21.9387 H   0  0  0  0  0  0
   19.9098   74.3476   23.8280 H   0  0  0  0  0  0
   20.7000   75.8617   23.5195 H   0  0  0  0  0  0
   21.8588   75.0519   20.0602 H   0  0  0  0  0  0
   20.5876   76.1851   20.4755 H   0  0  0  0  0  0
   22.0814   76.1501   21.4122 H   0  0  0  0  0  0
  1  2  1  0  0  0
  1  4  1  0  0  0
  1  7  2  0  0  0
  2  3  2  0  0  0
  2 10  1  0  0  0
  3 11  1  0  0  0
  3  5  1  0  0  0
  4 15  1  0  0  0
  4 16  1  0  0  0
  4 17  1  0  0  0
  5  6  1  0  0  0
  6  7  1  0  0  0
  6 13  2  0  0  0
  7 21  1  0  0  0
  8  9  1  0  0  0
  8 12  1  0  0  0
  8 11  2  0  0  0
  9 10  2  0  0  0
  9 14  1  0  0  0
 10 22  1  0  0  0
 11 23  1  0  0  0
 12 18  1  0  0  0
 12 24  1  0  0  0
 14 19  1  0  0  0
 14 20  1  0  0  0
 14 25  1  0  0  0
 18 19  1  0  0  0
 18 26  1  0  0  0
 18 27  1  0  0  0
 19 28  1  0  0  0
 19 29  1  0  0  0
 20 30  1  0  0  0
 20 31  1  0  0  0
 20 32  1  0  0  0
M  END
> <s_m_entry_id>
9641

> <s_m_entry_name>
dock_pv.81

> <s_m_Source_Path>
/home/csk/Desktop/cluster/DUD-E-result/mcr

> <s_m_Source_File>
dock_pv.maegz

> <i_m_Source_File_Index>
81

> <chembl_id>
CHEMBL415289

> <chembl_pref_name>
None

> <i_lp_mmshare_version>
53161

> <i_f3d_flags>
0

> <r_lp_tautomer_probability>
1

> <s_lp_Force_Field>
OPLS_2005

> <r_lp_Energy>
16.889715

> <b_lp_Chiralities_Consistent>
1

> <s_lp_Variant>
CHEMBL1994_lig38-1

> <s_i_glide_gridfile>
glide-grid_2aa2

> <i_i_glide_lignum>
41

> <i_i_glide_rotatable_bonds>
1

> <r_i_docking_score>
-8.61097883281512

> <r_i_glide_ligand_efficiency>
-0.430548941640756

> <r_i_glide_ligand_efficiency_sa>
-1.16868963082893

> <r_i_glide_ligand_efficiency_ln>
-2.15504399276384

> <r_i_glide_gscore>
-8.61097883281512

> <r_i_glide_lipo>
-3.78319988308532

> <r_i_glide_hbond>
0

> <r_i_glide_metal>
0

> <r_i_glide_rewards>
-2.95424611052698

> <r_i_glide_evdw>
-37.3998184204102

> <r_i_glide_ecoul>
0.0865915715694427

> <r_i_glide_erotb>
0

> <r_i_glide_esite>
-0.0165306539177215

> <r_i_glide_emodel>
-54.1562618266054

> <r_i_glide_energy>
-37.3132268488407

> <r_i_glide_einternal>
1.31833553314209

> <i_i_glide_confnum>
2

> <i_i_glide_posenum>
342

> <r_i_glide_eff_state_penalty>
0

> <s_user_duplicate_titles>
CHEMBL1994_lig38

> <s_m_subgroup_title>
dock_pv

> <s_m_subgroupid>
dock_pv

> <b_m_subgroup_collapsed>
1

$$$$
CHEMBL1994_lig539
                    3D
 Schrodinger Suite 2021-1.
 40 42  0  0  1  0            999 V2000
   18.5219   71.5984   21.9905 C   0  0  0  0  0  0
   18.6119   72.4252   23.2708 C   0  0  0  0  0  0
   18.3201   73.8663   23.0482 N   0  0  2  0  0  0
   19.4531   74.9323   22.2304 S   0  0  0  0  0  0
   19.5999   74.2808   20.5741 C   0  0  0  0  0  0
   18.8404   76.2617   22.1521 O   0  0  0  0  0  0
   20.7579   74.7672   22.8700 O   0  0  0  0  0  0
   17.4485   71.7820   21.1207 C   0  0  0  0  0  0
   17.4410   71.1416   19.8886 C   0  0  0  0  0  0
   18.4600   70.2559   19.5402 C   0  0  0  0  0  0
   19.4777   69.9816   20.4548 C   0  0  0  0  0  0
   19.5053   70.6620   21.6700 C   0  0  0  0  0  0
   18.3939   69.6277   18.2800 N   0  0  0  0  0  0
   17.2504   69.1104   17.7210 C   0  0  0  0  0  0
   17.6049   68.6620   16.4699 C   0  0  0  0  0  0
   18.8873   68.8398   16.2319 N   0  0  0  0  0  0
   19.3622   69.4380   17.3015 C   0  0  0  0  0  0
   20.8186   69.8614   17.3813 C   0  0  0  0  0  0
   18.5269   74.3146   19.6716 C   0  0  0  0  0  0
   18.6639   73.7106   18.4225 C   0  0  0  0  0  0
   19.8582   73.0919   18.0700 C   0  0  0  0  0  0
   20.9271   73.0618   18.9583 C   0  0  0  0  0  0
   20.7993   73.6573   20.2083 C   0  0  0  0  0  0
   17.0180   75.0621   20.0701 Cl  0  0  0  0  0  0
   17.8410   72.0300   23.9307 H   0  0  0  0  0  0
   19.5445   72.3123   23.8199 H   0  0  0  0  0  0
   17.7036   74.3136   23.7318 H   0  0  0  0  0  0
   16.6540   72.4715   21.3705 H   0  0  0  0  0  0
   16.6373   71.3484   19.1997 H   0  0  0  0  0  0
   20.2438   69.2522   20.2417 H   0  0  0  0  0  0
   20.3017   70.4545   22.3643 H   0  0  0  0  0  0
   16.3074   69.1313   18.2493 H   0  0  0  0  0  0
   16.9317   68.2596   15.7315 H   0  0  0  0  0  0
   21.4406   69.1887   16.7989 H   0  0  0  0  0  0
   21.2342   69.8678   18.3860 H   0  0  0  0  0  0
   20.9968   70.8387   16.9456 H   0  0  0  0  0  0
   17.8418   73.6955   17.7262 H   0  0  0  0  0  0
   19.9614   72.6500   17.0976 H   0  0  0  0  0  0
   21.8512   72.5778   18.6799 H   0  0  0  0  0  0
   21.6340   73.6097   20.8933 H   0  0  0  0  0  0
  1  2  1  0  0  0
  1  8  2  0  0  0
  1 12  1  0  0  0
  2  3  1  0  0  0
  2 25  1  0  0  0
  2 26  1  0  0  0
  3  4  1  0  0  0
  3 27  1  0  0  0
  4  5  1  0  0  0
  4  6  2  0  0  0
  4  7  2  0  0  0
  5 19  2  0  0  0
  5 23  1  0  0  0
  8  9  1  0  0  0
  8 28  1  0  0  0
  9 10  2  0  0  0
  9 29  1  0  0  0
 10 11  1  0  0  0
 10 13  1  0  0  0
 11 12  2  0  0  0
 11 30  1  0  0  0
 12 31  1  0  0  0
 13 14  1  0  0  0
 13 17  1  0  0  0
 14 15  2  0  0  0
 14 32  1  0  0  0
 15 16  1  0  0  0
 15 33  1  0  0  0
 16 17  2  0  0  0
 17 18  1  0  0  0
 18 34  1  0  0  0
 18 35  1  0  0  0
 18 36  1  0  0  0
 19 20  1  0  0  0
 19 24  1  0  0  0
 20 21  2  0  0  0
 20 37  1  0  0  0
 21 22  1  0  0  0
 21 38  1  0  0  0
 22 23  2  0  0  0
 22 39  1  0  0  0
 23 40  1  0  0  0
M  END
> <s_m_entry_id>
9642

> <s_m_entry_name>
dock_pv.82

> <s_m_Source_Path>
/home/csk/Desktop/cluster/DUD-E-result/mcr

> <s_m_Source_File>
dock_pv.maegz

> <i_m_Source_File_Index>
82

> <chembl_id>
CHEMBL3086022

> <chembl_pref_name>
None

> <i_lp_mmshare_version>
53161

> <i_f3d_flags>
0

> <r_lp_tautomer_probability>
1

> <s_lp_Force_Field>
OPLS_2005

> <r_lp_Energy>
18.813379

> <b_lp_Chiralities_Consistent>
1

> <s_lp_Variant>
CHEMBL1994_lig539-1

> <s_i_glide_gridfile>
glide-grid_2aa2

> <i_i_glide_lignum>
850

> <i_i_glide_rotatable_bonds>
5

> <r_i_docking_score>
-8.5854493415314

> <r_i_glide_ligand_efficiency>
-0.357727055897142

> <r_i_glide_ligand_efficiency_sa>
-1.03186338421687

> <r_i_glide_ligand_efficiency_ln>
-2.05489198802793

> <r_i_glide_gscore>
-8.5854493415314

> <r_i_glide_lipo>
-4.20624112915924

> <r_i_glide_hbond>
-0.0205637346124935

> <r_i_glide_metal>
0

> <r_i_glide_rewards>
-2.54284244346281

> <r_i_glide_evdw>
-44.8022003173828

> <r_i_glide_ecoul>
-0.896279394626617

> <r_i_glide_erotb>
0.58641349636737

> <r_i_glide_esite>
-0.0276636056010954

> <r_i_glide_emodel>
-66.2753818505465

> <r_i_glide_energy>
-45.6984797120094

> <r_i_glide_einternal>
4.43817853927612

> <i_i_glide_confnum>
31

> <i_i_glide_posenum>
32

> <r_i_glide_eff_state_penalty>
0

> <s_user_duplicate_titles>
CHEMBL1994_lig539

> <s_m_subgroup_title>
dock_pv

> <s_m_subgroupid>
dock_pv

> <b_m_subgroup_collapsed>
1

$$$$
CHEMBL1994_lig41
                    3D
 Schrodinger Suite 2021-1.
 38 40  0  0  1  0            999 V2000
   19.5023   70.1581   17.9246 C   0  0  0  0  0  0
   19.2321   71.1174   19.0178 C   0  0  0  0  0  0
   17.9440   71.1282   19.5517 C   0  0  0  0  0  0
   20.8601   70.2245   17.2542 C   0  0  0  0  0  0
   18.1827   73.8218   22.0663 N   0  0  0  0  0  0
   18.5514   72.9116   21.0586 C   0  0  0  0  0  0
   16.9540   70.3098   19.0418 O   0  0  0  0  0  0
   17.1891   69.3647   18.0701 C   0  0  0  0  0  0
   18.5285   69.3252   17.5027 C   0  0  0  0  0  0
   19.8309   72.9599   20.4786 C   0  0  0  0  0  0
   20.1701   72.0272   19.5067 C   0  0  0  0  0  0
   17.6029   72.0049   20.5817 C   0  0  0  0  0  0
   18.9968   75.0169   22.3264 C   0  0  2  0  0  0
   20.8243   74.0334   20.8437 C   0  0  0  0  0  0
   20.5083   74.6586   22.2029 C   0  0  1  0  0  0
   16.2410   68.6622   17.7487 O   0  0  0  0  0  0
   20.8989   69.4620   16.1702 F   0  0  0  0  0  0
   21.0410   71.4747   16.8694 F   0  0  0  0  0  0
   21.8290   69.8621   18.0953 F   0  0  0  0  0  0
   18.5945   75.5655   23.7192 C   0  0  0  0  0  0
   21.4442   75.8617   22.3491 C   0  0  0  0  0  0
   17.1678   76.1405   23.8061 C   0  0  0  0  0  0
   17.2297   73.8615   22.4062 H   0  0  0  0  0  0
   18.7210   68.6338   16.6966 H   0  0  0  0  0  0
   21.1745   72.0659   19.1139 H   0  0  0  0  0  0
   16.6041   71.9930   20.9930 H   0  0  0  0  0  0
   18.7496   75.7628   21.5684 H   0  0  0  0  0  0
   20.7897   74.8006   20.0701 H   0  0  0  0  0  0
   21.8401   73.6332   20.8358 H   0  0  0  0  0  0
   20.7476   73.9292   22.9766 H   0  0  0  0  0  0
   19.2745   76.3620   24.0173 H   0  0  0  0  0  0
   18.7128   74.7812   24.4695 H   0  0  0  0  0  0
   21.1548   76.6620   21.6699 H   0  0  0  0  0  0
   21.4759   76.2262   23.3719 H   0  0  0  0  0  0
   22.4649   75.6068   22.0700 H   0  0  0  0  0  0
   16.8965   76.3372   24.8437 H   0  0  0  0  0  0
   16.4204   75.4621   23.3965 H   0  0  0  0  0  0
   17.0904   77.0852   23.2694 H   0  0  0  0  0  0
  1  2  1  0  0  0
  1  4  1  0  0  0
  1  9  2  0  0  0
  2  3  2  0  0  0
  2 11  1  0  0  0
  3 12  1  0  0  0
  3  7  1  0  0  0
  4 17  1  0  0  0
  4 18  1  0  0  0
  4 19  1  0  0  0
  5  6  1  0  0  0
  5 13  1  0  0  0
  5 23  1  0  0  0
  6 10  1  0  0  0
  6 12  2  0  0  0
  7  8  1  0  0  0
  8  9  1  0  0  0
  8 16  2  0  0  0
  9 24  1  0  0  0
 10 11  2  0  0  0
 10 14  1  0  0  0
 11 25  1  0  0  0
 12 26  1  0  0  0
 13 15  1  0  0  0
 13 20  1  0  0  0
 13 27  1  0  0  0
 14 15  1  0  0  0
 14 28  1  0  0  0
 14 29  1  0  0  0
 15 21  1  0  0  0
 15 30  1  0  0  0
 20 22  1  0  0  0
 20 31  1  0  0  0
 20 32  1  0  0  0
 21 33  1  0  0  0
 21 34  1  0  0  0
 21 35  1  0  0  0
 22 36  1  0  0  0
 22 37  1  0  0  0
 22 38  1  0  0  0
M  END
> <s_m_entry_id>
9643

> <s_m_entry_name>
dock_pv.83

> <s_m_Source_Path>
/home/csk/Desktop/cluster/DUD-E-result/mcr

> <s_m_Source_File>
dock_pv.maegz

> <i_m_Source_File_Index>
83

> <chembl_id>
CHEMBL6654

> <chembl_pref_name>
None

> <i_lp_mmshare_version>
53161

> <i_f3d_flags>
0

> <r_lp_tautomer_probability>
1

> <s_lp_Force_Field>
OPLS_2005

> <r_lp_Energy>
19.979004

> <b_lp_Chiralities_Consistent>
1

> <s_lp_Variant>
CHEMBL1994_lig41-3

> <s_i_glide_gridfile>
glide-grid_2aa2

> <i_i_glide_lignum>
47

> <i_i_glide_rotatable_bonds>
2

> <r_i_docking_score>
-8.56328676984145

> <r_i_glide_ligand_efficiency>
-0.389240307720066

> <r_i_glide_ligand_efficiency_sa>
-1.09066665018426

> <r_i_glide_ligand_efficiency_ln>
-2.09317964002351

> <r_i_glide_gscore>
-8.56328676984145

> <r_i_glide_lipo>
-4.30329580690156

> <r_i_glide_hbond>
-0.256267852226421

> <r_i_glide_metal>
0

> <r_i_glide_rewards>
-2.22167648454295

> <r_i_glide_evdw>
-32.9186782836914

> <r_i_glide_ecoul>
-0.824961125850677

> <r_i_glide_erotb>
0

> <r_i_glide_esite>
-0.0123685431083403

> <r_i_glide_emodel>
-45.5024548911397

> <r_i_glide_energy>
-33.7436394095421

> <r_i_glide_einternal>
0.617564737796783

> <i_i_glide_confnum>
1

> <i_i_glide_posenum>
160

> <r_i_glide_eff_state_penalty>
0

> <s_user_duplicate_titles>
CHEMBL1994_lig41

> <s_m_subgroup_title>
dock_pv

> <s_m_subgroupid>
dock_pv

> <b_m_subgroup_collapsed>
1

$$$$
CHEMBL1994_lig197
                    3D
 Schrodinger Suite 2021-1.
 38 40  0  0  1  0            999 V2000
   18.6976   71.9909   20.2672 C   0  0  0  0  0  0
   17.3290   72.0469   20.5041 C   0  0  0  0  0  0
   16.7893   73.1249   21.1902 C   0  0  0  0  0  0
   19.5037   72.9545   20.8711 C   0  0  0  0  0  0
   16.9772   75.2244   22.3500 N   0  0  0  0  0  0
   17.2991   75.7992   23.5207 C   0  0  0  0  0  0
   18.5293   75.1480   24.1688 C   0  0  0  0  0  0
   17.5849   74.1468   21.6860 C   0  0  0  0  0  0
   18.9904   74.0163   21.5976 C   0  0  0  0  0  0
   19.9165   75.1326   22.0999 C   0  0  0  0  0  0
   19.7437   75.4619   23.4796 O   0  0  0  0  0  0
   16.6435   76.6988   24.0383 O   0  0  0  0  0  0
   19.3007   71.0412   19.3058 C   0  0  0  0  0  0
   20.6808   70.8582   19.3015 C   0  0  0  0  0  0
   21.3216   70.1664   18.3077 C   0  0  0  0  0  0
   20.5861   69.6063   17.2702 C   0  0  0  0  0  0
   19.1941   69.6353   17.3403 C   0  0  0  0  0  0
   18.5504   70.3772   18.3301 C   0  0  0  0  0  0
   18.4065   68.8648   16.4139 C   0  0  0  0  0  0
   17.7680   68.2619   15.6696 N   0  0  0  0  0  0
   22.6410   69.9669   18.4508 F   0  0  0  0  0  0
   21.4341   74.8633   21.9855 C   0  0  0  0  0  0
   19.5991   76.3661   21.2708 C   0  0  0  0  0  0
   16.6525   71.3076   20.1033 H   0  0  0  0  0  0
   15.7200   73.1853   21.3091 H   0  0  0  0  0  0
   20.5614   72.9578   20.6968 H   0  0  0  0  0  0
   16.1021   75.5549   21.9737 H   0  0  0  0  0  0
   18.6291   75.5171   25.1871 H   0  0  0  0  0  0
   18.3994   74.0686   24.2693 H   0  0  0  0  0  0
   21.3160   71.2529   20.0700 H   0  0  0  0  0  0
   21.0906   69.0621   16.4879 H   0  0  0  0  0  0
   17.4722   70.4513   18.3216 H   0  0  0  0  0  0
   21.7643   74.7746   20.9498 H   0  0  0  0  0  0
   21.9999   75.6878   22.4208 H   0  0  0  0  0  0
   21.7274   73.9564   22.5085 H   0  0  0  0  0  0
   18.9122   76.1423   20.4700 H   0  0  0  0  0  0
   19.0410   77.0626   21.8776 H   0  0  0  0  0  0
   20.4671   76.8917   20.8704 H   0  0  0  0  0  0
  1 13  1  0  0  0
  1  2  2  0  0  0
  1  4  1  0  0  0
  2  3  1  0  0  0
  2 24  1  0  0  0
  3  8  2  0  0  0
  3 25  1  0  0  0
  4  9  2  0  0  0
  4 26  1  0  0  0
  5  6  1  0  0  0
  5  8  1  0  0  0
  5 27  1  0  0  0
  6 12  2  0  0  0
  6  7  1  0  0  0
  7 11  1  0  0  0
  7 28  1  0  0  0
  7 29  1  0  0  0
  8  9  1  0  0  0
  9 10  1  0  0  0
 10 11  1  0  0  0
 10 22  1  0  0  0
 10 23  1  0  0  0
 13 14  2  0  0  0
 13 18  1  0  0  0
 14 15  1  0  0  0
 14 30  1  0  0  0
 15 16  2  0  0  0
 15 21  1  0  0  0
 16 17  1  0  0  0
 16 31  1  0  0  0
 17 18  2  0  0  0
 17 19  1  0  0  0
 18 32  1  0  0  0
 19 20  3  0  0  0
 22 33  1  0  0  0
 22 34  1  0  0  0
 22 35  1  0  0  0
 23 36  1  0  0  0
 23 37  1  0  0  0
 23 38  1  0  0  0
M  END
> <s_m_entry_id>
9644

> <s_m_entry_name>
dock_pv.84

> <s_m_Source_Path>
/home/csk/Desktop/cluster/DUD-E-result/mcr

> <s_m_Source_File>
dock_pv.maegz

> <i_m_Source_File_Index>
84

> <chembl_id>
CHEMBL487728

> <chembl_pref_name>
None

> <i_lp_mmshare_version>
53161

> <i_f3d_flags>
0

> <r_lp_tautomer_probability>
1

> <s_lp_Force_Field>
OPLS_2005

> <r_lp_Energy>
32.302059

> <b_lp_Chiralities_Consistent>
1

> <s_lp_Variant>
CHEMBL1994_lig197-1

> <s_i_glide_gridfile>
glide-grid_2aa2

> <i_i_glide_lignum>
334

> <i_i_glide_rotatable_bonds>
1

> <r_i_docking_score>
-8.55625282059795

> <r_i_glide_ligand_efficiency>
-0.372010992199911

> <r_i_glide_ligand_efficiency_sa>
-1.05794977575341

> <r_i_glide_ligand_efficiency_ln>
-2.06897951583172

> <r_i_glide_gscore>
-8.55625282059795

> <r_i_glide_lipo>
-3.55202878262122

> <r_i_glide_hbond>
-0.333839351004696

> <r_i_glide_metal>
0

> <r_i_glide_rewards>
-2.87803462094974

> <r_i_glide_evdw>
-23.2254180908203

> <r_i_glide_ecoul>
-5.48992872238159

> <r_i_glide_erotb>
0.192410146875955

> <r_i_glide_esite>
0

> <r_i_glide_emodel>
-32.4103153150491

> <r_i_glide_energy>
-28.7153468132019

> <r_i_glide_einternal>
0.417327255010605

> <i_i_glide_confnum>
8

> <i_i_glide_posenum>
56

> <r_i_glide_eff_state_penalty>
0

> <s_user_duplicate_titles>
CHEMBL1994_lig197

> <s_m_subgroup_title>
dock_pv

> <s_m_subgroupid>
dock_pv

> <b_m_subgroup_collapsed>
1

$$$$
CHEMBL1994_lig1043
                    3D
 Schrodinger Suite 2021-1.
 37 39  0  0  1  0            999 V2000
   17.1730   72.1306   20.6487 C   0  0  0  0  0  0
   19.7342   72.7372   19.7674 C   0  0  0  0  0  0
   17.7885   71.3114   19.7156 C   0  0  0  0  0  0
   19.1025   71.5714   19.2957 C   0  0  0  0  0  0
   19.6792   70.5861   18.3265 C   0  0  0  0  0  0
   18.8501   69.6592   17.7714 C   0  0  0  0  0  0
   17.4342   69.5375   18.0596 C   0  0  0  0  0  0
   17.0410   70.3060   19.0914 N   0  0  0  0  0  0
   19.0200   73.6675   20.5356 C   0  0  0  0  0  0
   17.7337   73.3471   20.9757 C   0  0  0  0  0  0
   16.9439   74.2433   21.6700 O   0  0  0  0  0  0
   17.7239   75.0645   22.5487 C   0  0  1  0  0  0
   18.6803   75.8561   21.6510 C   0  0  0  0  0  0
   19.4989   74.9256   20.8700 N   0  0  0  0  0  0
   21.1396   70.7089   17.9101 C   0  0  0  0  0  0
   21.3732   70.0248   16.7964 F   0  0  0  0  0  0
   21.4410   71.9729   17.6700 F   0  0  0  0  0  0
   21.9279   70.2390   18.8700 F   0  0  0  0  0  0
   16.6410   68.8743   17.4015 O   0  0  0  0  0  0
   20.7976   75.4759   20.5807 C   0  0  0  0  0  0
   21.8004   75.1348   21.6356 C   0  0  0  0  0  0
   22.8195   75.8620   21.2700 F   0  0  0  0  0  0
   21.4394   75.4620   22.8700 F   0  0  0  0  0  0
   22.1603   73.8620   21.5994 F   0  0  0  0  0  0
   16.8739   76.0112   23.4050 C   0  0  0  0  0  0
   16.2410   71.8829   21.0875 H   0  0  0  0  0  0
   20.7471   72.9760   19.4985 H   0  0  0  0  0  0
   19.2326   68.9566   17.0463 H   0  0  0  0  0  0
   16.0545   70.2325   19.3105 H   0  0  0  0  0  0
   18.2921   74.4234   23.2294 H   0  0  0  0  0  0
   18.0045   76.2620   20.8984 H   0  0  0  0  0  0
   19.2344   76.6620   22.1298 H   0  0  0  0  0  0
   21.2009   75.0618   19.6700 H   0  0  0  0  0  0
   20.7387   76.5602   20.4700 H   0  0  0  0  0  0
   17.5068   76.6570   24.0153 H   0  0  0  0  0  0
   16.2410   75.4620   24.0915 H   0  0  0  0  0  0
   16.2410   76.6535   22.8017 H   0  0  0  0  0  0
  1  3  1  0  0  0
  1 10  2  0  0  0
  1 26  1  0  0  0
  2  9  2  0  0  0
  2  4  1  0  0  0
  2 27  1  0  0  0
  3  4  2  0  0  0
  3  8  1  0  0  0
  4  5  1  0  0  0
  5 15  1  0  0  0
  5  6  2  0  0  0
  6  7  1  0  0  0
  6 28  1  0  0  0
  7  8  1  0  0  0
  7 19  2  0  0  0
  8 29  1  0  0  0
  9 14  1  0  0  0
  9 10  1  0  0  0
 10 11  1  0  0  0
 11 12  1  0  0  0
 12 13  1  0  0  0
 12 25  1  0  0  0
 12 30  1  0  0  0
 13 14  1  0  0  0
 13 31  1  0  0  0
 13 32  1  0  0  0
 14 20  1  0  0  0
 15 16  1  0  0  0
 15 17  1  0  0  0
 15 18  1  0  0  0
 20 21  1  0  0  0
 20 33  1  0  0  0
 20 34  1  0  0  0
 21 22  1  0  0  0
 21 23  1  0  0  0
 21 24  1  0  0  0
 25 35  1  0  0  0
 25 36  1  0  0  0
 25 37  1  0  0  0
M  END
> <s_m_entry_id>
9645

> <s_m_entry_name>
dock_pv.85

> <s_m_Source_Path>
/home/csk/Desktop/cluster/DUD-E-result/mcr

> <s_m_Source_File>
dock_pv.maegz

> <i_m_Source_File_Index>
85

> <chembl_id>
CHEMBL227408

> <chembl_pref_name>
None

> <i_lp_mmshare_version>
53161

> <i_f3d_flags>
0

> <r_lp_tautomer_probability>
1

> <s_lp_Force_Field>
OPLS_2005

> <r_lp_Energy>
28.26905

> <b_lp_Chiralities_Consistent>
1

> <s_lp_Variant>
CHEMBL1994_lig1043-2

> <s_i_glide_gridfile>
glide-grid_2aa2

> <i_i_glide_lignum>
1507

> <i_i_glide_rotatable_bonds>
3

> <r_i_docking_score>
-8.53783493778498

> <r_i_glide_ligand_efficiency>
-0.341513397511399

> <r_i_glide_ligand_efficiency_sa>
-0.998591231089225

> <r_i_glide_ligand_efficiency_ln>
-2.02372273852163

> <r_i_glide_gscore>
-8.53783493778498

> <r_i_glide_lipo>
-3.67462795895707

> <r_i_glide_hbond>
-0.32

> <r_i_glide_metal>
0

> <r_i_glide_rewards>
-3.114656627432

> <r_i_glide_evdw>
-24.3864994049072

> <r_i_glide_ecoul>
-2.35128211975098

> <r_i_glide_erotb>
0.143466936812101

> <r_i_glide_esite>
0

> <r_i_glide_emodel>
-24.8344667785692

> <r_i_glide_energy>
-26.7377815246582

> <r_i_glide_einternal>
5.70910596847534

> <i_i_glide_confnum>
3

> <i_i_glide_posenum>
184

> <r_i_glide_eff_state_penalty>
0

> <s_user_duplicate_titles>
CHEMBL1994_lig1043

> <s_m_subgroup_title>
dock_pv

> <s_m_subgroupid>
dock_pv

> <b_m_subgroup_collapsed>
1

$$$$
CHEMBL1994_lig1073
                    3D
 Schrodinger Suite 2021-1.
 48 51  0  0  1  0            999 V2000
   20.7642   69.6176   16.4161 C   0  0  0  0  0  0
   19.8486   70.5754   18.8216 C   0  0  0  0  0  0
   21.1905   70.6836   18.4878 C   0  0  0  0  0  0
   21.6276   70.2643   17.2707 C   0  0  0  0  0  0
   18.9929   69.8241   18.0071 C   0  0  0  0  0  0
   19.4473   69.3223   16.7709 C   0  0  0  0  0  0
   18.3491   68.6511   16.1446 C   0  0  0  0  0  0
   17.2746   68.7570   17.0068 C   0  0  0  0  0  0
   17.6551   69.4882   18.1061 N   0  0  0  0  0  0
   19.3864   71.4153   19.8835 C   0  0  0  0  0  0
   18.8187   70.8303   20.9748 C   0  0  0  0  0  0
   18.3788   71.6554   21.9719 C   0  0  0  0  0  0
   19.5299   72.7997   19.7891 C   0  0  0  0  0  0
   19.3448   73.6093   20.9171 C   0  0  0  0  0  0
   18.7116   73.0072   22.0172 C   0  0  0  0  0  0
   18.2414   73.7619   23.1046 N   0  0  0  0  0  0
   18.0453   75.1946   22.9526 C   0  0  0  0  0  0
   19.3771   75.7264   22.3321 C   0  0  2  0  0  0
   19.7479   75.0852   20.9586 C   0  0  1  0  0  0
   17.4399   71.0623   22.9187 C   0  0  0  0  0  0
   19.8290   73.4608   18.2180 Cl  0  0  0  0  0  0
   17.8095   75.7002   24.3960 C   0  0  0  0  0  0
   16.8018   75.4284   22.0584 C   0  0  0  0  0  0
   21.2504   75.2918   20.6064 C   0  0  0  0  0  0
   20.4252   75.4616   23.2564 O   0  0  0  0  0  0
   21.1526   69.4324   15.4409 H   0  0  0  0  0  0
   21.8665   71.2577   19.1077 H   0  0  0  0  0  0
   22.6274   70.5388   16.9738 H   0  0  0  0  0  0
   18.3466   68.1803   15.1786 H   0  0  0  0  0  0
   16.2561   68.4007   16.9241 H   0  0  0  0  0  0
   17.0224   69.7203   18.8587 H   0  0  0  0  0  0
   18.6404   69.7635   20.9902 H   0  0  0  0  0  0
   17.5008   73.3536   23.6659 H   0  0  0  0  0  0
   19.2962   76.7984   22.1837 H   0  0  0  0  0  0
   19.1446   75.5566   20.1877 H   0  0  0  0  0  0
   17.4418   69.9761   22.8685 H   0  0  0  0  0  0
   17.7085   71.3997   23.9253 H   0  0  0  0  0  0
   16.4755   71.4603   22.6426 H   0  0  0  0  0  0
   17.6696   76.7778   24.4189 H   0  0  0  0  0  0
   16.9156   75.2577   24.8359 H   0  0  0  0  0  0
   18.6347   75.4592   25.0660 H   0  0  0  0  0  0
   16.2318   76.2637   22.4554 H   0  0  0  0  0  0
   17.0380   75.6381   21.0134 H   0  0  0  0  0  0
   16.1050   74.5887   22.0741 H   0  0  0  0  0  0
   21.5370   74.8224   19.6721 H   0  0  0  0  0  0
   21.9159   74.8625   21.3547 H   0  0  0  0  0  0
   21.4888   76.3515   20.5298 H   0  0  0  0  0  0
   20.3056   74.5463   23.5250 H   0  0  0  0  0  0
  1  6  2  0  0  0
  1  4  1  0  0  0
  1 26  1  0  0  0
  2 10  1  0  0  0
  2  3  1  0  0  0
  2  5  2  0  0  0
  3  4  2  0  0  0
  3 27  1  0  0  0
  4 28  1  0  0  0
  5  9  1  0  0  0
  5  6  1  0  0  0
  6  7  1  0  0  0
  7  8  2  0  0  0
  7 29  1  0  0  0
  8  9  1  0  0  0
  8 30  1  0  0  0
  9 31  1  0  0  0
 10 13  1  0  0  0
 10 11  2  0  0  0
 11 12  1  0  0  0
 11 32  1  0  0  0
 12 15  2  0  0  0
 12 20  1  0  0  0
 13 14  2  0  0  0
 13 21  1  0  0  0
 14 15  1  0  0  0
 14 19  1  0  0  0
 15 16  1  0  0  0
 16 17  1  0  0  0
 16 33  1  0  0  0
 17 18  1  0  0  0
 17 22  1  0  0  0
 17 23  1  0  0  0
 18 19  1  0  0  0
 18 25  1  0  0  0
 18 34  1  0  0  0
 19 24  1  0  0  0
 19 35  1  0  0  0
 20 36  1  0  0  0
 20 37  1  0  0  0
 20 38  1  0  0  0
 22 39  1  0  0  0
 22 40  1  0  0  0
 22 41  1  0  0  0
 23 42  1  0  0  0
 23 43  1  0  0  0
 23 44  1  0  0  0
 24 45  1  0  0  0
 24 46  1  0  0  0
 24 47  1  0  0  0
 25 48  1  0  0  0
M  END
> <s_m_entry_id>
9646

> <s_m_entry_name>
dock_pv.86

> <s_m_Source_Path>
/home/csk/Desktop/cluster/DUD-E-result/mcr

> <s_m_Source_File>
dock_pv.maegz

> <i_m_Source_File_Index>
86

> <chembl_id>
CHEMBL1644765

> <chembl_pref_name>
None

> <i_lp_mmshare_version>
53161

> <i_f3d_flags>
0

> <r_lp_tautomer_probability>
1

> <s_lp_Force_Field>
OPLS_2005

> <r_lp_Energy>
34.038025

> <b_lp_Chiralities_Consistent>
1

> <s_lp_Variant>
CHEMBL1994_lig1073-1

> <s_i_glide_gridfile>
glide-grid_2aa2

> <i_i_glide_lignum>
1557

> <i_i_glide_rotatable_bonds>
2

> <r_i_docking_score>
-8.530192203317

> <r_i_glide_ligand_efficiency>
-0.34120768813268

> <r_i_glide_ligand_efficiency_sa>
-0.997697331444072

> <r_i_glide_ligand_efficiency_ln>
-2.02191118141845

> <r_i_glide_gscore>
-8.530192203317

> <r_i_glide_lipo>
-5.18082961575017

> <r_i_glide_hbond>
-0.280650411430925

> <r_i_glide_metal>
0

> <r_i_glide_rewards>
-1.59203280953695

> <r_i_glide_evdw>
-22.0245361328125

> <r_i_glide_ecoul>
-3.21874356269836

> <r_i_glide_erotb>
0.151776089647765

> <r_i_glide_esite>
-0.0444171152013462

> <r_i_glide_emodel>
-75.3889305485651

> <r_i_glide_energy>
-25.2432796955109

> <r_i_glide_einternal>
0.424150228500366

> <i_i_glide_confnum>
6

> <i_i_glide_posenum>
23

> <r_i_glide_eff_state_penalty>
0

> <s_user_duplicate_titles>
CHEMBL1994_lig1073

> <s_m_subgroup_title>
dock_pv

> <s_m_subgroupid>
dock_pv

> <b_m_subgroup_collapsed>
1

$$$$
CHEMBL1994_lig1045
                    3D
 Schrodinger Suite 2021-1.
 34 36  0  0  1  0            999 V2000
   17.1564   71.9858   20.6362 C   0  0  0  0  0  0
   19.7057   72.6766   19.8185 C   0  0  0  0  0  0
   17.7756   71.2365   19.6506 C   0  0  0  0  0  0
   19.0914   71.5345   19.2669 C   0  0  0  0  0  0
   19.6942   70.6013   18.2646 C   0  0  0  0  0  0
   18.8893   69.6858   17.6563 C   0  0  0  0  0  0
   17.4711   69.5258   17.9158 C   0  0  0  0  0  0
   17.0412   70.2625   18.9570 N   0  0  0  0  0  0
   18.9666   73.5635   20.6220 C   0  0  0  0  0  0
   17.6846   73.1968   21.0251 C   0  0  0  0  0  0
   16.8166   74.0518   21.6685 O   0  0  0  0  0  0
   17.4390   75.0164   22.5047 C   0  0  0  0  0  0
   18.5533   75.7369   21.7396 C   0  0  0  0  0  0
   19.4477   74.7764   21.0892 N   0  0  0  0  0  0
   21.1616   70.7583   17.8910 C   0  0  0  0  0  0
   21.4393   70.0902   16.7780 F   0  0  0  0  0  0
   21.4408   72.0332   17.6718 F   0  0  0  0  0  0
   21.9292   70.2892   18.8700 F   0  0  0  0  0  0
   16.7082   68.8504   17.2341 O   0  0  0  0  0  0
   20.6316   75.4503   20.6156 C   0  0  0  0  0  0
   21.7334   75.2528   21.6137 C   0  0  0  0  0  0
   21.3608   75.4620   22.8701 F   0  0  0  0  0  0
   22.2410   74.0330   21.5119 F   0  0  0  0  0  0
   22.6415   76.1416   21.2938 F   0  0  0  0  0  0
   16.2410   71.6985   21.0749 H   0  0  0  0  0  0
   20.7278   72.9222   19.5890 H   0  0  0  0  0  0
   19.2973   69.0188   16.9115 H   0  0  0  0  0  0
   16.0563   70.1576   19.1647 H   0  0  0  0  0  0
   16.6921   75.7242   22.8649 H   0  0  0  0  0  0
   17.8652   74.5190   23.3786 H   0  0  0  0  0  0
   18.0913   76.2623   20.9077 H   0  0  0  0  0  0
   19.0611   76.5219   22.3010 H   0  0  0  0  0  0
   20.9566   75.0346   19.6700 H   0  0  0  0  0  0
   20.4631   76.5179   20.4702 H   0  0  0  0  0  0
  1  3  1  0  0  0
  1 10  2  0  0  0
  1 25  1  0  0  0
  2  4  1  0  0  0
  2  9  2  0  0  0
  2 26  1  0  0  0
  3  4  2  0  0  0
  3  8  1  0  0  0
  4  5  1  0  0  0
  5 15  1  0  0  0
  5  6  2  0  0  0
  6  7  1  0  0  0
  6 27  1  0  0  0
  7  8  1  0  0  0
  7 19  2  0  0  0
  8 28  1  0  0  0
  9 14  1  0  0  0
  9 10  1  0  0  0
 10 11  1  0  0  0
 11 12  1  0  0  0
 12 13  1  0  0  0
 12 29  1  0  0  0
 12 30  1  0  0  0
 13 14  1  0  0  0
 13 31  1  0  0  0
 13 32  1  0  0  0
 14 20  1  0  0  0
 15 16  1  0  0  0
 15 17  1  0  0  0
 15 18  1  0  0  0
 20 21  1  0  0  0
 20 33  1  0  0  0
 20 34  1  0  0  0
 21 22  1  0  0  0
 21 23  1  0  0  0
 21 24  1  0  0  0
M  END
> <s_m_entry_id>
9647

> <s_m_entry_name>
dock_pv.87

> <s_m_Source_Path>
/home/csk/Desktop/cluster/DUD-E-result/mcr

> <s_m_Source_File>
dock_pv.maegz

> <i_m_Source_File_Index>
87

> <chembl_id>
CHEMBL227783

> <chembl_pref_name>
None

> <i_lp_mmshare_version>
53161

> <i_f3d_flags>
0

> <r_lp_tautomer_probability>
1

> <s_lp_Force_Field>
OPLS_2005

> <r_lp_Energy>
27.369691

> <b_lp_Chiralities_Consistent>
1

> <s_lp_Variant>
CHEMBL1994_lig1045-1

> <s_i_glide_gridfile>
glide-grid_2aa2

> <i_i_glide_lignum>
1509

> <i_i_glide_rotatable_bonds>
3

> <r_i_docking_score>
-8.50642136399258

> <r_i_glide_ligand_efficiency>
-0.354434223499691

> <r_i_glide_ligand_efficiency_sa>
-1.02236521200629

> <r_i_glide_ligand_efficiency_ln>
-2.0359769666453

> <r_i_glide_gscore>
-8.50642136399258

> <r_i_glide_lipo>
-3.47588412620128

> <r_i_glide_hbond>
-0.32

> <r_i_glide_metal>
0

> <r_i_glide_rewards>
-3.24861883288882

> <r_i_glide_evdw>
-24.6832370758057

> <r_i_glide_ecoul>
-2.54375767707825

> <r_i_glide_erotb>
0.153807100449536

> <r_i_glide_esite>
0

> <r_i_glide_emodel>
-25.5611004220409

> <r_i_glide_energy>
-27.2269947528839

> <r_i_glide_einternal>
3.53532838821411

> <i_i_glide_confnum>
3

> <i_i_glide_posenum>
19

> <r_i_glide_eff_state_penalty>
0

> <s_user_duplicate_titles>
CHEMBL1994_lig1045

> <s_m_subgroup_title>
dock_pv

> <s_m_subgroupid>
dock_pv

> <b_m_subgroup_collapsed>
1

$$$$
CHEMBL1994_lig69
                    3D
 Schrodinger Suite 2021-1.
 57 60  0  0  1  0            999 V2000
   18.6587   74.1643   21.1548 C   0  0  1  0  0  0
   19.7079   74.1383   20.0139 C   0  0  2  0  0  0
   18.9105   70.4230   18.8525 C   0  0  1  0  0  0
   20.0773   70.2688   17.8378 C   0  0  0  0  0  0
   18.7192   71.9342   19.1602 C   0  0  2  0  0  0
   20.0245   72.6674   19.5877 C   0  0  1  0  0  0
   18.5630   75.6583   21.5884 C   0  0  2  0  0  0
   18.2410   72.2676   23.9652 N   0  3  0  0  0  0
   19.9792   69.4918   16.7380 C   0  0  0  0  0  0
   17.3276   73.5912   20.6092 C   0  0  0  0  0  0
   19.2905   73.3835   22.3503 C   0  0  0  0  0  0
   17.8413   72.2616   25.0162 N   0  5  0  0  0  0
   20.8261   75.0713   20.5241 C   0  0  0  0  0  0
   17.4493   72.1806   20.0121 C   0  0  0  0  0  0
   17.5766   69.8972   18.2258 C   0  0  0  0  0  0
   20.0402   76.1432   21.3501 C   0  0  0  0  0  0
   21.0157   72.5195   18.4333 C   0  0  0  0  0  0
   18.7756   72.1716   22.8002 C   0  0  0  0  0  0
   21.3562   71.0395   18.1695 C   0  0  0  0  0  0
   18.7806   68.7666   16.3696 C   0  0  0  0  0  0
   20.2449   73.8620   22.9524 O   0  0  0  0  0  0
   18.6325   68.2619   15.2700 O   0  0  0  0  0  0
   17.8036   75.8669   22.9885 C   0  0  2  0  0  0
   17.7347   68.6157   17.4541 C   0  0  0  0  0  0
   19.2590   69.5978   20.1239 C   0  0  0  0  0  0
   17.2452   77.1300   23.2703 O   0  0  0  0  0  0
   18.5984   75.7391   24.2692 C   0  0  0  0  0  0
   20.4776   72.1403   20.4254 H   0  0  0  0  0  0
   19.2681   74.6302   19.1442 H   0  0  0  0  0  0
   18.4667   72.4303   18.2199 H   0  0  0  0  0  0
   17.9528   76.1739   20.8461 H   0  0  0  0  0  0
   20.8323   69.4358   16.0807 H   0  0  0  0  0  0
   16.5160   73.6749   21.3334 H   0  0  0  0  0  0
   16.9975   74.2622   19.8141 H   0  0  0  0  0  0
   21.4711   75.4908   19.7641 H   0  0  0  0  0  0
   21.5535   74.5283   21.1280 H   0  0  0  0  0  0
   16.6378   71.8585   19.4098 H   0  0  0  0  0  0
   17.3741   71.4788   20.8296 H   0  0  0  0  0  0
   16.8174   69.7295   18.9895 H   0  0  0  0  0  0
   17.1473   70.6375   17.5451 H   0  0  0  0  0  0
   20.0624   77.1212   20.8744 H   0  0  0  0  0  0
   20.5588   76.2618   22.2888 H   0  0  0  0  0  0
   20.6327   73.0144   17.5416 H   0  0  0  0  0  0
   21.9180   73.0531   18.6762 H   0  0  0  0  0  0
   18.8437   71.2109   22.3159 H   0  0  0  0  0  0
   21.8494   70.6032   19.0384 H   0  0  0  0  0  0
   22.0765   70.9690   17.3544 H   0  0  0  0  0  0
   16.9664   75.1700   23.0358 H   0  0  0  0  0  0
   16.8002   68.2321   17.0435 H   0  0  0  0  0  0
   18.1176   67.8661   18.1395 H   0  0  0  0  0  0
   18.4514   69.5953   20.8497 H   0  0  0  0  0  0
   19.4373   68.5498   19.9008 H   0  0  0  0  0  0
   20.1515   69.9607   20.6317 H   0  0  0  0  0  0
   17.2225   77.2400   24.2239 H   0  0  0  0  0  0
   18.9856   74.7715   24.5338 H   0  0  0  0  0  0
   17.9793   75.8755   25.1570 H   0  0  0  0  0  0
   19.4175   76.4619   24.2123 H   0  0  0  0  0  0
  1  2  1  0  0  0
  1  7  1  0  0  0
  1 10  1  0  0  0
  1 11  1  0  0  0
  2  6  1  0  0  0
  2 13  1  0  0  0
  2 29  1  0  0  0
  3  5  1  0  0  0
  3  4  1  0  0  0
  3 15  1  0  0  0
  3 25  1  0  0  0
  4  9  2  0  0  0
  4 19  1  0  0  0
  5 14  1  0  0  0
  5  6  1  0  0  0
  5 30  1  0  0  0
  6 17  1  0  0  0
  6 28  1  0  0  0
  7 16  1  0  0  0
  7 23  1  0  0  0
  7 31  1  0  0  0
  8 18  2  0  0  0
  8 12  2  0  0  0
  9 20  1  0  0  0
  9 32  1  0  0  0
 10 14  1  0  0  0
 10 33  1  0  0  0
 10 34  1  0  0  0
 11 18  1  0  0  0
 11 21  2  0  0  0
 13 16  1  0  0  0
 13 35  1  0  0  0
 13 36  1  0  0  0
 14 37  1  0  0  0
 14 38  1  0  0  0
 15 24  1  0  0  0
 15 39  1  0  0  0
 15 40  1  0  0  0
 16 41  1  0  0  0
 16 42  1  0  0  0
 17 19  1  0  0  0
 17 43  1  0  0  0
 17 44  1  0  0  0
 18 45  1  0  0  0
 19 46  1  0  0  0
 19 47  1  0  0  0
 20 24  1  0  0  0
 20 22  2  0  0  0
 23 26  1  0  0  0
 23 27  1  0  0  0
 23 48  1  0  0  0
 24 49  1  0  0  0
 24 50  1  0  0  0
 25 51  1  0  0  0
 25 52  1  0  0  0
 25 53  1  0  0  0
 26 54  1  0  0  0
 27 55  1  0  0  0
 27 56  1  0  0  0
 27 57  1  0  0  0
M  CHG  2   8   1  12  -1
M  END
> <s_m_entry_id>
9648

> <s_m_entry_name>
dock_pv.88

> <s_m_Source_Path>
/home/csk/Desktop/cluster/DUD-E-result/mcr

> <s_m_Source_File>
dock_pv.maegz

> <i_m_Source_File_Index>
88

> <chembl_id>
CHEMBL2112398

> <chembl_pref_name>
None

> <i_lp_mmshare_version>
53161

> <i_f3d_flags>
0

> <r_lp_tautomer_probability>
1

> <s_lp_Force_Field>
OPLS_2005

> <r_lp_Energy>
48.415013

> <b_lp_Chiralities_Consistent>
1

> <s_lp_Variant>
CHEMBL1994_lig69-1

> <s_i_glide_gridfile>
glide-grid_2aa2

> <i_i_glide_lignum>
89

> <i_i_glide_rotatable_bonds>
4

> <r_i_docking_score>
-8.50615366359068

> <r_i_glide_ligand_efficiency>
-0.315042728281136

> <r_i_glide_ligand_efficiency_sa>
-0.945128183805079

> <r_i_glide_ligand_efficiency_ln>
-1.98009233798081

> <r_i_glide_gscore>
-8.50615366359068

> <r_i_glide_lipo>
-4.83904974043261

> <r_i_glide_hbond>
-0.026882550551207

> <r_i_glide_metal>
0

> <r_i_glide_rewards>
-2.6145987932899

> <r_i_glide_evdw>
-9.78528690338135

> <r_i_glide_ecoul>
-5.92465162277222

> <r_i_glide_erotb>
0.421667868898011

> <r_i_glide_esite>
-0.0693283596300734

> <r_i_glide_emodel>
-14.98368494122

> <r_i_glide_energy>
-15.7099385261536

> <r_i_glide_einternal>
36.961669921875

> <i_i_glide_confnum>
4

> <i_i_glide_posenum>
79

> <r_i_glide_eff_state_penalty>
0

> <s_user_duplicate_titles>
CHEMBL1994_lig69

> <s_m_subgroup_title>
dock_pv

> <s_m_subgroupid>
dock_pv

> <b_m_subgroup_collapsed>
1

$$$$
CHEMBL1994_lig1067
                    3D
 Schrodinger Suite 2021-1.
 47 50  0  0  1  0            999 V2000
   19.4227   71.4012   19.5889 C   0  0  0  0  0  0
   19.0229   70.8789   20.8070 C   0  0  0  0  0  0
   18.5787   71.7317   21.7994 C   0  0  0  0  0  0
   19.5997   72.7794   19.4530 C   0  0  0  0  0  0
   19.3988   73.6431   20.5370 C   0  0  0  0  0  0
   18.7354   73.1133   21.6569 C   0  0  0  0  0  0
   18.2391   73.9654   22.6569 N   0  0  0  0  0  0
   18.7780   75.3031   22.8364 C   0  0  0  0  0  0
   18.9347   75.9605   21.4592 C   0  0  0  0  0  0
   19.7574   75.1255   20.4697 C   0  0  1  0  0  0
   21.2853   75.3960   20.5107 C   0  0  0  0  0  0
   20.1100   75.0623   23.5227 C   0  0  0  0  0  0
   17.7496   76.0875   23.6760 C   0  0  0  0  0  0
   17.8176   71.1185   22.9392 C   0  0  0  0  0  0
   19.8410   73.4419   17.8820 Cl  0  0  0  0  0  0
   19.3827   70.5039   18.4299 C   0  0  0  0  0  0
   20.4628   70.2702   17.5863 C   0  0  0  0  0  0
   20.3234   69.4621   16.4701 C   0  0  0  0  0  0
   19.1157   68.8450   16.1422 C   0  0  0  0  0  0
   18.0117   69.0622   16.9640 C   0  0  0  0  0  0
   18.1716   69.8925   18.0992 C   0  0  0  0  0  0
   16.9474   69.9542   18.7196 N   0  0  0  0  0  0
   16.0481   69.1634   18.0700 C   0  0  0  0  0  0
   16.6424   68.6620   16.9393 C   0  0  0  0  0  0
   18.8680   69.8123   20.9001 H   0  0  0  0  0  0
   17.7552   73.5803   23.4583 H   0  0  0  0  0  0
   19.3441   76.9667   21.5467 H   0  0  0  0  0  0
   17.9352   76.0850   21.0367 H   0  0  0  0  0  0
   19.3845   75.4565   19.5180 H   0  0  0  0  0  0
   21.8028   74.9360   19.6712 H   0  0  0  0  0  0
   21.7816   75.0153   21.3979 H   0  0  0  0  0  0
   21.4929   76.4653   20.4702 H   0  0  0  0  0  0
   20.7054   75.9563   23.6698 H   0  0  0  0  0  0
   19.8409   74.6416   24.4700 H   0  0  0  0  0  0
   20.7296   74.3082   23.0439 H   0  0  0  0  0  0
   18.0836   77.1119   23.8435 H   0  0  0  0  0  0
   16.7753   76.1379   23.1866 H   0  0  0  0  0  0
   17.5977   75.6361   24.6579 H   0  0  0  0  0  0
   17.8412   70.0329   22.8700 H   0  0  0  0  0  0
   18.1986   71.4621   23.8990 H   0  0  0  0  0  0
   16.7768   71.4246   22.8680 H   0  0  0  0  0  0
   21.4153   70.7396   17.7895 H   0  0  0  0  0  0
   21.1763   69.3202   15.8277 H   0  0  0  0  0  0
   19.0323   68.2237   15.2676 H   0  0  0  0  0  0
   16.7102   70.4683   19.5570 H   0  0  0  0  0  0
   15.0417   69.0623   18.4543 H   0  0  0  0  0  0
   16.1485   68.0512   16.2102 H   0  0  0  0  0  0
  1  2  2  0  0  0
  1  4  1  0  0  0
  1 16  1  0  0  0
  2  3  1  0  0  0
  2 25  1  0  0  0
  3  6  2  0  0  0
  3 14  1  0  0  0
  4 15  1  0  0  0
  4  5  2  0  0  0
  5 10  1  0  0  0
  5  6  1  0  0  0
  6  7  1  0  0  0
  7  8  1  0  0  0
  7 26  1  0  0  0
  8 12  1  0  0  0
  8 13  1  0  0  0
  8  9  1  0  0  0
  9 10  1  0  0  0
  9 27  1  0  0  0
  9 28  1  0  0  0
 10 11  1  0  0  0
 10 29  1  0  0  0
 11 30  1  0  0  0
 11 31  1  0  0  0
 11 32  1  0  0  0
 12 33  1  0  0  0
 12 34  1  0  0  0
 12 35  1  0  0  0
 13 36  1  0  0  0
 13 37  1  0  0  0
 13 38  1  0  0  0
 14 39  1  0  0  0
 14 40  1  0  0  0
 14 41  1  0  0  0
 16 21  2  0  0  0
 16 17  1  0  0  0
 17 18  2  0  0  0
 17 42  1  0  0  0
 18 19  1  0  0  0
 18 43  1  0  0  0
 19 20  2  0  0  0
 19 44  1  0  0  0
 20 21  1  0  0  0
 20 24  1  0  0  0
 21 22  1  0  0  0
 22 23  1  0  0  0
 22 45  1  0  0  0
 23 24  2  0  0  0
 23 46  1  0  0  0
 24 47  1  0  0  0
M  END
> <s_m_entry_id>
9649

> <s_m_entry_name>
dock_pv.89

> <s_m_Source_Path>
/home/csk/Desktop/cluster/DUD-E-result/mcr

> <s_m_Source_File>
dock_pv.maegz

> <i_m_Source_File_Index>
89

> <chembl_id>
CHEMBL258191

> <chembl_pref_name>
None

> <i_lp_mmshare_version>
53161

> <i_f3d_flags>
0

> <r_lp_tautomer_probability>
1

> <s_lp_Force_Field>
OPLS_2005

> <r_lp_Energy>
26.090962

> <b_lp_Chiralities_Consistent>
1

> <s_lp_Variant>
CHEMBL1994_lig1067-2

> <s_i_glide_gridfile>
glide-grid_2aa2

> <i_i_glide_lignum>
1547

> <i_i_glide_rotatable_bonds>
1

> <r_i_docking_score>
-8.4994510797677

> <r_i_glide_ligand_efficiency>
-0.354143794990321

> <r_i_glide_ligand_efficiency_sa>
-1.02152747122149

> <r_i_glide_ligand_efficiency_ln>
-2.03430865778478

> <r_i_glide_gscore>
-8.4994510797677

> <r_i_glide_lipo>
-5.12979607643456

> <r_i_glide_hbond>
-0.22477307936451

> <r_i_glide_metal>
0

> <r_i_glide_rewards>
-1.82543955520559

> <r_i_glide_evdw>
-26.1593475341797

> <r_i_glide_ecoul>
-1.03848874568939

> <r_i_glide_erotb>
0.164736297067274

> <r_i_glide_esite>
-0.0204379772679227

> <r_i_glide_emodel>
-55.184663909862

> <r_i_glide_energy>
-27.1978362798691

> <r_i_glide_einternal>
0.0525912791490555

> <i_i_glide_confnum>
3

> <i_i_glide_posenum>
386

> <r_i_glide_eff_state_penalty>
0

> <s_user_duplicate_titles>
CHEMBL1994_lig1067,426148

> <s_m_subgroup_title>
dock_pv

> <s_m_subgroupid>
dock_pv

> <b_m_subgroup_collapsed>
1

$$$$
CHEMBL1994_lig818
                    3D
 Schrodinger Suite 2021-1.
 40 41  0  0  1  0            999 V2000
   21.3661   70.1752   17.7948 C   0  0  0  0  0  0
   19.8742   69.8695   17.7735 C   0  0  0  0  0  0
   19.3859   69.0083   16.7900 C   0  0  0  0  0  0
   18.0385   68.6623   16.7493 C   0  0  0  0  0  0
   17.1583   69.1832   17.6929 C   0  0  0  0  0  0
   17.6308   70.0590   18.6671 C   0  0  0  0  0  0
   18.9843   70.4197   18.7131 C   0  0  0  0  0  0
   19.4455   71.4314   19.7680 C   0  0  0  0  0  0
   19.2190   72.9267   19.3952 C   0  0  1  0  0  0
   19.8629   73.3346   18.0476 C   0  0  0  0  0  0
   17.8410   73.0776   19.1271 O   0  0  0  0  0  0
   19.6824   73.8373   20.5450 C   0  0  0  0  0  0
   21.0473   74.0719   20.7539 C   0  0  0  0  0  0
   21.4408   74.8978   21.8012 C   0  0  0  0  0  0
   20.5625   75.4618   22.6628 N   0  0  0  0  0  0
   19.2392   75.2321   22.4813 C   0  0  0  0  0  0
   18.4153   75.8583   23.4271 N   0  0  0  0  0  0
   17.0886   76.0591   23.3822 C   0  0  0  0  0  0
   16.3252   75.7696   22.4699 O   0  0  0  0  0  0
   16.6411   76.6620   24.4698 N   0  0  0  0  0  0
   18.7676   74.4254   21.4339 C   0  0  0  0  0  0
   21.8409   69.8620   16.8701 H   0  0  0  0  0  0
   21.5628   71.2395   17.8961 H   0  0  0  0  0  0
   21.8503   69.6725   18.6319 H   0  0  0  0  0  0
   20.0649   68.5850   16.0694 H   0  0  0  0  0  0
   17.6799   67.9833   15.9936 H   0  0  0  0  0  0
   16.1128   68.9126   17.6713 H   0  0  0  0  0  0
   16.9321   70.4693   19.3814 H   0  0  0  0  0  0
   20.4915   71.2568   20.0202 H   0  0  0  0  0  0
   18.9202   71.2041   20.6977 H   0  0  0  0  0  0
   20.9422   73.4618   18.1067 H   0  0  0  0  0  0
   19.6863   72.5962   17.2701 H   0  0  0  0  0  0
   19.4409   74.2641   17.6702 H   0  0  0  0  0  0
   17.3536   72.7489   19.8848 H   0  0  0  0  0  0
   21.7991   73.6213   20.1242 H   0  0  0  0  0  0
   22.4844   75.1103   21.9688 H   0  0  0  0  0  0
   18.9007   76.2535   24.2154 H   0  0  0  0  0  0
   15.6903   76.9920   24.4622 H   0  0  0  0  0  0
   17.2822   77.0018   25.1862 H   0  0  0  0  0  0
   17.7127   74.2394   21.3180 H   0  0  0  0  0  0
  1  2  1  0  0  0
  1 22  1  0  0  0
  1 23  1  0  0  0
  1 24  1  0  0  0
  2  3  2  0  0  0
  2  7  1  0  0  0
  3  4  1  0  0  0
  3 25  1  0  0  0
  4  5  2  0  0  0
  4 26  1  0  0  0
  5  6  1  0  0  0
  5 27  1  0  0  0
  6  7  2  0  0  0
  6 28  1  0  0  0
  7  8  1  0  0  0
  8  9  1  0  0  0
  8 29  1  0  0  0
  8 30  1  0  0  0
  9 10  1  0  0  0
  9 11  1  0  0  0
  9 12  1  0  0  0
 10 31  1  0  0  0
 10 32  1  0  0  0
 10 33  1  0  0  0
 11 34  1  0  0  0
 12 13  2  0  0  0
 12 21  1  0  0  0
 13 14  1  0  0  0
 13 35  1  0  0  0
 14 15  2  0  0  0
 14 36  1  0  0  0
 15 16  1  0  0  0
 16 17  1  0  0  0
 16 21  2  0  0  0
 17 18  1  0  0  0
 17 37  1  0  0  0
 18 19  2  0  0  0
 18 20  1  0  0  0
 20 38  1  0  0  0
 20 39  1  0  0  0
 21 40  1  0  0  0
M  END
> <s_m_entry_id>
9650

> <s_m_entry_name>
dock_pv.90

> <s_m_Source_Path>
/home/csk/Desktop/cluster/DUD-E-result/mcr

> <s_m_Source_File>
dock_pv.maegz

> <i_m_Source_File_Index>
90

> <chembl_id>
CHEMBL3643683

> <chembl_pref_name>
None

> <i_lp_mmshare_version>
53161

> <i_f3d_flags>
0

> <r_lp_tautomer_probability>
1

> <s_lp_Force_Field>
OPLS_2005

> <r_lp_Energy>
8.488769

> <b_lp_Chiralities_Consistent>
1

> <s_lp_Variant>
CHEMBL1994_lig818-1

> <s_i_glide_gridfile>
glide-grid_2aa2

> <i_i_glide_lignum>
1243

> <i_i_glide_rotatable_bonds>
6

> <r_i_docking_score>
-8.48941874274482

> <r_i_glide_ligand_efficiency>
-0.404258035368801

> <r_i_glide_ligand_efficiency_sa>
-1.11531726614345

> <r_i_glide_ligand_efficiency_ln>
-2.09899162965785

> <r_i_glide_gscore>
-8.48941874274482

> <r_i_glide_lipo>
-3.97833788277148

> <r_i_glide_hbond>
-0.32

> <r_i_glide_metal>
0

> <r_i_glide_rewards>
-2.58985829329963

> <r_i_glide_evdw>
-39.0792236328125

> <r_i_glide_ecoul>
-3.59031176567078

> <r_i_glide_erotb>
0.891285379817533

> <r_i_glide_esite>
0

> <r_i_glide_emodel>
-64.3546981273056

> <r_i_glide_energy>
-42.6695353984833

> <r_i_glide_einternal>
1.36675095558167

> <i_i_glide_confnum>
11

> <i_i_glide_posenum>
246

> <r_i_glide_eff_state_penalty>
0

> <s_user_duplicate_titles>
CHEMBL1994_lig818

> <s_m_subgroup_title>
dock_pv

> <s_m_subgroupid>
dock_pv

> <b_m_subgroup_collapsed>
1

$$$$
CHEMBL1994_lig447
                    3D
 Schrodinger Suite 2021-1.
 36 37  0  0  1  0            999 V2000
   20.8090   69.9938   16.8694 C   0  0  0  0  0  0
   19.3460   69.8911   17.2700 C   0  0  0  0  0  0
   18.5982   68.8014   16.8131 C   0  0  0  0  0  0
   17.2500   68.6860   17.1474 C   0  0  0  0  0  0
   16.6410   69.6352   17.9570 C   0  0  0  0  0  0
   17.3751   70.7210   18.4159 C   0  0  0  0  0  0
   18.7217   70.8663   18.0682 C   0  0  0  0  0  0
   19.4550   72.0846   18.5990 C   0  0  0  0  0  0
   20.0477   71.8246   19.9926 C   0  0  0  0  0  0
   20.0718   73.0937   20.8132 C   0  0  0  0  0  0
   21.2320   73.8620   20.9260 C   0  0  0  0  0  0
   21.1757   75.0379   21.6700 C   0  0  0  0  0  0
   20.0400   75.4620   22.2773 N   0  0  0  0  0  0
   18.9049   74.7096   22.1610 C   0  0  0  0  0  0
   17.6795   75.0620   22.7670 N   0  0  0  0  0  0
   17.3364   76.1312   23.5051 C   0  0  0  0  0  0
   16.2410   76.2620   24.0256 O   0  0  0  0  0  0
   18.2451   77.0620   23.6700 N   0  0  0  0  0  0
   18.8976   73.5174   21.4403 C   0  0  0  0  0  0
   21.4597   69.8153   17.7257 H   0  0  0  0  0  0
   21.0435   69.2832   16.0783 H   0  0  0  0  0  0
   21.0411   70.9806   16.4701 H   0  0  0  0  0  0
   19.0604   68.0426   16.1990 H   0  0  0  0  0  0
   16.6611   67.8620   16.7934 H   0  0  0  0  0  0
   15.6001   69.5299   18.2265 H   0  0  0  0  0  0
   16.8904   71.4533   19.0456 H   0  0  0  0  0  0
   20.2175   72.4409   17.9073 H   0  0  0  0  0  0
   18.7296   72.9007   18.6331 H   0  0  0  0  0  0
   19.4518   71.0953   20.5454 H   0  0  0  0  0  0
   21.0411   71.3854   19.9147 H   0  0  0  0  0  0
   22.1576   73.5457   20.4700 H   0  0  0  0  0  0
   22.0537   75.6553   21.7977 H   0  0  0  0  0  0
   16.9481   74.3696   22.6818 H   0  0  0  0  0  0
   18.1028   77.7583   24.3892 H   0  0  0  0  0  0
   19.1300   76.9722   23.1960 H   0  0  0  0  0  0
   17.9942   72.9293   21.3563 H   0  0  0  0  0  0
  1  2  1  0  0  0
  1 20  1  0  0  0
  1 21  1  0  0  0
  1 22  1  0  0  0
  2  3  2  0  0  0
  2  7  1  0  0  0
  3  4  1  0  0  0
  3 23  1  0  0  0
  4  5  2  0  0  0
  4 24  1  0  0  0
  5  6  1  0  0  0
  5 25  1  0  0  0
  6  7  2  0  0  0
  6 26  1  0  0  0
  7  8  1  0  0  0
  8  9  1  0  0  0
  8 27  1  0  0  0
  8 28  1  0  0  0
  9 10  1  0  0  0
  9 29  1  0  0  0
  9 30  1  0  0  0
 10 11  2  0  0  0
 10 19  1  0  0  0
 11 12  1  0  0  0
 11 31  1  0  0  0
 12 13  2  0  0  0
 12 32  1  0  0  0
 13 14  1  0  0  0
 14 15  1  0  0  0
 14 19  2  0  0  0
 15 16  1  0  0  0
 15 33  1  0  0  0
 16 17  2  0  0  0
 16 18  1  0  0  0
 18 34  1  0  0  0
 18 35  1  0  0  0
 19 36  1  0  0  0
M  END
> <s_m_entry_id>
9651

> <s_m_entry_name>
dock_pv.91

> <s_m_Source_Path>
/home/csk/Desktop/cluster/DUD-E-result/mcr

> <s_m_Source_File>
dock_pv.maegz

> <i_m_Source_File_Index>
91

> <chembl_id>
CHEMBL2181933

> <chembl_pref_name>
None

> <i_lp_mmshare_version>
53161

> <i_f3d_flags>
0

> <r_lp_tautomer_probability>
1

> <s_lp_Force_Field>
OPLS_2005

> <r_lp_Energy>
9.786099

> <b_lp_Chiralities_Consistent>
1

> <s_lp_Variant>
CHEMBL1994_lig447-1

> <s_i_glide_gridfile>
glide-grid_2aa2

> <i_i_glide_lignum>
729

> <i_i_glide_rotatable_bonds>
5

> <r_i_docking_score>
-8.46136095226089

> <r_i_glide_ligand_efficiency>
-0.4453347869611

> <r_i_glide_ligand_efficiency_sa>
-1.18833207859391

> <r_i_glide_ligand_efficiency_ln>
-2.14513673476804

> <r_i_glide_gscore>
-8.46136095226089

> <r_i_glide_lipo>
-4.05246759729868

> <r_i_glide_hbond>
-0.724530134702768

> <r_i_glide_metal>
0

> <r_i_glide_rewards>
-2.01818121677251

> <r_i_glide_evdw>
-37.6700210571289

> <r_i_glide_ecoul>
-5.69289827346802

> <r_i_glide_erotb>
1.08027981481187

> <r_i_glide_esite>
-0.00902602442214569

> <r_i_glide_emodel>
-59.618898219084

> <r_i_glide_energy>
-43.3629193305969

> <r_i_glide_einternal>
5.80152034759521

> <i_i_glide_confnum>
7

> <i_i_glide_posenum>
226

> <r_i_glide_eff_state_penalty>
0

> <s_user_duplicate_titles>
CHEMBL1994_lig447

> <s_m_subgroup_title>
dock_pv

> <s_m_subgroupid>
dock_pv

> <b_m_subgroup_collapsed>
1

$$$$
CHEMBL1994_lig952 
                    3D
 Schrodinger Suite 2021-1.
 42 45  0  0  1  0            999 V2000
   17.1674   68.6620   16.5103 C   0  0  0  0  0  0
   16.6058   69.1718   17.6700 C   0  0  0  0  0  0
   17.4038   69.8521   18.5748 C   0  0  0  0  0  0
   18.5281   68.8079   16.2683 C   0  0  0  0  0  0
   19.3317   69.5338   17.1479 C   0  0  0  0  0  0
   18.7839   70.0276   18.3518 C   0  0  0  0  0  0
   19.6020   70.7819   19.2489 N   0  0  0  0  0  0
   20.8935   71.3448   18.7966 C   0  0  1  0  0  0
   21.6033   70.2878   17.9480 C   0  0  0  0  0  0
   20.7585   69.8620   16.7591 C   0  0  0  0  0  0
   19.2136   71.0244   20.5373 C   0  0  0  0  0  0
   19.2803   72.4432   21.0366 C   0  0  0  0  0  0
   18.6410   70.1929   21.2424 O   0  0  0  0  0  0
   20.4953   73.1415   21.1407 C   0  0  0  0  0  0
   20.5588   74.4416   21.5860 C   0  0  0  0  0  0
   18.0918   73.0825   21.4306 C   0  0  0  0  0  0
   18.1504   74.3860   21.9165 C   0  0  0  0  0  0
   19.3811   75.0236   21.9799 C   0  0  0  0  0  0
   19.4410   76.2620   22.5088 O   0  0  0  0  0  0
   18.6212   76.4348   23.6700 C   0  0  0  0  0  0
   17.1638   76.0077   23.4292 C   0  0  0  0  0  0
   17.0610   75.0620   22.4700 N   0  0  0  0  0  0
   16.2376   76.4693   24.0697 O   0  0  0  0  0  0
   20.7699   72.6960   18.0700 C   0  0  0  0  0  0
   16.5318   68.1898   15.7823 H   0  0  0  0  0  0
   15.5488   69.0627   17.8642 H   0  0  0  0  0  0
   16.9137   70.2622   19.4444 H   0  0  0  0  0  0
   18.9449   68.4342   15.3458 H   0  0  0  0  0  0
   21.5860   71.4146   19.6228 H   0  0  0  0  0  0
   22.5718   70.6623   17.6158 H   0  0  0  0  0  0
   21.8410   69.4358   18.5784 H   0  0  0  0  0  0
   21.2219   69.0620   16.2004 H   0  0  0  0  0  0
   20.7501   70.6973   16.0721 H   0  0  0  0  0  0
   21.4493   72.7037   20.9429 H   0  0  0  0  0  0
   21.5012   74.9621   21.6801 H   0  0  0  0  0  0
   17.1438   72.5614   21.4035 H   0  0  0  0  0  0
   18.9695   75.7743   24.4636 H   0  0  0  0  0  0
   18.6467   77.4611   24.0362 H   0  0  0  0  0  0
   16.1297   74.6834   22.3717 H   0  0  0  0  0  0
   21.7603   73.0857   17.8431 H   0  0  0  0  0  0
   20.2411   72.6003   17.1239 H   0  0  0  0  0  0
   20.2432   73.4613   18.6349 H   0  0  0  0  0  0
  1  2  2  0  0  0
  1  4  1  0  0  0
  1 25  1  0  0  0
  2  3  1  0  0  0
  2 26  1  0  0  0
  3  6  2  0  0  0
  3 27  1  0  0  0
  4  5  2  0  0  0
  4 28  1  0  0  0
  5  6  1  0  0  0
  5 10  1  0  0  0
  6  7  1  0  0  0
  7  8  1  0  0  0
  7 11  1  0  0  0
  8  9  1  0  0  0
  8 24  1  0  0  0
  8 29  1  0  0  0
  9 10  1  0  0  0
  9 30  1  0  0  0
  9 31  1  0  0  0
 10 32  1  0  0  0
 10 33  1  0  0  0
 11 12  1  0  0  0
 11 13  2  0  0  0
 12 14  2  0  0  0
 12 16  1  0  0  0
 14 15  1  0  0  0
 14 34  1  0  0  0
 15 18  2  0  0  0
 15 35  1  0  0  0
 16 17  2  0  0  0
 16 36  1  0  0  0
 17 18  1  0  0  0
 17 22  1  0  0  0
 18 19  1  0  0  0
 19 20  1  0  0  0
 20 21  1  0  0  0
 20 37  1  0  0  0
 20 38  1  0  0  0
 21 22  1  0  0  0
 21 23  2  0  0  0
 22 39  1  0  0  0
 24 40  1  0  0  0
 24 41  1  0  0  0
 24 42  1  0  0  0
M  END
> <s_m_entry_id>
9652

> <s_m_entry_name>
dock_pv.92

> <s_m_Source_Path>
/home/csk/Desktop/cluster/DUD-E-result/mcr

> <s_m_Source_File>
dock_pv.maegz

> <i_m_Source_File_Index>
92

> <chembl_id>
CHEMBL4474881

> <chembl_pref_name>
None

> <i_lp_mmshare_version>
53161

> <i_f3d_flags>
0

> <r_lp_tautomer_probability>
1

> <s_lp_Force_Field>
OPLS_2005

> <r_lp_Energy>
50.371637

> <b_lp_Chiralities_Consistent>
1

> <s_lp_Variant>
CHEMBL1994_lig952 -2

> <s_i_glide_gridfile>
glide-grid_2aa2

> <i_i_glide_lignum>
1394

> <i_i_glide_rotatable_bonds>
2

> <r_i_docking_score>
-8.44750331703593

> <r_i_glide_ligand_efficiency>
-0.351979304876497

> <r_i_glide_ligand_efficiency_sa>
-1.01528400135491

> <r_i_glide_ligand_efficiency_ln>
-2.02187517443557

> <r_i_glide_gscore>
-8.44750331703593

> <r_i_glide_lipo>
-4.15335877284134

> <r_i_glide_hbond>
-0.375433947599754

> <r_i_glide_metal>
0

> <r_i_glide_rewards>
-2.06583506865804

> <r_i_glide_evdw>
-32.6641464233398

> <r_i_glide_ecoul>
-3.86376309394836

> <r_i_glide_erotb>
0.359896257322453

> <r_i_glide_esite>
0

> <r_i_glide_emodel>
-40.6140064818632

> <r_i_glide_energy>
-36.5279095172882

> <r_i_glide_einternal>
3.9129810333252

> <i_i_glide_confnum>
16

> <i_i_glide_posenum>
373

> <r_i_glide_eff_state_penalty>
0

> <s_user_duplicate_titles>
CHEMBL1994_lig952 

> <s_m_subgroup_title>
dock_pv

> <s_m_subgroupid>
dock_pv

> <b_m_subgroup_collapsed>
1

$$$$
CHEMBL1994_lig65
                    3D
 Schrodinger Suite 2021-1.
 35 37  0  0  1  0            999 V2000
   19.7077   72.6527   19.2581 C   0  0  0  0  0  0
   20.6336   72.6805   18.2101 C   0  0  0  0  0  0
   20.6644   71.6519   17.2714 C   0  0  0  0  0  0
   18.8461   71.5632   19.3478 C   0  0  0  0  0  0
   18.9098   70.5105   18.4394 C   0  0  0  0  0  0
   19.8094   70.5719   17.3859 C   0  0  0  0  0  0
   19.8412   69.5372   16.4698 N   0  0  0  0  0  0
   19.0411   68.4127   16.5070 C   0  0  0  0  0  0
   18.2580   68.2618   17.5903 O   0  0  0  0  0  0
   18.1100   69.2381   18.6279 C   0  0  0  0  0  0
   19.0330   67.5173   15.6738 O   0  0  0  0  0  0
   18.6412   68.6163   19.9501 C   0  0  0  0  0  0
   16.6196   69.5615   18.4707 C   0  0  0  0  0  0
   19.6468   73.6999   20.3015 C   0  0  0  0  0  0
   20.8139   74.3028   20.7835 C   0  0  0  0  0  0
   20.7424   75.2328   21.8132 C   0  0  0  0  0  0
   19.5280   75.5485   22.3965 C   0  0  0  0  0  0
   18.3613   74.9980   21.8962 C   0  0  0  0  0  0
   18.4129   74.0751   20.8555 C   0  0  0  0  0  0
   21.8452   75.8618   22.2403 F   0  0  0  0  0  0
   17.1117   75.4654   22.4379 C   0  0  0  0  0  0
   16.1260   75.8624   22.8722 N   0  0  0  0  0  0
   21.3323   73.4972   18.1120 H   0  0  0  0  0  0
   21.3800   71.6710   16.4695 H   0  0  0  0  0  0
   18.1574   71.4898   20.1773 H   0  0  0  0  0  0
   20.4812   69.5720   15.6919 H   0  0  0  0  0  0
   18.2504   69.1684   20.8041 H   0  0  0  0  0  0
   18.3239   67.5782   20.0656 H   0  0  0  0  0  0
   19.7221   68.6616   20.0685 H   0  0  0  0  0  0
   16.3142   70.3339   19.1702 H   0  0  0  0  0  0
   16.3806   69.9308   17.4710 H   0  0  0  0  0  0
   15.9953   68.6863   18.6582 H   0  0  0  0  0  0
   21.7818   74.0469   20.3796 H   0  0  0  0  0  0
   19.4963   76.2611   23.2073 H   0  0  0  0  0  0
   17.4929   73.6517   20.4761 H   0  0  0  0  0  0
  1 14  1  0  0  0
  1  2  2  0  0  0
  1  4  1  0  0  0
  2  3  1  0  0  0
  2 23  1  0  0  0
  3  6  2  0  0  0
  3 24  1  0  0  0
  4  5  2  0  0  0
  4 25  1  0  0  0
  5  6  1  0  0  0
  5 10  1  0  0  0
  6  7  1  0  0  0
  7  8  1  0  0  0
  7 26  1  0  0  0
  8 11  2  0  0  0
  8  9  1  0  0  0
  9 10  1  0  0  0
 10 12  1  0  0  0
 10 13  1  0  0  0
 12 27  1  0  0  0
 12 28  1  0  0  0
 12 29  1  0  0  0
 13 30  1  0  0  0
 13 31  1  0  0  0
 13 32  1  0  0  0
 14 15  2  0  0  0
 14 19  1  0  0  0
 15 16  1  0  0  0
 15 33  1  0  0  0
 16 17  2  0  0  0
 16 20  1  0  0  0
 17 18  1  0  0  0
 17 34  1  0  0  0
 18 19  2  0  0  0
 18 21  1  0  0  0
 19 35  1  0  0  0
 21 22  3  0  0  0
M  END
> <s_m_entry_id>
9653

> <s_m_entry_name>
dock_pv.93

> <s_m_Source_Path>
/home/csk/Desktop/cluster/DUD-E-result/mcr

> <s_m_Source_File>
dock_pv.maegz

> <i_m_Source_File_Index>
93

> <chembl_id>
CHEMBL136322

> <chembl_pref_name>
None

> <i_lp_mmshare_version>
53161

> <i_f3d_flags>
0

> <r_lp_tautomer_probability>
1

> <s_lp_Force_Field>
OPLS_2005

> <r_lp_Energy>
19.112567

> <b_lp_Chiralities_Consistent>
1

> <s_lp_Variant>
CHEMBL1994_lig65-1

> <s_i_glide_gridfile>
glide-grid_2aa2

> <i_i_glide_lignum>
85

> <i_i_glide_rotatable_bonds>
1

> <r_i_docking_score>
-8.42729600714218

> <r_i_glide_ligand_efficiency>
-0.383058909415554

> <r_i_glide_ligand_efficiency_sa>
-1.07334612903442

> <r_i_glide_ligand_efficiency_ln>
-2.05993853723621

> <r_i_glide_gscore>
-8.42729600714218

> <r_i_glide_lipo>
-3.76073054437709

> <r_i_glide_hbond>
-0.133712906069696

> <r_i_glide_metal>
0

> <r_i_glide_rewards>
-2.90333967857365

> <r_i_glide_evdw>
-31.4226016998291

> <r_i_glide_ecoul>
-1.73531067371368

> <r_i_glide_erotb>
0.20865140649092

> <r_i_glide_esite>
-0.00673759856415851

> <r_i_glide_emodel>
-39.0167347352044

> <r_i_glide_energy>
-33.1579123735428

> <r_i_glide_einternal>
1.58816981315613

> <i_i_glide_confnum>
3

> <i_i_glide_posenum>
20

> <r_i_glide_eff_state_penalty>
0

> <s_user_duplicate_titles>
CHEMBL1994_lig65

> <s_m_subgroup_title>
dock_pv

> <s_m_subgroupid>
dock_pv

> <b_m_subgroup_collapsed>
1

$$$$
CHEMBL1994_lig826
                    3D
 Schrodinger Suite 2021-1.
 36 37  0  0  1  0            999 V2000
   15.8410   68.9017   18.4258 N   0  0  0  0  0  0
   16.8734   69.1988   17.6715 C   0  0  0  0  0  0
   17.0947   68.6616   16.5884 O   0  0  0  0  0  0
   17.6311   70.0697   18.3322 N   0  0  0  0  0  0
   18.9466   70.4168   18.0733 C   0  0  0  0  0  0
   19.5304   71.2480   19.0253 C   0  0  0  0  0  0
   20.8625   71.6086   18.8693 C   0  0  0  0  0  0
   21.5365   72.5192   19.8784 C   0  0  0  0  0  0
   21.1815   73.9840   19.8850 C   0  0  0  0  0  0
   19.7870   74.3130   20.4059 C   0  0  0  0  0  0
   18.7026   74.2629   19.5358 C   0  0  0  0  0  0
   17.4459   74.6409   19.9820 C   0  0  0  0  0  0
   17.2304   75.0305   21.2957 C   0  0  0  0  0  0
   15.9774   75.3795   21.6699 F   0  0  0  0  0  0
   18.3009   75.0689   22.1930 C   0  0  0  0  0  0
   19.5803   74.7035   21.7393 C   0  0  0  0  0  0
   18.1044   75.5386   23.6310 C   0  0  0  0  0  0
   16.9248   76.1143   23.8669 F   0  0  0  0  0  0
   18.2415   74.5034   24.4542 F   0  0  0  0  0  0
   19.0408   76.4394   23.9095 F   0  0  0  0  0  0
   21.5888   71.0621   17.8057 C   0  0  0  0  0  0
   20.9326   70.2553   16.8842 C   0  0  0  0  0  0
   19.6286   69.9319   16.9978 N   0  0  0  0  0  0
   15.5048   69.5350   19.1430 H   0  0  0  0  0  0
   15.3060   68.0839   18.1917 H   0  0  0  0  0  0
   17.2484   70.4460   19.1836 H   0  0  0  0  0  0
   18.9704   71.5972   19.8813 H   0  0  0  0  0  0
   21.3109   72.2070   20.8860 H   0  0  0  0  0  0
   22.6073   72.4264   19.6701 H   0  0  0  0  0  0
   21.9053   74.5486   20.4755 H   0  0  0  0  0  0
   21.3530   74.2619   18.8616 H   0  0  0  0  0  0
   18.8416   73.9820   18.5014 H   0  0  0  0  0  0
   16.6408   74.6619   19.2752 H   0  0  0  0  0  0
   20.4204   74.7436   22.4180 H   0  0  0  0  0  0
   22.6404   71.2798   17.6711 H   0  0  0  0  0  0
   21.4410   69.8355   16.0337 H   0  0  0  0  0  0
  1  2  1  0  0  0
  1 24  1  0  0  0
  1 25  1  0  0  0
  2  3  2  0  0  0
  2  4  1  0  0  0
  4  5  1  0  0  0
  4 26  1  0  0  0
  5  6  2  0  0  0
  5 23  1  0  0  0
  6  7  1  0  0  0
  6 27  1  0  0  0
  7  8  1  0  0  0
  7 21  2  0  0  0
  8  9  1  0  0  0
  8 28  1  0  0  0
  8 29  1  0  0  0
  9 10  1  0  0  0
  9 30  1  0  0  0
  9 31  1  0  0  0
 10 11  2  0  0  0
 10 16  1  0  0  0
 11 12  1  0  0  0
 11 32  1  0  0  0
 12 13  2  0  0  0
 12 33  1  0  0  0
 13 14  1  0  0  0
 13 15  1  0  0  0
 15 16  2  0  0  0
 15 17  1  0  0  0
 16 34  1  0  0  0
 17 18  1  0  0  0
 17 19  1  0  0  0
 17 20  1  0  0  0
 21 22  1  0  0  0
 21 35  1  0  0  0
 22 23  2  0  0  0
 22 36  1  0  0  0
M  END
> <s_m_entry_id>
9654

> <s_m_entry_name>
dock_pv.94

> <s_m_Source_Path>
/home/csk/Desktop/cluster/DUD-E-result/mcr

> <s_m_Source_File>
dock_pv.maegz

> <i_m_Source_File_Index>
94

> <chembl_id>
CHEMBL3643691

> <chembl_pref_name>
None

> <i_lp_mmshare_version>
53161

> <i_f3d_flags>
0

> <r_lp_tautomer_probability>
1

> <s_lp_Force_Field>
OPLS_2005

> <r_lp_Energy>
10.466903

> <b_lp_Chiralities_Consistent>
1

> <s_lp_Variant>
CHEMBL1994_lig826-1

> <s_i_glide_gridfile>
glide-grid_2aa2

> <i_i_glide_lignum>
1252

> <i_i_glide_rotatable_bonds>
6

> <r_i_docking_score>
-8.42555580151133

> <r_i_glide_ligand_efficiency>
-0.366328513109188

> <r_i_glide_ligand_efficiency_sa>
-1.0417895611205

> <r_i_glide_ligand_efficiency_ln>
-2.03737579152152

> <r_i_glide_gscore>
-8.42555580151133

> <r_i_glide_lipo>
-3.58025720157009

> <r_i_glide_hbond>
-0.366069279906518

> <r_i_glide_metal>
0

> <r_i_glide_rewards>
-3.3294558616093

> <r_i_glide_evdw>
-26.71653175354

> <r_i_glide_ecoul>
-3.33890056610107

> <r_i_glide_erotb>
0.700811900779079

> <r_i_glide_esite>
-0.0139236866123354

> <r_i_glide_emodel>
-41.3795067148487

> <r_i_glide_energy>
-30.0554323196411

> <r_i_glide_einternal>
2.54541659355164

> <i_i_glide_confnum>
47

> <i_i_glide_posenum>
225

> <r_i_glide_eff_state_penalty>
0

> <s_user_duplicate_titles>
CHEMBL1994_lig826

> <s_m_subgroup_title>
dock_pv

> <s_m_subgroupid>
dock_pv

> <b_m_subgroup_collapsed>
1

$$$$
CHEMBL1994_lig821
                    3D
 Schrodinger Suite 2021-1.
 36 37  0  0  1  0            999 V2000
   19.3503   68.6614   16.7747 N   0  0  0  0  0  0
   18.0242   68.6833   16.6524 C   0  0  0  0  0  0
   17.4821   68.2620   15.6382 O   0  0  0  0  0  0
   17.3081   69.2684   17.6373 N   0  0  0  0  0  0
   17.7590   69.7710   18.8684 C   0  0  0  0  0  0
   17.1892   70.9517   19.3536 C   0  0  0  0  0  0
   17.6164   71.4643   20.5908 C   0  0  0  0  0  0
   17.1077   72.8077   21.1300 C   0  0  0  0  0  0
   17.6065   74.0595   20.3545 C   0  0  0  0  0  0
   19.0012   73.8458   19.7813 C   0  0  0  0  0  0
   19.0734   73.2753   18.5034 C   0  0  0  0  0  0
   20.2481   72.6796   18.0649 C   0  0  0  0  0  0
   21.3766   72.7179   18.8696 C   0  0  0  0  0  0
   21.3489   73.4070   20.0816 C   0  0  0  0  0  0
   20.1665   73.9780   20.5626 C   0  0  0  0  0  0
   20.1762   74.6987   21.9178 C   0  0  0  0  0  0
   21.4164   74.9701   22.3279 F   0  0  0  0  0  0
   19.5306   75.8617   21.8423 F   0  0  0  0  0  0
   19.5948   73.9392   22.8448 F   0  0  0  0  0  0
   18.6070   70.7717   21.2974 C   0  0  0  0  0  0
   19.1186   69.5941   20.7576 C   0  0  0  0  0  0
   18.6906   69.0834   19.5783 N   0  0  0  0  0  0
   19.7603   68.9887   17.6360 H   0  0  0  0  0  0
   19.9269   68.2262   16.0695 H   0  0  0  0  0  0
   16.3455   69.4686   17.4177 H   0  0  0  0  0  0
   16.4392   71.4612   18.7717 H   0  0  0  0  0  0
   16.0203   72.7993   21.1942 H   0  0  0  0  0  0
   17.4430   72.8987   22.1629 H   0  0  0  0  0  0
   16.9397   74.3019   19.5339 H   0  0  0  0  0  0
   17.5544   74.9425   20.9877 H   0  0  0  0  0  0
   18.1849   73.1795   17.8957 H   0  0  0  0  0  0
   20.2810   72.1727   17.1123 H   0  0  0  0  0  0
   22.2880   72.2536   18.5298 H   0  0  0  0  0  0
   22.2522   73.4615   20.6694 H   0  0  0  0  0  0
   18.9869   71.1482   22.2365 H   0  0  0  0  0  0
   19.8880   69.0340   21.2687 H   0  0  0  0  0  0
  1  2  1  0  0  0
  1 23  1  0  0  0
  1 24  1  0  0  0
  2  3  2  0  0  0
  2  4  1  0  0  0
  4  5  1  0  0  0
  4 25  1  0  0  0
  5  6  2  0  0  0
  5 22  1  0  0  0
  6  7  1  0  0  0
  6 26  1  0  0  0
  7  8  1  0  0  0
  7 20  2  0  0  0
  8  9  1  0  0  0
  8 27  1  0  0  0
  8 28  1  0  0  0
  9 10  1  0  0  0
  9 29  1  0  0  0
  9 30  1  0  0  0
 10 11  2  0  0  0
 10 15  1  0  0  0
 11 12  1  0  0  0
 11 31  1  0  0  0
 12 13  2  0  0  0
 12 32  1  0  0  0
 13 14  1  0  0  0
 13 33  1  0  0  0
 14 15  2  0  0  0
 14 34  1  0  0  0
 15 16  1  0  0  0
 16 17  1  0  0  0
 16 18  1  0  0  0
 16 19  1  0  0  0
 20 21  1  0  0  0
 20 35  1  0  0  0
 21 22  2  0  0  0
 21 36  1  0  0  0
M  END
> <s_m_entry_id>
9655

> <s_m_entry_name>
dock_pv.95

> <s_m_Source_Path>
/home/csk/Desktop/cluster/DUD-E-result/mcr

> <s_m_Source_File>
dock_pv.maegz

> <i_m_Source_File_Index>
95

> <chembl_id>
CHEMBL3643686

> <chembl_pref_name>
None

> <i_lp_mmshare_version>
53161

> <i_f3d_flags>
0

> <r_lp_tautomer_probability>
1

> <s_lp_Force_Field>
OPLS_2005

> <r_lp_Energy>
9.936811

> <b_lp_Chiralities_Consistent>
1

> <s_lp_Variant>
CHEMBL1994_lig821-1

> <s_i_glide_gridfile>
glide-grid_2aa2

> <i_i_glide_lignum>
1247

> <i_i_glide_rotatable_bonds>
6

> <r_i_docking_score>
-8.41988193690388

> <r_i_glide_ligand_efficiency>
-0.382721906222904

> <r_i_glide_ligand_efficiency_sa>
-1.07240183283503

> <r_i_glide_ligand_efficiency_ln>
-2.05812626803519

> <r_i_glide_gscore>
-8.41988193690388

> <r_i_glide_lipo>
-3.67560361549166

> <r_i_glide_hbond>
-0.470560006204947

> <r_i_glide_metal>
0

> <r_i_glide_rewards>
-2.68188631270389

> <r_i_glide_evdw>
-33.9365005493164

> <r_i_glide_ecoul>
-4.46119976043701

> <r_i_glide_erotb>
0.774172989027991

> <r_i_glide_esite>
0

> <r_i_glide_emodel>
-47.9846640997742

> <r_i_glide_energy>
-38.3977003097534

> <r_i_glide_einternal>
7.44145059585571

> <i_i_glide_confnum>
32

> <i_i_glide_posenum>
390

> <r_i_glide_eff_state_penalty>
0

> <s_user_duplicate_titles>
CHEMBL1994_lig821

> <s_m_subgroup_title>
dock_pv

> <s_m_subgroupid>
dock_pv

> <b_m_subgroup_collapsed>
1

$$$$
CHEMBL1994_lig818
                    3D
 Schrodinger Suite 2021-1.
 40 41  0  0  1  0            999 V2000
   21.0491   70.9138   17.2682 C   0  0  0  0  0  0
   19.6656   70.2788   17.3361 C   0  0  0  0  0  0
   19.4390   69.1069   16.6178 C   0  0  0  0  0  0
   18.1889   68.5017   16.6127 C   0  0  0  0  0  0
   17.1411   69.0621   17.3374 C   0  0  0  0  0  0
   17.3524   70.2248   18.0705 C   0  0  0  0  0  0
   18.6131   70.8339   18.0902 C   0  0  0  0  0  0
   18.8204   72.0689   18.9648 C   0  0  0  0  0  0
   19.0707   71.7840   20.4760 C   0  0  2  0  0  0
   20.0188   70.5907   20.7521 C   0  0  0  0  0  0
   17.8406   71.3384   21.0273 O   0  0  0  0  0  0
   19.6021   73.0633   21.1504 C   0  0  0  0  0  0
   20.8927   73.5397   20.8673 C   0  0  0  0  0  0
   21.3399   74.7079   21.4854 C   0  0  0  0  0  0
   20.5633   75.4378   22.3230 N   0  0  0  0  0  0
   19.2975   75.0084   22.5624 C   0  0  0  0  0  0
   18.5077   75.8653   23.3402 N   0  0  0  0  0  0
   17.1754   76.0226   23.2418 C   0  0  0  0  0  0
   16.4382   75.4644   22.4317 O   0  0  0  0  0  0
   16.7102   76.9437   24.0699 N   0  0  0  0  0  0
   18.8057   73.8109   22.0228 C   0  0  0  0  0  0
   21.7814   70.2645   16.7887 H   0  0  0  0  0  0
   21.0048   71.8540   16.7186 H   0  0  0  0  0  0
   21.4401   71.1377   18.2571 H   0  0  0  0  0  0
   20.2421   68.6552   16.0692 H   0  0  0  0  0  0
   18.0406   67.5837   16.0684 H   0  0  0  0  0  0
   16.1745   68.5825   17.3515 H   0  0  0  0  0  0
   16.5388   70.6390   18.6505 H   0  0  0  0  0  0
   17.9537   72.7228   18.8506 H   0  0  0  0  0  0
   19.6300   72.6662   18.5471 H   0  0  0  0  0  0
   21.0090   70.7410   20.3304 H   0  0  0  0  0  0
   20.1523   70.4299   21.8228 H   0  0  0  0  0  0
   19.6357   69.6549   20.3388 H   0  0  0  0  0  0
   17.1836   72.0294   20.9108 H   0  0  0  0  0  0
   21.5487   73.0075   20.1955 H   0  0  0  0  0  0
   22.3380   75.0829   21.3084 H   0  0  0  0  0  0
   19.0056   76.5138   23.9272 H   0  0  0  0  0  0
   15.7547   77.2429   23.9714 H   0  0  0  0  0  0
   17.2776   77.2921   24.8358 H   0  0  0  0  0  0
   17.8084   73.4788   22.2694 H   0  0  0  0  0  0
  1  2  1  0  0  0
  1 22  1  0  0  0
  1 23  1  0  0  0
  1 24  1  0  0  0
  2  3  2  0  0  0
  2  7  1  0  0  0
  3  4  1  0  0  0
  3 25  1  0  0  0
  4  5  2  0  0  0
  4 26  1  0  0  0
  5  6  1  0  0  0
  5 27  1  0  0  0
  6  7  2  0  0  0
  6 28  1  0  0  0
  7  8  1  0  0  0
  8  9  1  0  0  0
  8 29  1  0  0  0
  8 30  1  0  0  0
  9 10  1  0  0  0
  9 11  1  0  0  0
  9 12  1  0  0  0
 10 31  1  0  0  0
 10 32  1  0  0  0
 10 33  1  0  0  0
 11 34  1  0  0  0
 12 13  2  0  0  0
 12 21  1  0  0  0
 13 14  1  0  0  0
 13 35  1  0  0  0
 14 15  2  0  0  0
 14 36  1  0  0  0
 15 16  1  0  0  0
 16 17  1  0  0  0
 16 21  2  0  0  0
 17 18  1  0  0  0
 17 37  1  0  0  0
 18 19  2  0  0  0
 18 20  1  0  0  0
 20 38  1  0  0  0
 20 39  1  0  0  0
 21 40  1  0  0  0
M  END
> <s_m_entry_id>
9656

> <s_m_entry_name>
dock_pv.96

> <s_m_Source_Path>
/home/csk/Desktop/cluster/DUD-E-result/mcr

> <s_m_Source_File>
dock_pv.maegz

> <i_m_Source_File_Index>
96

> <chembl_id>
CHEMBL3643683

> <chembl_pref_name>
None

> <i_lp_mmshare_version>
53161

> <i_f3d_flags>
0

> <r_lp_tautomer_probability>
1

> <s_lp_Force_Field>
OPLS_2005

> <r_lp_Energy>
11.495345

> <b_lp_Chiralities_Consistent>
1

> <s_lp_Variant>
CHEMBL1994_lig818-2

> <s_i_glide_gridfile>
glide-grid_2aa2

> <i_i_glide_lignum>
1244

> <i_i_glide_rotatable_bonds>
6

> <r_i_docking_score>
-8.40935670938931

> <r_i_glide_ligand_efficiency>
-0.400445557589967

> <r_i_glide_ligand_efficiency_sa>
-1.10479892903818

> <r_i_glide_ligand_efficiency_ln>
-2.07919645369127

> <r_i_glide_gscore>
-8.40935670938931

> <r_i_glide_lipo>
-4.10846514752343

> <r_i_glide_hbond>
-0.32

> <r_i_glide_metal>
0

> <r_i_glide_rewards>
-2.36495583896888

> <r_i_glide_evdw>
-43.4321517944336

> <r_i_glide_ecoul>
-2.23742341995239

> <r_i_glide_erotb>
0.891285379817533

> <r_i_glide_esite>
0

> <r_i_glide_emodel>
-65.845163470853

> <r_i_glide_energy>
-45.669575214386

> <r_i_glide_einternal>
6.72199869155884

> <i_i_glide_confnum>
27

> <i_i_glide_posenum>
111

> <r_i_glide_eff_state_penalty>
0

> <s_user_duplicate_titles>
CHEMBL1994_lig818

> <s_m_subgroup_title>
dock_pv

> <s_m_subgroupid>
dock_pv

> <b_m_subgroup_collapsed>
1

$$$$
CHEMBL1994_lig1043
                    3D
 Schrodinger Suite 2021-1.
 37 39  0  0  1  0            999 V2000
   17.1822   72.1192   20.6423 C   0  0  0  0  0  0
   19.7330   72.7610   19.7690 C   0  0  0  0  0  0
   17.7946   71.3214   19.6850 C   0  0  0  0  0  0
   19.1110   71.5943   19.2825 C   0  0  0  0  0  0
   19.6986   70.6315   18.2973 C   0  0  0  0  0  0
   18.8790   69.7163   17.7100 C   0  0  0  0  0  0
   17.4594   69.5839   17.9769 C   0  0  0  0  0  0
   17.0499   70.3322   19.0174 N   0  0  0  0  0  0
   19.0084   73.6889   20.5298 C   0  0  0  0  0  0
   17.7357   73.3382   20.9893 C   0  0  0  0  0  0
   16.9115   74.2120   21.6713 O   0  0  0  0  0  0
   17.5871   75.2040   22.4484 C   0  0  2  0  0  0
   18.6171   75.9113   21.5488 C   0  0  0  0  0  0
   19.4475   74.9845   20.7652 N   0  0  0  0  0  0
   21.1615   70.7749   17.9003 C   0  0  0  0  0  0
   21.4233   70.1021   16.7858 F   0  0  0  0  0  0
   21.4404   72.0452   17.6700 F   0  0  0  0  0  0
   21.9426   70.3128   18.8701 F   0  0  0  0  0  0
   16.6768   68.9293   17.2975 O   0  0  0  0  0  0
   20.7873   75.5080   20.5587 C   0  0  0  0  0  0
   21.6943   75.2676   21.7436 C   0  0  0  0  0  0
   21.0907   75.3993   22.9218 F   0  0  0  0  0  0
   22.2407   74.0605   21.6696 F   0  0  0  0  0  0
   22.6406   76.1841   21.6693 F   0  0  0  0  0  0
   18.2152   74.6231   23.7326 C   0  0  0  0  0  0
   16.2419   71.8692   21.0671 H   0  0  0  0  0  0
   20.7388   73.0183   19.4934 H   0  0  0  0  0  0
   19.2730   69.0331   16.9724 H   0  0  0  0  0  0
   16.0628   70.2486   19.2275 H   0  0  0  0  0  0
   16.8146   75.9207   22.7314 H   0  0  0  0  0  0
   17.9198   76.2506   20.7786 H   0  0  0  0  0  0
   19.0363   76.8538   21.9016 H   0  0  0  0  0  0
   21.2562   75.0695   19.6729 H   0  0  0  0  0  0
   20.7246   76.5869   20.4195 H   0  0  0  0  0  0
   18.7744   75.3881   24.2680 H   0  0  0  0  0  0
   18.8935   73.7965   23.5240 H   0  0  0  0  0  0
   17.4487   74.2638   24.4185 H   0  0  0  0  0  0
  1  3  1  0  0  0
  1 10  2  0  0  0
  1 26  1  0  0  0
  2  9  2  0  0  0
  2  4  1  0  0  0
  2 27  1  0  0  0
  3  4  2  0  0  0
  3  8  1  0  0  0
  4  5  1  0  0  0
  5 15  1  0  0  0
  5  6  2  0  0  0
  6  7  1  0  0  0
  6 28  1  0  0  0
  7  8  1  0  0  0
  7 19  2  0  0  0
  8 29  1  0  0  0
  9 14  1  0  0  0
  9 10  1  0  0  0
 10 11  1  0  0  0
 11 12  1  0  0  0
 12 13  1  0  0  0
 12 25  1  0  0  0
 12 30  1  0  0  0
 13 14  1  0  0  0
 13 31  1  0  0  0
 13 32  1  0  0  0
 14 20  1  0  0  0
 15 16  1  0  0  0
 15 17  1  0  0  0
 15 18  1  0  0  0
 20 21  1  0  0  0
 20 33  1  0  0  0
 20 34  1  0  0  0
 21 22  1  0  0  0
 21 23  1  0  0  0
 21 24  1  0  0  0
 25 35  1  0  0  0
 25 36  1  0  0  0
 25 37  1  0  0  0
M  END
> <s_m_entry_id>
9657

> <s_m_entry_name>
dock_pv.97

> <s_m_Source_Path>
/home/csk/Desktop/cluster/DUD-E-result/mcr

> <s_m_Source_File>
dock_pv.maegz

> <i_m_Source_File_Index>
97

> <chembl_id>
CHEMBL227408

> <chembl_pref_name>
None

> <i_lp_mmshare_version>
53161

> <i_f3d_flags>
0

> <r_lp_tautomer_probability>
1

> <s_lp_Force_Field>
OPLS_2005

> <r_lp_Energy>
26.414843

> <b_lp_Chiralities_Consistent>
1

> <s_lp_Variant>
CHEMBL1994_lig1043-1

> <s_i_glide_gridfile>
glide-grid_2aa2

> <i_i_glide_lignum>
1506

> <i_i_glide_rotatable_bonds>
3

> <r_i_docking_score>
-8.40113447028478

> <r_i_glide_ligand_efficiency>
-0.336045378811391

> <r_i_glide_ligand_efficiency_sa>
-0.982602647434678

> <r_i_glide_ligand_efficiency_ln>
-1.99132063114165

> <r_i_glide_gscore>
-8.40113447028478

> <r_i_glide_lipo>
-3.5366291908705

> <r_i_glide_hbond>
-0.32

> <r_i_glide_metal>
0

> <r_i_glide_rewards>
-3.00624109945468

> <r_i_glide_evdw>
-26.411994934082

> <r_i_glide_ecoul>
-2.40754246711731

> <r_i_glide_erotb>
0.143466936812101

> <r_i_glide_esite>
0

> <r_i_glide_emodel>
-29.208507235424

> <r_i_glide_energy>
-28.8195374011993

> <r_i_glide_einternal>
5.13176012039185

> <i_i_glide_confnum>
6

> <i_i_glide_posenum>
168

> <r_i_glide_eff_state_penalty>
0

> <s_user_duplicate_titles>
CHEMBL1994_lig1043

> <s_m_subgroup_title>
dock_pv

> <s_m_subgroupid>
dock_pv

> <b_m_subgroup_collapsed>
1

$$$$
CHEMBL1994_lig34
                    3D
 Schrodinger Suite 2021-1.
 35 37  0  0  1  0            999 V2000
   18.7571   74.6074   20.9040 C   0  0  0  0  0  0
   19.2879   73.5138   20.0434 C   0  0  0  0  0  0
   20.6759   73.3785   19.9571 C   0  0  0  0  0  0
   17.2413   74.7529   21.1169 C   0  0  0  0  0  0
   21.5378   74.2363   20.6160 O   0  0  0  0  0  0
   21.0849   75.3436   21.2936 C   0  0  0  0  0  0
   19.6364   75.4596   21.4797 C   0  0  0  0  0  0
   20.4420   71.4317   18.5537 C   0  0  0  0  0  0
   19.0365   71.5617   18.5796 C   0  0  0  0  0  0
   18.4986   72.6282   19.3098 C   0  0  0  0  0  0
   21.2509   72.3569   19.2075 C   0  0  0  0  0  0
   21.0810   70.3953   17.8478 N   0  0  0  0  0  0
   21.9447   76.1312   21.6693 O   0  0  0  0  0  0
   18.1357   70.5546   17.8500 C   0  0  1  0  0  0
   16.9773   75.4617   22.2153 F   0  0  0  0  0  0
   16.7044   75.3742   20.0702 F   0  0  0  0  0  0
   16.6549   73.5672   21.2690 F   0  0  0  0  0  0
   20.2776   69.5664   16.9527 C   0  0  0  0  0  0
   18.9165   69.2571   17.5756 C   0  0  0  0  0  0
   16.7902   70.3103   18.5712 C   0  0  0  0  0  0
   16.0170   69.0728   18.0995 C   0  0  0  0  0  0
   19.2633   76.2679   22.0926 H   0  0  0  0  0  0
   17.4391   72.7593   19.3010 H   0  0  0  0  0  0
   22.3260   72.2561   19.1725 H   0  0  0  0  0  0
   22.0383   70.5372   17.5601 H   0  0  0  0  0  0
   17.8991   70.9933   16.8809 H   0  0  0  0  0  0
   20.1272   70.1792   16.0701 H   0  0  0  0  0  0
   20.7874   68.6666   16.6342 H   0  0  0  0  0  0
   18.3663   68.6054   16.8965 H   0  0  0  0  0  0
   19.0405   68.6907   18.4997 H   0  0  0  0  0  0
   16.9478   70.2631   19.6542 H   0  0  0  0  0  0
   16.1506   71.1758   18.4146 H   0  0  0  0  0  0
   15.0392   69.0605   18.5559 H   0  0  0  0  0  0
   15.8688   69.0622   17.0219 H   0  0  0  0  0  0
   16.5139   68.1482   18.3902 H   0  0  0  0  0  0
  1  2  1  0  0  0
  1  4  1  0  0  0
  1  7  2  0  0  0
  2  3  2  0  0  0
  2 10  1  0  0  0
  3 11  1  0  0  0
  3  5  1  0  0  0
  4 15  1  0  0  0
  4 16  1  0  0  0
  4 17  1  0  0  0
  5  6  1  0  0  0
  6  7  1  0  0  0
  6 13  2  0  0  0
  7 22  1  0  0  0
  8  9  1  0  0  0
  8 12  1  0  0  0
  8 11  2  0  0  0
  9 10  2  0  0  0
  9 14  1  0  0  0
 10 23  1  0  0  0
 11 24  1  0  0  0
 12 18  1  0  0  0
 12 25  1  0  0  0
 14 19  1  0  0  0
 14 20  1  0  0  0
 14 26  1  0  0  0
 18 19  1  0  0  0
 18 27  1  0  0  0
 18 28  1  0  0  0
 19 29  1  0  0  0
 19 30  1  0  0  0
 20 21  1  0  0  0
 20 31  1  0  0  0
 20 32  1  0  0  0
 21 33  1  0  0  0
 21 34  1  0  0  0
 21 35  1  0  0  0
M  END
> <s_m_entry_id>
9658

> <s_m_entry_name>
dock_pv.98

> <s_m_Source_Path>
/home/csk/Desktop/cluster/DUD-E-result/mcr

> <s_m_Source_File>
dock_pv.maegz

> <i_m_Source_File_Index>
98

> <chembl_id>
CHEMBL6843

> <chembl_pref_name>
None

> <i_lp_mmshare_version>
53161

> <i_f3d_flags>
0

> <r_lp_tautomer_probability>
1

> <s_lp_Force_Field>
OPLS_2005

> <r_lp_Energy>
18.48839

> <b_lp_Chiralities_Consistent>
1

> <s_lp_Variant>
CHEMBL1994_lig34-2

> <s_i_glide_gridfile>
glide-grid_2aa2

> <i_i_glide_lignum>
37

> <i_i_glide_rotatable_bonds>
2

> <r_i_docking_score>
-8.37726812725221

> <r_i_glide_ligand_efficiency>
-0.398917529869153

> <r_i_glide_ligand_efficiency_sa>
-1.10058321642133

> <r_i_glide_ligand_efficiency_ln>
-2.07126261659896

> <r_i_glide_gscore>
-8.37726812725221

> <r_i_glide_lipo>
-4.14016040130525

> <r_i_glide_hbond>
0

> <r_i_glide_metal>
0

> <r_i_glide_rewards>
-2.47161511531359

> <r_i_glide_evdw>
-34.8426742553711

> <r_i_glide_ecoul>
-0.155725985765457

> <r_i_glide_erotb>
0

> <r_i_glide_esite>
0

> <r_i_glide_emodel>
-47.7523167461155

> <r_i_glide_energy>
-34.9984002411366

> <r_i_glide_einternal>
4.15421533584595

> <i_i_glide_confnum>
1

> <i_i_glide_posenum>
322

> <r_i_glide_eff_state_penalty>
0

> <s_user_duplicate_titles>
CHEMBL1994_lig34

> <s_m_subgroup_title>
dock_pv

> <s_m_subgroupid>
dock_pv

> <b_m_subgroup_collapsed>
1

$$$$
CHEMBL1994_lig1092
                    3D
 Schrodinger Suite 2021-1.
 44 46  0  0  1  0            999 V2000
   18.9221   73.3025   21.0188 C   0  0  0  0  0  0
   17.6636   72.7894   21.2828 C   0  0  0  0  0  0
   17.1696   71.7478   20.5508 C   0  0  0  0  0  0
   19.7092   72.6652   20.0522 C   0  0  0  0  0  0
   19.2085   71.6142   19.2655 C   0  0  0  0  0  0
   17.8691   71.2586   19.4731 C   0  0  0  0  0  0
   17.2105   70.3331   18.6680 N   0  0  0  0  0  0
   17.9544   69.2506   18.0498 C   0  0  0  0  0  0
   19.2620   69.8443   17.4014 C   0  0  0  0  0  0
   20.0802   70.9212   18.2080 C   0  0  0  0  0  0
   19.3723   74.3996   21.9024 C   0  0  0  0  0  0
   18.5987   75.2701   22.6990 C   0  0  0  0  0  0
   19.3307   75.8620   23.5951 N   0  0  0  0  0  0
   20.6441   75.5547   23.2700 O   0  0  0  0  0  0
   20.6565   74.8383   22.1372 C   0  0  0  0  0  0
   17.1204   75.5765   22.7260 C   0  0  0  0  0  0
   22.0095   74.6624   21.5152 C   0  0  0  0  0  0
   20.6321   72.0094   17.2700 C   0  0  0  0  0  0
   21.2689   70.1977   18.8701 C   0  0  0  0  0  0
   19.6431   69.4620   16.2930 O   0  0  0  0  0  0
   18.2737   68.2479   19.1687 C   0  0  0  0  0  0
   17.0023   68.6657   16.9875 C   0  0  0  0  0  0
   17.0412   73.1575   22.0701 H   0  0  0  0  0  0
   16.2410   71.3283   20.8429 H   0  0  0  0  0  0
   20.7253   72.9710   19.8919 H   0  0  0  0  0  0
   16.2732   70.0683   18.9392 H   0  0  0  0  0  0
   16.6056   75.3010   21.8061 H   0  0  0  0  0  0
   16.6410   75.0620   23.5541 H   0  0  0  0  0  0
   16.9310   76.6406   22.8700 H   0  0  0  0  0  0
   21.9738   74.5016   20.4460 H   0  0  0  0  0  0
   22.6064   75.5656   21.6476 H   0  0  0  0  0  0
   22.5767   73.8620   21.9778 H   0  0  0  0  0  0
   19.8844   72.7644   17.0318 H   0  0  0  0  0  0
   21.4447   72.5648   17.7374 H   0  0  0  0  0  0
   21.0409   71.6095   16.3456 H   0  0  0  0  0  0
   20.9663   69.5602   19.7009 H   0  0  0  0  0  0
   21.8261   69.5807   18.1620 H   0  0  0  0  0  0
   21.9875   70.9113   19.2700 H   0  0  0  0  0  0
   18.7106   67.3482   18.7467 H   0  0  0  0  0  0
   18.9415   68.6344   19.9380 H   0  0  0  0  0  0
   17.3906   67.8700   19.6699 H   0  0  0  0  0  0
   17.5138   68.0414   16.2551 H   0  0  0  0  0  0
   16.2410   68.0424   17.4573 H   0  0  0  0  0  0
   16.4549   69.4490   16.4700 H   0  0  0  0  0  0
  1  2  2  0  0  0
  1  4  1  0  0  0
  1 11  1  0  0  0
  2  3  1  0  0  0
  2 23  1  0  0  0
  3  6  2  0  0  0
  3 24  1  0  0  0
  4  5  2  0  0  0
  4 25  1  0  0  0
  5  6  1  0  0  0
  5 10  1  0  0  0
  6  7  1  0  0  0
  7  8  1  0  0  0
  7 26  1  0  0  0
  8  9  1  0  0  0
  8 21  1  0  0  0
  8 22  1  0  0  0
  9 10  1  0  0  0
  9 20  2  0  0  0
 10 18  1  0  0  0
 10 19  1  0  0  0
 11 12  1  0  0  0
 11 15  2  0  0  0
 12 13  2  0  0  0
 12 16  1  0  0  0
 13 14  1  0  0  0
 14 15  1  0  0  0
 15 17  1  0  0  0
 16 27  1  0  0  0
 16 28  1  0  0  0
 16 29  1  0  0  0
 17 30  1  0  0  0
 17 31  1  0  0  0
 17 32  1  0  0  0
 18 33  1  0  0  0
 18 34  1  0  0  0
 18 35  1  0  0  0
 19 36  1  0  0  0
 19 37  1  0  0  0
 19 38  1  0  0  0
 21 39  1  0  0  0
 21 40  1  0  0  0
 21 41  1  0  0  0
 22 42  1  0  0  0
 22 43  1  0  0  0
 22 44  1  0  0  0
M  END
> <s_m_entry_id>
9659

> <s_m_entry_name>
dock_pv.99

> <s_m_Source_Path>
/home/csk/Desktop/cluster/DUD-E-result/mcr

> <s_m_Source_File>
dock_pv.maegz

> <i_m_Source_File_Index>
99

> <chembl_id>
CHEMBL3582109

> <chembl_pref_name>
None

> <i_lp_mmshare_version>
53161

> <i_f3d_flags>
0

> <r_lp_tautomer_probability>
1

> <s_lp_Force_Field>
OPLS_2005

> <r_lp_Energy>
24.423689

> <b_lp_Chiralities_Consistent>
1

> <s_lp_Variant>
CHEMBL1994_lig1092-1

> <s_i_glide_gridfile>
glide-grid_2aa2

> <i_i_glide_lignum>
1578

> <i_i_glide_rotatable_bonds>
1

> <r_i_docking_score>
-8.37537919825538

> <r_i_glide_ligand_efficiency>
-0.380699054466154

> <r_i_glide_ligand_efficiency_sa>
-1.06673372265837

> <r_i_glide_ligand_efficiency_ln>
-2.04724817543266

> <r_i_glide_gscore>
-8.37537919825538

> <r_i_glide_lipo>
-3.79024589013956

> <r_i_glide_hbond>
-0.169150870494862

> <r_i_glide_metal>
0

> <r_i_glide_rewards>
-2.70621091243591

> <r_i_glide_evdw>
-29.4557762145996

> <r_i_glide_ecoul>
-2.95395493507385

> <r_i_glide_erotb>
0.206110525806006

> <r_i_glide_esite>
0

> <r_i_glide_emodel>
-31.1620650781877

> <r_i_glide_energy>
-32.4097311496735

> <r_i_glide_einternal>
2.77930688858032

> <i_i_glide_confnum>
1

> <i_i_glide_posenum>
95

> <r_i_glide_eff_state_penalty>
0

> <s_user_duplicate_titles>
CHEMBL1994_lig1092

> <s_m_subgroup_title>
dock_pv

> <s_m_subgroupid>
dock_pv

> <b_m_subgroup_collapsed>
1

$$$$
CHEMBL1994_lig383
                    3D
 Schrodinger Suite 2021-1.
 47 50  0  0  1  0            999 V2000
   21.0312   70.9815   17.6411 C   0  0  0  0  0  0
   20.2154   69.8644   17.5325 C   0  0  0  0  0  0
   19.2781   69.5616   18.5184 C   0  0  0  0  0  0
   20.8613   71.8921   18.6799 C   0  0  0  0  0  0
   19.9098   71.6217   19.6864 C   0  0  0  0  0  0
   19.2352   70.3806   19.6411 C   0  0  0  0  0  0
   18.5205   70.2661   20.8086 N   0  0  0  0  0  0
   18.5309   71.4602   21.4628 C   0  0  0  0  0  0
   19.2868   72.3808   20.7520 C   0  0  0  0  0  0
   18.3655   68.5381   18.3394 N   0  0  0  0  0  0
   16.8190   68.9499   17.6435 S   0  0  0  0  0  0
   16.5902   70.7898   17.9610 C   0  0  0  0  0  0
   16.9271   68.6620   16.2091 O   0  0  0  0  0  0
   15.8412   68.2620   18.4696 O   0  0  0  0  0  0
   19.3289   73.9002   20.9002 C   0  0  1  0  0  0
   18.4440   74.4305   22.0668 C   0  0  0  0  0  0
   20.8075   74.3884   21.0610 C   0  0  0  0  0  0
   18.7928   74.3871   19.5292 C   0  0  0  0  0  0
   21.1942   75.8507   20.9854 C   0  0  0  0  0  0
   21.3176   75.1035   22.2911 C   0  0  0  0  0  0
   17.5176   75.4632   21.8703 C   0  0  0  0  0  0
   16.9121   76.0946   22.9496 C   0  0  0  0  0  0
   17.1780   75.6928   24.2358 C   0  0  0  0  0  0
   18.0658   74.6578   24.4685 C   0  0  0  0  0  0
   18.6466   73.9960   23.3885 C   0  0  0  0  0  0
   19.4385   72.9404   23.6440 F   0  0  0  0  0  0
   16.4880   76.2625   25.2350 F   0  0  0  0  0  0
   21.7575   71.1736   16.8675 H   0  0  0  0  0  0
   20.3029   69.2258   16.6628 H   0  0  0  0  0  0
   21.4234   72.8126   18.6667 H   0  0  0  0  0  0
   17.9500   69.4888   21.1066 H   0  0  0  0  0  0
   17.8977   71.5856   22.3306 H   0  0  0  0  0  0
   18.2522   67.9522   19.1549 H   0  0  0  0  0  0
   15.5798   71.0618   17.6708 H   0  0  0  0  0  0
   16.6781   70.9793   19.0283 H   0  0  0  0  0  0
   17.3396   71.3557   17.4090 H   0  0  0  0  0  0
   21.5225   73.6992   20.6164 H   0  0  0  0  0  0
   17.7854   74.0197   19.3335 H   0  0  0  0  0  0
   18.7499   75.4607   19.4990 H   0  0  0  0  0  0
   19.4139   74.0857   18.6870 H   0  0  0  0  0  0
   22.1056   76.1445   20.4739 H   0  0  0  0  0  0
   20.3993   76.5867   20.8775 H   0  0  0  0  0  0
   20.6930   75.4432   23.1087 H   0  0  0  0  0  0
   22.2409   74.6836   22.6604 H   0  0  0  0  0  0
   17.2728   75.8489   20.8957 H   0  0  0  0  0  0
   16.2418   76.9269   22.8648 H   0  0  0  0  0  0
   18.2493   74.3110   25.4715 H   0  0  0  0  0  0
  1  2  2  0  0  0
  1  4  1  0  0  0
  1 28  1  0  0  0
  2  3  1  0  0  0
  2 29  1  0  0  0
  3  6  2  0  0  0
  3 10  1  0  0  0
  4  5  2  0  0  0
  4 30  1  0  0  0
  5  9  1  0  0  0
  5  6  1  0  0  0
  6  7  1  0  0  0
  7  8  1  0  0  0
  7 31  1  0  0  0
  8  9  2  0  0  0
  8 32  1  0  0  0
  9 15  1  0  0  0
 10 11  1  0  0  0
 10 33  1  0  0  0
 11 13  2  0  0  0
 11 14  2  0  0  0
 11 12  1  0  0  0
 12 34  1  0  0  0
 12 35  1  0  0  0
 12 36  1  0  0  0
 15 16  1  0  0  0
 15 17  1  0  0  0
 15 18  1  0  0  0
 16 21  2  0  0  0
 16 25  1  0  0  0
 17 19  1  0  0  0
 17 20  1  0  0  0
 17 37  1  0  0  0
 18 38  1  0  0  0
 18 39  1  0  0  0
 18 40  1  0  0  0
 19 20  1  0  0  0
 19 41  1  0  0  0
 19 42  1  0  0  0
 20 43  1  0  0  0
 20 44  1  0  0  0
 21 22  1  0  0  0
 21 45  1  0  0  0
 22 23  2  0  0  0
 22 46  1  0  0  0
 23 24  1  0  0  0
 23 27  1  0  0  0
 24 25  2  0  0  0
 24 47  1  0  0  0
 25 26  1  0  0  0
M  END
> <s_m_entry_id>
9660

> <s_m_entry_name>
dock_pv.100

> <s_m_Source_Path>
/home/csk/Desktop/cluster/DUD-E-result/mcr

> <s_m_Source_File>
dock_pv.maegz

> <i_m_Source_File_Index>
100

> <chembl_id>
CHEMBL235206

> <chembl_pref_name>
None

> <i_lp_mmshare_version>
53161

> <i_f3d_flags>
0

> <r_lp_tautomer_probability>
1

> <s_lp_Force_Field>
OPLS_2005

> <r_lp_Energy>
20.070734

> <b_lp_Chiralities_Consistent>
1

> <s_lp_Variant>
CHEMBL1994_lig383-1

> <s_i_glide_gridfile>
glide-grid_2aa2

> <i_i_glide_lignum>
629

> <i_i_glide_rotatable_bonds>
5

> <r_i_docking_score>
-8.35980744774881

> <r_i_glide_ligand_efficiency>
-0.309622498064771

> <r_i_glide_ligand_efficiency_sa>
-0.928867493173848

> <r_i_glide_ligand_efficiency_ln>
-1.94602535163876

> <r_i_glide_gscore>
-8.35980744774881

> <r_i_glide_lipo>
-4.9010509005074

> <r_i_glide_hbond>
0

> <r_i_glide_metal>
0

> <r_i_glide_rewards>
-2.18255865494735

> <r_i_glide_evdw>
-25.551664352417

> <r_i_glide_ecoul>
-2.93593692779541

> <r_i_glide_erotb>
0.511764660619484

> <r_i_glide_esite>
-0.069988796123384

> <r_i_glide_emodel>
-23.9358024487783

> <r_i_glide_energy>
-28.4876012802124

> <r_i_glide_einternal>
19.515962600708

> <i_i_glide_confnum>
34

> <i_i_glide_posenum>
12

> <r_i_glide_eff_state_penalty>
0

> <s_user_duplicate_titles>
CHEMBL1994_lig383,398778

> <s_m_subgroup_title>
dock_pv

> <s_m_subgroupid>
dock_pv

> <b_m_subgroup_collapsed>
1

$$$$
CHEMBL1994_lig746
                    3D
 Schrodinger Suite 2021-1.
 34 36  0  0  1  0            999 V2000
   16.9051   68.8237   17.1401 C   0  0  0  0  0  0
   18.3478   68.6633   16.5784 C   0  0  0  0  0  0
   19.2385   69.4788   17.1778 N   0  0  0  0  0  0
   16.8015   69.3571   18.4715 O   0  0  0  0  0  0
   17.7461   70.2797   18.8690 C   0  0  0  0  0  0
   18.9843   70.3557   18.2327 C   0  0  0  0  0  0
   19.9314   71.2886   18.6793 C   0  0  0  0  0  0
   19.6422   72.1009   19.7914 C   0  0  0  0  0  0
   18.4348   71.9365   20.4689 C   0  0  0  0  0  0
   17.4766   71.0620   19.9886 C   0  0  0  0  0  0
   18.6408   67.8905   15.6701 O   0  0  0  0  0  0
   20.5884   73.1995   20.2550 C   0  0  0  0  0  0
   19.9605   74.6109   20.1504 C   0  0  0  0  0  0
   18.9816   75.0210   21.2550 C   0  0  0  0  0  0
   17.6060   75.0618   20.9911 C   0  0  0  0  0  0
   16.7096   75.4619   21.9815 C   0  0  0  0  0  0
   17.1787   75.8620   23.2300 C   0  0  0  0  0  0
   18.5439   75.8337   23.4986 C   0  0  0  0  0  0
   19.4438   75.4067   22.5203 C   0  0  0  0  0  0
   20.7671   75.3879   22.7982 F   0  0  0  0  0  0
   16.3077   76.2630   24.1813 F   0  0  0  0  0  0
   16.4074   67.8622   17.1110 H   0  0  0  0  0  0
   16.3470   69.4682   16.4701 H   0  0  0  0  0  0
   20.1687   69.4286   16.7918 H   0  0  0  0  0  0
   20.8781   71.3881   18.1676 H   0  0  0  0  0  0
   18.2154   72.5037   21.3599 H   0  0  0  0  0  0
   16.5547   70.9754   20.5297 H   0  0  0  0  0  0
   21.4877   73.1685   19.6393 H   0  0  0  0  0  0
   20.9293   73.0021   21.2700 H   0  0  0  0  0  0
   19.4410   74.6631   19.1916 H   0  0  0  0  0  0
   20.7535   75.3589   20.1169 H   0  0  0  0  0  0
   17.2282   74.7770   20.0202 H   0  0  0  0  0  0
   15.6483   75.4725   21.7815 H   0  0  0  0  0  0
   18.8936   76.1472   24.4698 H   0  0  0  0  0  0
  1  2  1  0  0  0
  1  4  1  0  0  0
  1 22  1  0  0  0
  1 23  1  0  0  0
  2  3  1  0  0  0
  2 11  2  0  0  0
  3  6  1  0  0  0
  3 24  1  0  0  0
  4  5  1  0  0  0
  5  6  2  0  0  0
  5 10  1  0  0  0
  6  7  1  0  0  0
  7  8  2  0  0  0
  7 25  1  0  0  0
  8  9  1  0  0  0
  8 12  1  0  0  0
  9 10  2  0  0  0
  9 26  1  0  0  0
 10 27  1  0  0  0
 12 13  1  0  0  0
 12 28  1  0  0  0
 12 29  1  0  0  0
 13 14  1  0  0  0
 13 30  1  0  0  0
 13 31  1  0  0  0
 14 15  2  0  0  0
 14 19  1  0  0  0
 15 16  1  0  0  0
 15 32  1  0  0  0
 16 17  2  0  0  0
 16 33  1  0  0  0
 17 18  1  0  0  0
 17 21  1  0  0  0
 18 19  2  0  0  0
 18 34  1  0  0  0
 19 20  1  0  0  0
M  END
> <s_m_entry_id>
9661

> <s_m_entry_name>
dock_pv.101

> <s_m_Source_Path>
/home/csk/Desktop/cluster/DUD-E-result/mcr

> <s_m_Source_File>
dock_pv.maegz

> <i_m_Source_File_Index>
101

> <chembl_id>
CHEMBL3775710

> <chembl_pref_name>
None

> <i_lp_mmshare_version>
53161

> <i_f3d_flags>
0

> <r_lp_tautomer_probability>
1

> <s_lp_Force_Field>
OPLS_2005

> <r_lp_Energy>
18.757895

> <b_lp_Chiralities_Consistent>
1

> <s_lp_Variant>
CHEMBL1994_lig746-1

> <s_i_glide_gridfile>
glide-grid_2aa2

> <i_i_glide_lignum>
1160

> <i_i_glide_rotatable_bonds>
3

> <r_i_docking_score>
-8.35809274122757

> <r_i_glide_ligand_efficiency>
-0.398004416248932

> <r_i_glide_ligand_efficiency_sa>
-1.09806400518127

> <r_i_glide_ligand_efficiency_ln>
-2.06652154115188

> <r_i_glide_gscore>
-8.35809274122757

> <r_i_glide_lipo>
-3.73758657597179

> <r_i_glide_hbond>
-0.0963317505152563

> <r_i_glide_metal>
0

> <r_i_glide_rewards>
-2.85304546687528

> <r_i_glide_evdw>
-36.9198608398438

> <r_i_glide_ecoul>
-3.11205792427063

> <r_i_glide_erotb>
0.652702696019072

> <r_i_glide_esite>
-0.0110299132515339

> <r_i_glide_emodel>
-57.8226598370098

> <r_i_glide_energy>
-40.0319187641144

> <r_i_glide_einternal>
1.03445160388947

> <i_i_glide_confnum>
46

> <i_i_glide_posenum>
58

> <r_i_glide_eff_state_penalty>
0

> <s_user_duplicate_titles>
CHEMBL1994_lig746

> <s_m_subgroup_title>
dock_pv

> <s_m_subgroupid>
dock_pv

> <b_m_subgroup_collapsed>
1

$$$$
CHEMBL1994_lig1121
                    3D
 Schrodinger Suite 2021-1.
 49 51  0  0  1  0            999 V2000
   16.7103   77.4376   23.8538 O   0  0  0  0  0  0
   17.1094   76.1551   23.2713 S   0  0  0  0  0  0
   16.2354   75.4622   22.3261 O   0  0  0  0  0  0
   21.4354   71.3105   18.9738 C   0  0  0  0  0  0
   20.1273   70.8291   19.6945 C   0  0  0  0  0  0
   20.4466   69.6703   20.6993 C   0  0  0  0  0  0
   21.6374   75.2167   20.8728 C   0  0  0  0  0  0
   20.6033   76.0196   21.2703 C   0  0  0  0  0  0
   19.3913   75.5159   21.7303 C   0  0  0  0  0  0
   21.4340   73.8652   20.7291 C   0  0  0  0  0  0
   20.1437   73.3058   20.8645 C   0  0  0  0  0  0
   19.1465   74.1516   21.4568 C   0  0  0  0  0  0
   18.0617   73.3366   21.6774 N   0  0  0  0  0  0
   18.3075   72.0804   21.1890 C   0  0  0  0  0  0
   19.5271   72.0211   20.5223 C   0  0  0  0  0  0
   19.2331   70.2358   18.5684 C   0  0  0  0  0  0
   19.3467   68.6138   20.9107 C   0  0  0  0  0  0
   21.1926   72.4017   17.9117 C   0  0  0  0  0  0
   19.8547   69.4633   17.5682 C   0  0  0  0  0  0
   19.1438   68.8091   16.6076 C   0  0  0  0  0  0
   17.7862   68.9253   16.6206 C   0  0  0  0  0  0
   17.0979   69.6607   17.5823 C   0  0  0  0  0  0
   17.8319   70.3373   18.5494 C   0  0  0  0  0  0
   18.6119   76.4500   22.4215 N   0  0  0  0  0  0
   17.6404   75.0237   24.6701 C   0  0  0  0  0  0
   17.0344   68.2620   15.2700 Cl  0  0  0  0  0  0
   22.1735   71.6253   19.6698 H   0  0  0  0  0  0
   22.0287   70.5120   18.5399 H   0  0  0  0  0  0
   21.3537   69.1364   20.4191 H   0  0  0  0  0  0
   20.6443   70.0915   21.6850 H   0  0  0  0  0  0
   22.6022   75.6537   20.6641 H   0  0  0  0  0  0
   20.8038   77.0750   21.2702 H   0  0  0  0  0  0
   22.3112   73.3203   20.4691 H   0  0  0  0  0  0
   17.1861   73.5929   22.1240 H   0  0  0  0  0  0
   17.5380   71.3309   21.3114 H   0  0  0  0  0  0
   19.6754   67.8648   21.6400 H   0  0  0  0  0  0
   18.4502   69.0974   21.2832 H   0  0  0  0  0  0
   19.0552   68.0768   20.0088 H   0  0  0  0  0  0
   22.0438   73.0710   17.8678 H   0  0  0  0  0  0
   21.0365   71.9709   16.9230 H   0  0  0  0  0  0
   20.3241   73.0222   18.1287 H   0  0  0  0  0  0
   20.9117   69.2901   17.5107 H   0  0  0  0  0  0
   19.6373   68.2293   15.8446 H   0  0  0  0  0  0
   16.0217   69.7482   17.5510 H   0  0  0  0  0  0
   17.2754   70.9127   19.2653 H   0  0  0  0  0  0
   19.0357   77.3451   22.6064 H   0  0  0  0  0  0
   16.7660   74.7584   25.2567 H   0  0  0  0  0  0
   18.1037   74.1276   24.2662 H   0  0  0  0  0  0
   18.3451   75.5584   25.2978 H   0  0  0  0  0  0
  1  2  2  0  0  0
  2  3  2  0  0  0
  2 24  1  0  0  0
  2 25  1  0  0  0
  4  5  1  0  0  0
  4 18  1  0  0  0
  4 27  1  0  0  0
  4 28  1  0  0  0
  5  6  1  0  0  0
  5 15  1  0  0  0
  5 16  1  0  0  0
  6 17  1  0  0  0
  6 29  1  0  0  0
  6 30  1  0  0  0
  7  8  2  0  0  0
  7 10  1  0  0  0
  7 31  1  0  0  0
  8  9  1  0  0  0
  8 32  1  0  0  0
  9 12  2  0  0  0
  9 24  1  0  0  0
 10 11  2  0  0  0
 10 33  1  0  0  0
 11 12  1  0  0  0
 11 15  1  0  0  0
 12 13  1  0  0  0
 13 14  1  0  0  0
 13 34  1  0  0  0
 14 15  2  0  0  0
 14 35  1  0  0  0
 16 19  2  0  0  0
 16 23  1  0  0  0
 17 36  1  0  0  0
 17 37  1  0  0  0
 17 38  1  0  0  0
 18 39  1  0  0  0
 18 40  1  0  0  0
 18 41  1  0  0  0
 19 20  1  0  0  0
 19 42  1  0  0  0
 20 21  2  0  0  0
 20 43  1  0  0  0
 21 22  1  0  0  0
 21 26  1  0  0  0
 22 23  2  0  0  0
 22 44  1  0  0  0
 23 45  1  0  0  0
 24 46  1  0  0  0
 25 47  1  0  0  0
 25 48  1  0  0  0
 25 49  1  0  0  0
M  END
> <s_m_entry_id>
9662

> <s_m_entry_name>
dock_pv.102

> <s_m_Source_Path>
/home/csk/Desktop/cluster/DUD-E-result/mcr

> <s_m_Source_File>
dock_pv.maegz

> <i_m_Source_File_Index>
102

> <chembl_id>
CHEMBL4074653

> <chembl_pref_name>
None

> <i_lp_mmshare_version>
53161

> <i_f3d_flags>
0

> <r_lp_tautomer_probability>
1

> <s_lp_Force_Field>
OPLS_2005

> <r_lp_Energy>
12.879674

> <b_lp_Chiralities_Consistent>
1

> <s_lp_Variant>
CHEMBL1994_lig1121-1

> <s_i_glide_gridfile>
glide-grid_2aa2

> <i_i_glide_lignum>
1607

> <i_i_glide_rotatable_bonds>
6

> <r_i_docking_score>
-8.34454903341343

> <r_i_glide_ligand_efficiency>
-0.320944193592824

> <r_i_glide_ligand_efficiency_sa>
-0.950795910664321

> <r_i_glide_ligand_efficiency_ln>
-1.95968995979849

> <r_i_glide_gscore>
-8.34454903341343

> <r_i_glide_lipo>
-4.90292831517414

> <r_i_glide_hbond>
-0.178205815153907

> <r_i_glide_metal>
0

> <r_i_glide_rewards>
-1.97778411492013

> <r_i_glide_evdw>
-25.1135807037354

> <r_i_glide_ecoul>
-2.64169764518738

> <r_i_glide_erotb>
0.382977902783849

> <r_i_glide_esite>
-0.0166750089842291

> <r_i_glide_emodel>
-33.5693715017132

> <r_i_glide_energy>
-27.7552783489227

> <r_i_glide_einternal>
22.0969944000244

> <i_i_glide_confnum>
41

> <i_i_glide_posenum>
344

> <r_i_glide_eff_state_penalty>
0

> <s_user_duplicate_titles>
CHEMBL1994_lig1121

> <s_m_subgroup_title>
dock_pv

> <s_m_subgroupid>
dock_pv

> <b_m_subgroup_collapsed>
1

$$$$
CHEMBL1994_lig824
                    3D
 Schrodinger Suite 2021-1.
 36 37  0  0  1  0            999 V2000
   19.0413   67.3405   16.3381 N   0  0  0  0  0  0
   18.7132   68.6176   16.4642 C   0  0  0  0  0  0
   19.0980   69.4611   15.6742 O   0  0  0  0  0  0
   18.0588   68.8782   17.5971 N   0  0  0  0  0  0
   18.3050   69.9610   18.4467 C   0  0  0  0  0  0
   19.5517   70.6011   18.5519 C   0  0  0  0  0  0
   19.7602   71.4739   19.6261 C   0  0  0  0  0  0
   21.0406   72.2860   19.7345 C   0  0  0  0  0  0
   20.8241   73.7655   19.4179 C   0  0  0  0  0  0
   19.9810   74.4608   20.4700 C   0  0  0  0  0  0
   20.5551   74.8099   21.6924 C   0  0  0  0  0  0
   19.7530   75.3293   22.6975 C   0  0  0  0  0  0
   18.3861   75.5083   22.4753 C   0  0  0  0  0  0
   17.8211   75.1786   21.2400 C   0  0  0  0  0  0
   18.6213   74.6621   20.2331 C   0  0  0  0  0  0
   17.5252   76.0683   23.5884 C   0  0  0  0  0  0
   16.2370   75.9039   23.3330 F   0  0  0  0  0  0
   17.8058   75.4619   24.7443 F   0  0  0  0  0  0
   17.7567   77.3748   23.6699 F   0  0  0  0  0  0
   18.7472   71.6373   20.5768 C   0  0  0  0  0  0
   17.5054   71.0714   20.3285 C   0  0  0  0  0  0
   17.2783   70.2621   19.2694 N   0  0  0  0  0  0
   18.5889   66.6523   16.9345 H   0  0  0  0  0  0
   19.9002   67.1167   15.8442 H   0  0  0  0  0  0
   17.4673   68.1556   17.9801 H   0  0  0  0  0  0
   20.3502   70.3977   17.8534 H   0  0  0  0  0  0
   21.4309   72.2619   20.7471 H   0  0  0  0  0  0
   21.8160   71.8638   19.0935 H   0  0  0  0  0  0
   21.7791   74.2736   19.4017 H   0  0  0  0  0  0
   20.3922   73.8621   18.4204 H   0  0  0  0  0  0
   21.6081   74.6486   21.8764 H   0  0  0  0  0  0
   20.1919   75.5856   23.6510 H   0  0  0  0  0  0
   16.7652   75.3156   21.0543 H   0  0  0  0  0  0
   18.1796   74.3868   19.2860 H   0  0  0  0  0  0
   18.8860   72.2572   21.4503 H   0  0  0  0  0  0
   16.6770   71.2389   21.0012 H   0  0  0  0  0  0
  1  2  1  0  0  0
  1 23  1  0  0  0
  1 24  1  0  0  0
  2  3  2  0  0  0
  2  4  1  0  0  0
  4  5  1  0  0  0
  4 25  1  0  0  0
  5  6  2  0  0  0
  5 22  1  0  0  0
  6  7  1  0  0  0
  6 26  1  0  0  0
  7  8  1  0  0  0
  7 20  2  0  0  0
  8  9  1  0  0  0
  8 27  1  0  0  0
  8 28  1  0  0  0
  9 10  1  0  0  0
  9 29  1  0  0  0
  9 30  1  0  0  0
 10 11  2  0  0  0
 10 15  1  0  0  0
 11 12  1  0  0  0
 11 31  1  0  0  0
 12 13  2  0  0  0
 12 32  1  0  0  0
 13 14  1  0  0  0
 13 16  1  0  0  0
 14 15  2  0  0  0
 14 33  1  0  0  0
 15 34  1  0  0  0
 16 17  1  0  0  0
 16 18  1  0  0  0
 16 19  1  0  0  0
 20 21  1  0  0  0
 20 35  1  0  0  0
 21 22  2  0  0  0
 21 36  1  0  0  0
M  END
> <s_m_entry_id>
9663

> <s_m_entry_name>
dock_pv.103

> <s_m_Source_Path>
/home/csk/Desktop/cluster/DUD-E-result/mcr

> <s_m_Source_File>
dock_pv.maegz

> <i_m_Source_File_Index>
103

> <chembl_id>
CHEMBL3643689

> <chembl_pref_name>
None

> <i_lp_mmshare_version>
53161

> <i_f3d_flags>
0

> <r_lp_tautomer_probability>
1

> <s_lp_Force_Field>
OPLS_2005

> <r_lp_Energy>
7.143769

> <b_lp_Chiralities_Consistent>
1

> <s_lp_Variant>
CHEMBL1994_lig824-1

> <s_i_glide_gridfile>
glide-grid_2aa2

> <i_i_glide_lignum>
1250

> <i_i_glide_rotatable_bonds>
6

> <r_i_docking_score>
-8.33075507259048

> <r_i_glide_ligand_efficiency>
-0.378670685117749

> <r_i_glide_ligand_efficiency_sa>
-1.0610501519729

> <r_i_glide_ligand_efficiency_ln>
-2.03634041141563

> <r_i_glide_gscore>
-8.33075507259048

> <r_i_glide_lipo>
-3.65845778560844

> <r_i_glide_hbond>
-0.661092519890468

> <r_i_glide_metal>
0

> <r_i_glide_rewards>
-2.20556008243639

> <r_i_glide_evdw>
-27.4513912200928

> <r_i_glide_ecoul>
-7.160231590271

> <r_i_glide_erotb>
0.774172989027991

> <r_i_glide_esite>
-0.133213374137886

> <r_i_glide_emodel>
-43.6662840345808

> <r_i_glide_energy>
-34.6116228103638

> <r_i_glide_einternal>
8.45199394226074

> <i_i_glide_confnum>
121

> <i_i_glide_posenum>
344

> <r_i_glide_eff_state_penalty>
0

> <s_user_duplicate_titles>
CHEMBL1994_lig824

> <s_m_subgroup_title>
dock_pv

> <s_m_subgroupid>
dock_pv

> <b_m_subgroup_collapsed>
1

$$$$
CHEMBL1994_lig15
                    3D
 Schrodinger Suite 2021-1.
 37 40  0  0  1  0            999 V2000
   19.8349   70.5440   18.1837 C   0  0  0  0  0  0
   19.4032   71.2379   19.3512 C   0  0  0  0  0  0
   18.4733   72.3884   21.7105 C   0  0  0  0  0  0
   18.0621   71.0083   19.7743 C   0  0  0  0  0  0
   19.6914   72.7863   21.2135 C   0  0  0  0  0  0
   18.2410   73.0084   22.9177 N   0  0  0  0  0  0
   21.2511   70.7482   17.6915 C   0  0  0  0  0  0
   17.1947   70.2619   19.0415 N   0  0  0  0  0  0
   17.6133   69.6367   17.9200 C   0  0  0  0  0  0
   20.2062   72.1597   20.0952 C   0  0  0  0  0  0
   18.9273   69.7463   17.4799 C   0  0  0  0  0  0
   17.6221   71.5546   20.9991 C   0  0  0  0  0  0
   20.2114   73.9633   22.0103 C   0  0  2  0  0  0
   19.3195   73.9012   23.2700 C   0  0  1  0  0  0
   16.7894   68.8624   17.1543 O   0  0  0  0  0  0
   21.4407   70.2626   16.4700 F   0  0  0  0  0  0
   21.4411   72.0590   17.6694 F   0  0  0  0  0  0
   22.1318   70.1858   18.5160 F   0  0  0  0  0  0
   20.0789   75.3163   21.2703 C   0  0  0  0  0  0
   18.7687   75.2554   23.7535 C   0  0  0  0  0  0
   18.6386   75.8795   21.2830 C   0  0  0  0  0  0
   17.9617   75.9672   22.6682 C   0  0  0  0  0  0
   21.2507   73.8619   22.3232 H   0  0  0  0  0  0
   19.8728   73.4236   24.0698 H   0  0  0  0  0  0
   17.7536   72.6594   23.7327 H   0  0  0  0  0  0
   21.2116   72.4141   19.8061 H   0  0  0  0  0  0
   19.2317   69.2280   16.5821 H   0  0  0  0  0  0
   16.6288   71.3327   21.3592 H   0  0  0  0  0  0
   15.9209   68.8026   17.5585 H   0  0  0  0  0  0
   20.4346   75.2224   20.2442 H   0  0  0  0  0  0
   20.7312   76.0473   21.7483 H   0  0  0  0  0  0
   19.5893   75.9095   24.0361 H   0  0  0  0  0  0
   18.1629   75.1272   24.6521 H   0  0  0  0  0  0
   18.0165   75.2815   20.6152 H   0  0  0  0  0  0
   18.6456   76.8846   20.8702 H   0  0  0  0  0  0
   16.9594   75.5380   22.6107 H   0  0  0  0  0  0
   17.8223   77.0100   22.9571 H   0  0  0  0  0  0
  1  2  1  0  0  0
  1  7  1  0  0  0
  1 11  2  0  0  0
  2  4  2  0  0  0
  2 10  1  0  0  0
  3  5  1  0  0  0
  3  6  1  0  0  0
  3 12  2  0  0  0
  4 12  1  0  0  0
  4  8  1  0  0  0
  5 10  2  0  0  0
  5 13  1  0  0  0
  6 14  1  0  0  0
  6 25  1  0  0  0
  7 16  1  0  0  0
  7 17  1  0  0  0
  7 18  1  0  0  0
  8  9  2  0  0  0
  9 11  1  0  0  0
  9 15  1  0  0  0
 10 26  1  0  0  0
 11 27  1  0  0  0
 12 28  1  0  0  0
 13 14  1  0  0  0
 13 19  1  0  0  0
 13 23  1  0  0  0
 14 20  1  0  0  0
 14 24  1  0  0  0
 15 29  1  0  0  0
 19 21  1  0  0  0
 19 30  1  0  0  0
 19 31  1  0  0  0
 20 22  1  0  0  0
 20 32  1  0  0  0
 20 33  1  0  0  0
 21 22  1  0  0  0
 21 34  1  0  0  0
 21 35  1  0  0  0
 22 36  1  0  0  0
 22 37  1  0  0  0
M  END
> <s_m_entry_id>
9664

> <s_m_entry_name>
dock_pv.104

> <s_m_Source_Path>
/home/csk/Desktop/cluster/DUD-E-result/mcr

> <s_m_Source_File>
dock_pv.maegz

> <i_m_Source_File_Index>
104

> <chembl_id>
CHEMBL350932

> <chembl_pref_name>
None

> <i_lp_mmshare_version>
53161

> <i_f3d_flags>
0

> <r_lp_tautomer_probability>
1

> <s_lp_Force_Field>
OPLS_2005

> <r_lp_Energy>
33.53169

> <b_lp_Chiralities_Consistent>
1

> <s_lp_Variant>
CHEMBL1994_lig15-1

> <s_i_glide_gridfile>
glide-grid_2aa2

> <i_i_glide_lignum>
15

> <i_i_glide_rotatable_bonds>
2

> <r_i_docking_score>
-8.32330519636047

> <r_i_glide_ligand_efficiency>
-0.378332054380021

> <r_i_glide_ligand_efficiency_sa>
-1.0601012953282

> <r_i_glide_ligand_efficiency_ln>
-2.03451938992418

> <r_i_glide_gscore>
-8.32330519636047

> <r_i_glide_lipo>
-4.17081425699933

> <r_i_glide_hbond>
-0.0907338980047752

> <r_i_glide_metal>
0

> <r_i_glide_rewards>
-2.39426553678942

> <r_i_glide_evdw>
-29.0224800109863

> <r_i_glide_ecoul>
-1.13588666915894

> <r_i_glide_erotb>
0

> <r_i_glide_esite>
-0.0459845036437894

> <r_i_glide_emodel>
-31.8817943309476

> <r_i_glide_energy>
-30.1583666801453

> <r_i_glide_einternal>
0.364116817712784

> <i_i_glide_confnum>
1

> <i_i_glide_posenum>
154

> <r_i_glide_eff_state_penalty>
0

> <s_user_duplicate_titles>
CHEMBL1994_lig15

> <s_m_subgroup_title>
dock_pv

> <s_m_subgroupid>
dock_pv

> <b_m_subgroup_collapsed>
1

$$$$
CHEMBL1994_lig811
                    3D
 Schrodinger Suite 2021-1.
 37 38  0  0  1  0            999 V2000
   17.2694   74.6362   19.7051 C   0  0  0  0  0  0
   17.6535   74.1724   21.1156 C   0  0  1  0  0  0
   16.8888   75.0031   21.9826 O   0  0  0  0  0  0
   17.2189   72.7086   21.4411 C   0  0  0  0  0  0
   17.9137   71.5594   20.7105 C   0  0  0  0  0  0
   19.0410   70.9648   21.2897 C   0  0  0  0  0  0
   19.6788   69.9335   20.6116 C   0  0  0  0  0  0
   19.2297   69.4620   19.4266 N   0  0  0  0  0  0
   18.1128   70.0029   18.8700 C   0  0  0  0  0  0
   17.5390   69.4441   17.7056 N   0  0  0  0  0  0
   18.1161   68.7452   16.6999 C   0  0  0  0  0  0
   17.4597   68.2620   15.7813 O   0  0  0  0  0  0
   19.4410   68.6620   16.6921 N   0  0  0  0  0  0
   17.4410   71.0620   19.4874 C   0  0  0  0  0  0
   19.1580   74.3582   21.3046 C   0  0  0  0  0  0
   20.0250   73.7608   20.3839 C   0  0  0  0  0  0
   21.3897   73.8620   20.5449 C   0  0  0  0  0  0
   21.8951   74.6515   21.5639 C   0  0  0  0  0  0
   21.0519   75.2781   22.4700 C   0  0  0  0  0  0
   19.6799   75.1204   22.3561 C   0  0  0  0  0  0
   17.4410   73.8620   18.9573 H   0  0  0  0  0  0
   16.2410   74.9648   19.6700 H   0  0  0  0  0  0
   17.8466   75.4986   19.3963 H   0  0  0  0  0  0
   16.5635   74.4548   22.7083 H   0  0  0  0  0  0
   17.4410   72.5316   22.4929 H   0  0  0  0  0  0
   16.1418   72.5926   21.3272 H   0  0  0  0  0  0
   19.4329   71.3147   22.2340 H   0  0  0  0  0  0
   20.5633   69.4647   21.0193 H   0  0  0  0  0  0
   16.5592   69.6442   17.5818 H   0  0  0  0  0  0
   19.9286   68.1260   15.9899 H   0  0  0  0  0  0
   19.9510   69.0655   17.4635 H   0  0  0  0  0  0
   16.5469   71.4620   19.0403 H   0  0  0  0  0  0
   19.6481   73.1725   19.5609 H   0  0  0  0  0  0
   22.0311   73.2927   19.8973 H   0  0  0  0  0  0
   22.9636   74.7477   21.6700 H   0  0  0  0  0  0
   21.4723   75.8620   23.2715 H   0  0  0  0  0  0
   19.0361   75.6015   23.0778 H   0  0  0  0  0  0
  1  2  1  0  0  0
  1 21  1  0  0  0
  1 22  1  0  0  0
  1 23  1  0  0  0
  2  3  1  0  0  0
  2  4  1  0  0  0
  2 15  1  0  0  0
  3 24  1  0  0  0
  4  5  1  0  0  0
  4 25  1  0  0  0
  4 26  1  0  0  0
  5  6  2  0  0  0
  5 14  1  0  0  0
  6  7  1  0  0  0
  6 27  1  0  0  0
  7  8  2  0  0  0
  7 28  1  0  0  0
  8  9  1  0  0  0
  9 10  1  0  0  0
  9 14  2  0  0  0
 10 11  1  0  0  0
 10 29  1  0  0  0
 11 12  2  0  0  0
 11 13  1  0  0  0
 13 30  1  0  0  0
 13 31  1  0  0  0
 14 32  1  0  0  0
 15 16  2  0  0  0
 15 20  1  0  0  0
 16 17  1  0  0  0
 16 33  1  0  0  0
 17 18  2  0  0  0
 17 34  1  0  0  0
 18 19  1  0  0  0
 18 35  1  0  0  0
 19 20  2  0  0  0
 19 36  1  0  0  0
 20 37  1  0  0  0
M  END
> <s_m_entry_id>
9665

> <s_m_entry_name>
dock_pv.105

> <s_m_Source_Path>
/home/csk/Desktop/cluster/DUD-E-result/mcr

> <s_m_Source_File>
dock_pv.maegz

> <i_m_Source_File_Index>
105

> <chembl_id>
CHEMBL3643676

> <chembl_pref_name>
None

> <i_lp_mmshare_version>
53161

> <i_f3d_flags>
0

> <r_lp_tautomer_probability>
1

> <s_lp_Force_Field>
OPLS_2005

> <r_lp_Energy>
11.890857

> <b_lp_Chiralities_Consistent>
1

> <s_lp_Variant>
CHEMBL1994_lig811-1

> <s_i_glide_gridfile>
glide-grid_2aa2

> <i_i_glide_lignum>
1231

> <i_i_glide_rotatable_bonds>
6

> <r_i_docking_score>
-8.31924876950906

> <r_i_glide_ligand_efficiency>
-0.415962438475453

> <r_i_glide_ligand_efficiency_sa>
-1.12909576971206

> <r_i_glide_ligand_efficiency_ln>
-2.08203357981979

> <r_i_glide_gscore>
-8.31924876950906

> <r_i_glide_lipo>
-3.6872271831727

> <r_i_glide_hbond>
-0.749952026719718

> <r_i_glide_metal>
0

> <r_i_glide_rewards>
-1.88689614332158

> <r_i_glide_evdw>
-33.2707099914551

> <r_i_glide_ecoul>
-8.69607257843018

> <r_i_glide_erotb>
0.972772970042216

> <r_i_glide_esite>
0

> <r_i_glide_emodel>
-59.4651143564763

> <r_i_glide_energy>
-41.9667825698853

> <r_i_glide_einternal>
2.40885996818542

> <i_i_glide_confnum>
15

> <i_i_glide_posenum>
365

> <r_i_glide_eff_state_penalty>
0

> <s_user_duplicate_titles>
CHEMBL1994_lig811

> <s_m_subgroup_title>
dock_pv

> <s_m_subgroupid>
dock_pv

> <b_m_subgroup_collapsed>
1

$$$$
CHEMBL1994_lig809
                    3D
 Schrodinger Suite 2021-1.
 39 40  0  0  1  0            999 V2000
   22.0199   70.9280   18.4220 C   0  0  0  0  0  0
   20.6058   71.3413   18.8991 C   0  0  1  0  0  0
   20.3598   72.8634   18.6783 C   0  0  0  0  0  0
   20.2930   73.6816   19.9624 C   0  0  0  0  0  0
   21.4410   73.8756   20.7328 C   0  0  0  0  0  0
   21.3611   74.6620   21.8742 C   0  0  0  0  0  0
   20.1966   75.1867   22.3154 N   0  0  0  0  0  0
   19.0599   74.9690   21.5908 C   0  0  0  0  0  0
   17.7906   75.4107   22.0255 N   0  0  0  0  0  0
   17.4090   75.9818   23.1879 C   0  0  0  0  0  0
   16.2410   76.2620   23.4226 O   0  0  0  0  0  0
   18.3534   76.2620   24.0700 N   0  0  0  0  0  0
   19.0910   74.2619   20.3854 C   0  0  0  0  0  0
   19.4571   70.4811   18.3279 C   0  0  0  0  0  0
   19.6565   69.7121   17.1675 C   0  0  0  0  0  0
   18.6410   68.9162   16.6449 C   0  0  0  0  0  0
   17.3958   68.8872   17.2628 C   0  0  0  0  0  0
   17.1709   69.6496   18.4017 C   0  0  0  0  0  0
   18.1843   70.4444   18.9449 C   0  0  0  0  0  0
   17.8408   71.2282   20.2063 C   0  0  0  0  0  0
   22.2311   69.8838   18.6571 H   0  0  0  0  0  0
   22.1493   71.0620   17.3488 H   0  0  0  0  0  0
   22.7896   71.5301   18.9021 H   0  0  0  0  0  0
   20.6336   71.1278   19.9683 H   0  0  0  0  0  0
   21.1533   73.2971   18.0695 H   0  0  0  0  0  0
   19.4531   73.0344   18.0948 H   0  0  0  0  0  0
   22.3835   73.4262   20.4700 H   0  0  0  0  0  0
   22.2408   74.8448   22.4700 H   0  0  0  0  0  0
   17.0338   75.2107   21.3913 H   0  0  0  0  0  0
   18.1321   76.7554   24.9342 H   0  0  0  0  0  0
   19.3018   75.9883   23.8632 H   0  0  0  0  0  0
   18.1923   74.1403   19.7999 H   0  0  0  0  0  0
   20.6028   69.7052   16.6502 H   0  0  0  0  0  0
   18.8246   68.3240   15.7616 H   0  0  0  0  0  0
   16.6042   68.2667   16.8700 H   0  0  0  0  0  0
   16.1992   69.6126   18.8700 H   0  0  0  0  0  0
   18.7010   71.4649   20.8277 H   0  0  0  0  0  0
   17.3103   72.1404   19.9442 H   0  0  0  0  0  0
   17.1749   70.6620   20.8518 H   0  0  0  0  0  0
  1  2  1  0  0  0
  1 21  1  0  0  0
  1 22  1  0  0  0
  1 23  1  0  0  0
  2  3  1  0  0  0
  2 14  1  0  0  0
  2 24  1  0  0  0
  3  4  1  0  0  0
  3 25  1  0  0  0
  3 26  1  0  0  0
  4  5  2  0  0  0
  4 13  1  0  0  0
  5  6  1  0  0  0
  5 27  1  0  0  0
  6  7  2  0  0  0
  6 28  1  0  0  0
  7  8  1  0  0  0
  8  9  1  0  0  0
  8 13  2  0  0  0
  9 10  1  0  0  0
  9 29  1  0  0  0
 10 11  2  0  0  0
 10 12  1  0  0  0
 12 30  1  0  0  0
 12 31  1  0  0  0
 13 32  1  0  0  0
 14 15  2  0  0  0
 14 19  1  0  0  0
 15 16  1  0  0  0
 15 33  1  0  0  0
 16 17  2  0  0  0
 16 34  1  0  0  0
 17 18  1  0  0  0
 17 35  1  0  0  0
 18 19  2  0  0  0
 18 36  1  0  0  0
 19 20  1  0  0  0
 20 37  1  0  0  0
 20 38  1  0  0  0
 20 39  1  0  0  0
M  END
> <s_m_entry_id>
9666

> <s_m_entry_name>
dock_pv.106

> <s_m_Source_Path>
/home/csk/Desktop/cluster/DUD-E-result/mcr

> <s_m_Source_File>
dock_pv.maegz

> <i_m_Source_File_Index>
106

> <chembl_id>
CHEMBL3643674

> <chembl_pref_name>
None

> <i_lp_mmshare_version>
53161

> <i_f3d_flags>
0

> <r_lp_tautomer_probability>
1

> <s_lp_Force_Field>
OPLS_2005

> <r_lp_Energy>
9.19465

> <b_lp_Chiralities_Consistent>
1

> <s_lp_Variant>
CHEMBL1994_lig809-2

> <s_i_glide_gridfile>
glide-grid_2aa2

> <i_i_glide_lignum>
1228

> <i_i_glide_rotatable_bonds>
5

> <r_i_docking_score>
-8.30861303275098

> <r_i_glide_ligand_efficiency>
-0.415430651637549

> <r_i_glide_ligand_efficiency_sa>
-1.12765227815242

> <r_i_glide_ligand_efficiency_ln>
-2.07937180569931

> <r_i_glide_gscore>
-8.30861303275098

> <r_i_glide_lipo>
-4.22724834613568

> <r_i_glide_hbond>
-0.423075396262602

> <r_i_glide_metal>
0

> <r_i_glide_rewards>
-1.95046063237083

> <r_i_glide_evdw>
-39.9641532897949

> <r_i_glide_ecoul>
-4.63168811798096

> <r_i_glide_erotb>
0.985132224205019

> <r_i_glide_esite>
0

> <r_i_glide_emodel>
-62.2603067679834

> <r_i_glide_energy>
-44.5958414077759

> <r_i_glide_einternal>
5.24137735366821

> <i_i_glide_confnum>
1

> <i_i_glide_posenum>
191

> <r_i_glide_eff_state_penalty>
0

> <s_user_duplicate_titles>
CHEMBL1994_lig809

> <s_m_subgroup_title>
dock_pv

> <s_m_subgroupid>
dock_pv

> <b_m_subgroup_collapsed>
1

$$$$
CHEMBL1994_lig1141 
                    3D
 Schrodinger Suite 2021-1.
 41 44  0  0  1  0            999 V2000
   20.6905   73.2826   20.5274 C   0  0  1  0  0  0
   21.2151   75.0021   20.9601 S   0  0  0  0  0  0
   19.4120   72.7543   21.1823 C   0  0  0  0  0  0
   20.6714   72.9968   19.0236 C   0  0  0  0  0  0
   19.7320   72.0929   18.4704 C   0  0  0  0  0  0
   21.4409   73.4619   18.1968 N   0  0  0  0  0  0
   19.9726   75.4621   22.1038 C   0  0  0  0  0  0
   19.8392   74.8596   23.2739 N   0  0  0  0  0  0
   18.7153   75.3479   23.7259 C   0  0  0  0  0  0
   18.2335   76.2630   22.8421 N   0  0  0  0  0  0
   19.0399   76.3320   21.7855 N   0  0  0  0  0  0
   18.4114   72.5159   18.3397 C   0  0  0  0  0  0
   17.4403   71.5863   18.0707 C   0  0  0  0  0  0
   20.1262   70.8238   18.0445 C   0  0  0  0  0  0
   18.1882   73.4208   21.0277 C   0  0  0  0  0  0
   17.0091   72.7571   21.2700 C   0  0  0  0  0  0
   17.0788   71.4616   21.7501 C   0  0  0  0  0  0
   18.2668   70.8381   22.0112 C   0  0  0  0  0  0
   19.4412   71.4574   21.6810 C   0  0  0  0  0  0
   19.1511   69.9808   17.5517 C   0  0  0  0  0  0
   17.8089   70.3426   17.6358 C   0  0  0  0  0  0
   16.8235   69.6102   17.0419 O   0  0  0  0  0  0
   17.1542   68.2620   16.7816 C   0  0  0  0  0  0
   18.6409   67.9605   16.3733 C   0  0  0  0  0  0
   19.4921   68.8447   16.8679 N   0  0  0  0  0  0
   19.0397   67.0394   15.6706 O   0  0  0  0  0  0
   21.5057   72.6836   20.9155 H   0  0  0  0  0  0
   21.2582   73.1218   17.2654 H   0  0  0  0  0  0
   17.3884   76.8072   22.9366 H   0  0  0  0  0  0
   18.2015   75.1227   24.6462 H   0  0  0  0  0  0
   18.1124   73.5344   18.5389 H   0  0  0  0  0  0
   16.4043   71.8514   18.0701 H   0  0  0  0  0  0
   21.1669   70.5314   18.0399 H   0  0  0  0  0  0
   18.1292   74.3908   20.5623 H   0  0  0  0  0  0
   16.0521   73.2270   21.1044 H   0  0  0  0  0  0
   16.2415   70.8593   21.9510 H   0  0  0  0  0  0
   18.2420   69.8572   22.4257 H   0  0  0  0  0  0
   20.3571   70.8931   21.7441 H   0  0  0  0  0  0
   16.9786   67.8619   17.7755 H   0  0  0  0  0  0
   16.4611   67.8629   16.0534 H   0  0  0  0  0  0
   20.4596   68.6555   16.6516 H   0  0  0  0  0  0
  1  3  1  0  0  0
  1  4  1  0  0  0
  1 27  1  0  0  0
  1  2  1  0  0  0
  2  7  1  0  0  0
  3 15  2  0  0  0
  3 19  1  0  0  0
  4  5  1  0  0  0
  4  6  2  0  0  0
  5 12  2  0  0  0
  5 14  1  0  0  0
  6 28  1  0  0  0
  7 11  2  0  0  0
  7  8  1  0  0  0
  8  9  2  0  0  0
  9 30  1  0  0  0
  9 10  1  0  0  0
 10 29  1  0  0  0
 10 11  1  0  0  0
 12 13  1  0  0  0
 12 31  1  0  0  0
 13 21  2  0  0  0
 13 32  1  0  0  0
 14 20  2  0  0  0
 14 33  1  0  0  0
 15 16  1  0  0  0
 15 34  1  0  0  0
 16 17  2  0  0  0
 16 35  1  0  0  0
 17 18  1  0  0  0
 17 36  1  0  0  0
 18 19  2  0  0  0
 18 37  1  0  0  0
 19 38  1  0  0  0
 20 21  1  0  0  0
 20 25  1  0  0  0
 21 22  1  0  0  0
 22 23  1  0  0  0
 23 24  1  0  0  0
 23 39  1  0  0  0
 23 40  1  0  0  0
 24 25  1  0  0  0
 24 26  2  0  0  0
 25 41  1  0  0  0
M  END
> <s_m_entry_id>
9667

> <s_m_entry_name>
dock_pv.107

> <s_m_Source_Path>
/home/csk/Desktop/cluster/DUD-E-result/mcr

> <s_m_Source_File>
dock_pv.maegz

> <i_m_Source_File_Index>
107

> <chembl_id>
CHEMBL4577956

> <chembl_pref_name>
None

> <i_lp_mmshare_version>
53161

> <i_f3d_flags>
0

> <r_lp_tautomer_probability>
0.213347234464227

> <s_lp_Force_Field>
OPLS_2005

> <r_lp_Energy>
29.071112

> <b_lp_Chiralities_Consistent>
1

> <s_lp_Variant>
CHEMBL1994_lig1141 -2

> <s_i_glide_gridfile>
glide-grid_2aa2

> <i_i_glide_lignum>
1630

> <i_i_glide_rotatable_bonds>
5

> <r_i_docking_score>
-8.29398444544193

> <r_i_glide_ligand_efficiency>
-0.318999401747767

> <r_i_glide_ligand_efficiency_sa>
-0.945034472475724

> <r_i_glide_ligand_efficiency_ln>
-1.94781503222933

> <r_i_glide_gscore>
-8.29398444544193

> <r_i_glide_lipo>
-3.30849183700691

> <r_i_glide_hbond>
-0.289115349272974

> <r_i_glide_metal>
0

> <r_i_glide_rewards>
-3.59627856423388

> <r_i_glide_evdw>
-19.1140174865723

> <r_i_glide_ecoul>
-4.13305997848511

> <r_i_glide_erotb>
0.504217587250448

> <r_i_glide_esite>
-0.0286564110772352

> <r_i_glide_emodel>
-39.3846486268651

> <r_i_glide_energy>
-23.2470774650574

> <r_i_glide_einternal>
14.7357616424561

> <i_i_glide_confnum>
129

> <i_i_glide_posenum>
115

> <r_i_glide_eff_state_penalty>
0

> <s_user_duplicate_titles>
CHEMBL1994_lig1141 ,CHEMBL1994_lig1141 

> <s_m_subgroup_title>
dock_pv

> <s_m_subgroupid>
dock_pv

> <b_m_subgroup_collapsed>
1

$$$$
CHEMBL1994_lig382
                    3D
 Schrodinger Suite 2021-1.
 47 50  0  0  1  0            999 V2000
   21.8354   74.8099   20.9732 C   0  0  0  0  0  0
   20.8851   75.7206   21.3399 C   0  0  0  0  0  0
   19.5242   75.4375   21.2683 C   0  0  0  0  0  0
   21.4603   73.5981   20.4372 C   0  0  0  0  0  0
   20.1275   73.2724   20.2138 C   0  0  0  0  0  0
   19.1658   74.2358   20.6353 C   0  0  0  0  0  0
   17.9483   73.7267   20.2754 N   0  0  0  0  0  0
   18.1156   72.5036   19.6941 C   0  0  0  0  0  0
   19.4513   72.1210   19.6485 C   0  0  0  0  0  0
   18.6383   76.3819   21.7643 N   0  0  0  0  0  0
   17.5586   76.0599   23.1228 S   0  0  0  0  0  0
   16.0719   75.3491   22.2226 C   0  0  0  0  0  0
   18.1907   75.0363   23.9579 O   0  0  0  0  0  0
   17.1610   77.3609   23.6700 O   0  0  0  0  0  0
   20.0788   70.7777   19.1591 C   0  0  2  0  0  0
   19.1664   70.0146   18.1512 C   0  0  0  0  0  0
   20.3464   69.8210   20.3565 C   0  0  0  0  0  0
   21.4977   71.0125   18.5538 C   0  0  0  0  0  0
   20.2417   70.2072   21.8034 C   0  0  0  0  0  0
   19.2607   69.2204   21.2107 C   0  0  0  0  0  0
   17.8379   69.7170   18.5107 C   0  0  0  0  0  0
   16.9557   69.0678   17.6564 C   0  0  0  0  0  0
   17.4335   68.6625   16.4271 C   0  0  0  0  0  0
   18.7435   68.8252   16.0853 C   0  0  0  0  0  0
   19.6043   69.5395   16.8945 C   0  0  0  0  0  0
   20.8288   69.7725   16.3881 F   0  0  0  0  0  0
   16.6395   68.2617   15.4357 F   0  0  0  0  0  0
   22.8743   75.0576   21.1002 H   0  0  0  0  0  0
   21.2770   76.6594   21.6693 H   0  0  0  0  0  0
   22.2457   72.9651   20.1356 H   0  0  0  0  0  0
   17.0424   74.1505   20.4104 H   0  0  0  0  0  0
   17.2233   71.9881   19.3897 H   0  0  0  0  0  0
   18.7081   77.3306   21.4286 H   0  0  0  0  0  0
   15.2077   75.4900   22.8630 H   0  0  0  0  0  0
   15.9243   75.8597   21.2757 H   0  0  0  0  0  0
   16.2240   74.2876   22.0489 H   0  0  0  0  0  0
   21.1520   69.1232   20.1318 H   0  0  0  0  0  0
   21.5011   71.7565   17.7560 H   0  0  0  0  0  0
   22.2550   71.2638   19.2703 H   0  0  0  0  0  0
   21.9450   70.0884   18.1902 H   0  0  0  0  0  0
   21.0259   69.8575   22.4704 H   0  0  0  0  0  0
   19.8448   71.1751   22.1038 H   0  0  0  0  0  0
   18.2420   69.5672   21.2537 H   0  0  0  0  0  0
   19.3417   68.1334   21.2713 H   0  0  0  0  0  0
   17.4397   70.0090   19.4545 H   0  0  0  0  0  0
   15.9264   68.9088   17.9418 H   0  0  0  0  0  0
   19.0237   68.4358   15.1383 H   0  0  0  0  0  0
  1  2  2  0  0  0
  1  4  1  0  0  0
  1 28  1  0  0  0
  2  3  1  0  0  0
  2 29  1  0  0  0
  3  6  2  0  0  0
  3 10  1  0  0  0
  4  5  2  0  0  0
  4 30  1  0  0  0
  5  9  1  0  0  0
  5  6  1  0  0  0
  6  7  1  0  0  0
  7  8  1  0  0  0
  7 31  1  0  0  0
  8  9  2  0  0  0
  8 32  1  0  0  0
  9 15  1  0  0  0
 10 11  1  0  0  0
 10 33  1  0  0  0
 11 13  2  0  0  0
 11 14  2  0  0  0
 11 12  1  0  0  0
 12 34  1  0  0  0
 12 35  1  0  0  0
 12 36  1  0  0  0
 15 16  1  0  0  0
 15 17  1  0  0  0
 15 18  1  0  0  0
 16 21  2  0  0  0
 16 25  1  0  0  0
 17 19  1  0  0  0
 17 20  1  0  0  0
 17 37  1  0  0  0
 18 38  1  0  0  0
 18 39  1  0  0  0
 18 40  1  0  0  0
 19 20  1  0  0  0
 19 41  1  0  0  0
 19 42  1  0  0  0
 20 43  1  0  0  0
 20 44  1  0  0  0
 21 22  1  0  0  0
 21 45  1  0  0  0
 22 23  2  0  0  0
 22 46  1  0  0  0
 23 24  1  0  0  0
 23 27  1  0  0  0
 24 25  2  0  0  0
 24 47  1  0  0  0
 25 26  1  0  0  0
M  END
> <s_m_entry_id>
9668

> <s_m_entry_name>
dock_pv.108

> <s_m_Source_Path>
/home/csk/Desktop/cluster/DUD-E-result/mcr

> <s_m_Source_File>
dock_pv.maegz

> <i_m_Source_File_Index>
108

> <chembl_id>
CHEMBL391231

> <chembl_pref_name>
None

> <i_lp_mmshare_version>
53161

> <i_f3d_flags>
0

> <r_lp_tautomer_probability>
1

> <s_lp_Force_Field>
OPLS_2005

> <r_lp_Energy>
20.13299

> <b_lp_Chiralities_Consistent>
1

> <s_lp_Variant>
CHEMBL1994_lig382-1

> <s_i_glide_gridfile>
glide-grid_2aa2

> <i_i_glide_lignum>
628

> <i_i_glide_rotatable_bonds>
5

> <r_i_docking_score>
-8.29113881309053

> <r_i_glide_ligand_efficiency>
-0.307079215299649

> <r_i_glide_ligand_efficiency_sa>
-0.921237644886865

> <r_i_glide_ligand_efficiency_ln>
-1.93004042558123

> <r_i_glide_gscore>
-8.29113881309053

> <r_i_glide_lipo>
-4.95950160555195

> <r_i_glide_hbond>
0

> <r_i_glide_metal>
0

> <r_i_glide_rewards>
-2.06896999181084

> <r_i_glide_evdw>
-29.9331302642822

> <r_i_glide_ecoul>
-1.54186165332794

> <r_i_glide_erotb>
0.511764660619484

> <r_i_glide_esite>
-0.0464961151339141

> <r_i_glide_emodel>
-22.3779981391854

> <r_i_glide_energy>
-31.4749919176102

> <r_i_glide_einternal>
25.550874710083

> <i_i_glide_confnum>
39

> <i_i_glide_posenum>
44

> <r_i_glide_eff_state_penalty>
0

> <s_user_duplicate_titles>
CHEMBL1994_lig382,398780

> <s_m_subgroup_title>
dock_pv

> <s_m_subgroupid>
dock_pv

> <b_m_subgroup_collapsed>
1

$$$$
CHEMBL1994_lig260
                    3D
 Schrodinger Suite 2021-1.
 43 45  0  0  1  0            999 V2000
   18.9454   72.8778   19.3282 C   0  0  0  0  0  0
   18.2109   73.5093   20.2944 C   0  0  0  0  0  0
   19.3590   71.3884   19.4234 C   0  0  1  0  0  0
   18.9459   70.8140   20.7521 C   0  0  0  0  0  0
   17.8957   72.8145   21.4206 N   0  0  0  0  0  0
   18.2664   71.5393   21.6532 C   0  0  0  0  0  0
   18.8649   70.4822   18.2819 C   0  0  0  0  0  0
   19.3481   73.4633   18.0700 C   0  0  0  0  0  0
   19.7498   69.8388   17.4014 C   0  0  0  0  0  0
   19.0660   69.4094   20.8701 C   0  0  0  0  0  0
   17.7234   75.5045   21.7206 N   0  0  0  0  0  0
   17.0445   76.2133   23.7391 N   0  0  0  0  0  0
   19.0411   68.2620   20.8694 N   0  0  0  0  0  0
   17.6772   74.9408   20.3789 C   0  0  0  0  0  0
   16.6764   75.7252   22.5811 C   0  0  0  0  0  0
   19.2530   68.9362   16.4704 C   0  0  0  0  0  0
   17.4902   70.2083   18.1958 C   0  0  0  0  0  0
   18.3604   76.2859   23.6577 C   0  0  0  0  0  0
   18.8367   75.8626   22.4292 C   0  0  0  0  0  0
   20.2354   72.9555   17.3930 O   0  0  0  0  0  0
   17.8965   68.6618   16.4028 C   0  0  0  0  0  0
   21.4607   70.0770   17.4493 Cl  0  0  0  0  0  0
   17.0091   69.2839   17.2745 C   0  0  0  0  0  0
   18.6410   74.5389   17.7343 O   0  0  0  0  0  0
   17.4405   67.8622   15.4240 F   0  0  0  0  0  0
   17.7070   71.0541   22.9149 C   0  0  0  0  0  0
   18.6737   75.1667   16.4698 C   0  0  0  0  0  0
   20.4485   71.3636   19.4221 H   0  0  0  0  0  0
   17.4034   73.3002   22.1613 H   0  0  0  0  0  0
   18.2409   75.6160   19.7597 H   0  0  0  0  0  0
   16.6449   74.9641   20.0292 H   0  0  0  0  0  0
   15.6652   75.4902   22.2812 H   0  0  0  0  0  0
   19.9197   68.4382   15.7904 H   0  0  0  0  0  0
   16.7955   70.6815   18.8761 H   0  0  0  0  0  0
   18.9614   76.6619   24.4697 H   0  0  0  0  0  0
   19.8281   75.7838   22.0070 H   0  0  0  0  0  0
   15.9530   69.0663   17.2282 H   0  0  0  0  0  0
   18.2063   71.4864   23.7817 H   0  0  0  0  0  0
   16.6410   71.2304   22.9549 H   0  0  0  0  0  0
   17.8409   69.9773   22.8701 H   0  0  0  0  0  0
   18.4759   76.2337   16.5541 H   0  0  0  0  0  0
   19.6274   75.0621   15.9591 H   0  0  0  0  0  0
   17.8535   74.7720   15.8755 H   0  0  0  0  0  0
  1  2  2  0  0  0
  1  3  1  0  0  0
  1  8  1  0  0  0
  2  5  1  0  0  0
  2 14  1  0  0  0
  3  4  1  0  0  0
  3  7  1  0  0  0
  3 28  1  0  0  0
  4  6  2  0  0  0
  4 10  1  0  0  0
  5  6  1  0  0  0
  5 29  1  0  0  0
  6 26  1  0  0  0
  7  9  2  0  0  0
  7 17  1  0  0  0
  8 20  2  0  0  0
  8 24  1  0  0  0
  9 16  1  0  0  0
  9 22  1  0  0  0
 10 13  3  0  0  0
 11 14  1  0  0  0
 11 15  1  0  0  0
 11 19  1  0  0  0
 12 15  2  0  0  0
 12 18  1  0  0  0
 14 30  1  0  0  0
 14 31  1  0  0  0
 15 32  1  0  0  0
 16 21  2  0  0  0
 16 33  1  0  0  0
 17 23  2  0  0  0
 17 34  1  0  0  0
 18 19  2  0  0  0
 18 35  1  0  0  0
 19 36  1  0  0  0
 21 23  1  0  0  0
 21 25  1  0  0  0
 23 37  1  0  0  0
 24 27  1  0  0  0
 26 38  1  0  0  0
 26 39  1  0  0  0
 26 40  1  0  0  0
 27 41  1  0  0  0
 27 42  1  0  0  0
 27 43  1  0  0  0
M  END
> <s_m_entry_id>
9669

> <s_m_entry_name>
dock_pv.109

> <s_m_Source_Path>
/home/csk/Desktop/cluster/DUD-E-result/mcr

> <s_m_Source_File>
dock_pv.maegz

> <i_m_Source_File_Index>
109

> <chembl_id>
CHEMBL1215552

> <chembl_pref_name>
None

> <i_lp_mmshare_version>
53161

> <i_f3d_flags>
0

> <r_lp_tautomer_probability>
1

> <s_lp_Force_Field>
OPLS_2005

> <r_lp_Energy>
18.422308

> <b_lp_Chiralities_Consistent>
1

> <s_lp_Variant>
CHEMBL1994_lig260-2

> <s_i_glide_gridfile>
glide-grid_2aa2

> <i_i_glide_lignum>
441

> <i_i_glide_rotatable_bonds>
5

> <r_i_docking_score>
-8.28360468655491

> <r_i_glide_ligand_efficiency>
-0.306800173576108

> <r_i_glide_ligand_efficiency_sa>
-0.92040051971716

> <r_i_glide_ligand_efficiency_ln>
-1.92828660513352

> <r_i_glide_gscore>
-8.28360468655491

> <r_i_glide_lipo>
-3.99435685858662

> <r_i_glide_hbond>
-0.116296568369764

> <r_i_glide_metal>
0

> <r_i_glide_rewards>
-2.66248967362649

> <r_i_glide_evdw>
-23.3761711120605

> <r_i_glide_ecoul>
-5.18933629989624

> <r_i_glide_erotb>
0.520445010949035

> <r_i_glide_esite>
-0.0836975963336062

> <r_i_glide_emodel>
-43.6701186462887

> <r_i_glide_energy>
-28.5655074119568

> <r_i_glide_einternal>
5.78464078903198

> <i_i_glide_confnum>
9

> <i_i_glide_posenum>
65

> <r_i_glide_eff_state_penalty>
0

> <s_user_duplicate_titles>
CHEMBL1994_lig260,687418

> <s_m_subgroup_title>
dock_pv

> <s_m_subgroupid>
dock_pv

> <b_m_subgroup_collapsed>
1

$$$$
CHEMBL1994_lig527
                    3D
 Schrodinger Suite 2021-1.
 42 44  0  0  1  0            999 V2000
   18.5158   71.5742   22.0156 C   0  0  0  0  0  0
   18.6410   72.3596   23.3173 C   0  0  0  0  0  0
   18.2682   73.7927   23.2160 N   0  0  1  0  0  0
   19.3138   74.9618   22.4135 S   0  0  0  0  0  0
   19.2758   74.3936   20.7176 C   0  0  0  0  0  0
   20.6915   74.7907   22.8700 O   0  0  0  0  0  0
   18.6410   76.2620   22.4430 O   0  0  0  0  0  0
   20.2575   73.7493   20.0225 C   0  0  0  0  0  0
   19.8205   73.4619   18.7756 O   0  0  0  0  0  0
   18.5243   73.9519   18.6639 N   0  0  0  0  0  0
   18.2410   74.5141   19.8214 C   0  0  0  0  0  0
   21.6072   73.2720   20.3962 C   0  0  0  0  0  0
   16.9395   75.2010   20.0700 C   0  0  0  0  0  0
   17.4410   71.7718   21.1491 C   0  0  0  0  0  0
   17.4410   71.1590   19.9001 C   0  0  0  0  0  0
   18.4794   70.3032   19.5356 C   0  0  0  0  0  0
   19.5056   70.0262   20.4352 C   0  0  0  0  0  0
   19.5126   70.6620   21.6700 C   0  0  0  0  0  0
   18.4542   69.7025   18.2671 N   0  0  0  0  0  0
   17.3788   69.0620   17.7058 C   0  0  0  0  0  0
   17.7963   68.6620   16.4550 C   0  0  0  0  0  0
   19.0410   69.0166   16.2120 N   0  0  0  0  0  0
   19.4368   69.6509   17.2916 C   0  0  0  0  0  0
   20.8119   70.2825   17.4141 C   0  0  0  0  0  0
   19.6257   72.2750   23.7729 H   0  0  0  0  0  0
   17.9462   71.8954   24.0186 H   0  0  0  0  0  0
   17.2767   73.9229   22.9886 H   0  0  0  0  0  0
   21.4410   72.6620   21.2700 H   0  0  0  0  0  0
   22.0918   72.6620   19.6342 H   0  0  0  0  0  0
   22.2568   74.0941   20.6878 H   0  0  0  0  0  0
   16.4610   74.8995   21.0015 H   0  0  0  0  0  0
   17.1276   76.2620   20.1151 H   0  0  0  0  0  0
   16.2410   75.0620   19.2700 H   0  0  0  0  0  0
   16.6388   72.4448   21.4139 H   0  0  0  0  0  0
   16.6376   71.3627   19.2099 H   0  0  0  0  0  0
   20.2952   69.3320   20.1896 H   0  0  0  0  0  0
   20.3144   70.4474   22.3564 H   0  0  0  0  0  0
   16.4449   68.9548   18.2393 H   0  0  0  0  0  0
   17.1966   68.1562   15.7183 H   0  0  0  0  0  0
   21.4020   70.1627   16.5047 H   0  0  0  0  0  0
   20.7445   71.3538   17.5987 H   0  0  0  0  0  0
   21.3997   69.8534   18.2241 H   0  0  0  0  0  0
  1  2  1  0  0  0
  1 14  2  0  0  0
  1 18  1  0  0  0
  2  3  1  0  0  0
  2 25  1  0  0  0
  2 26  1  0  0  0
  3  4  1  0  0  0
  3 27  1  0  0  0
  4  5  1  0  0  0
  4  6  2  0  0  0
  4  7  2  0  0  0
  5  8  2  0  0  0
  5 11  1  0  0  0
  8  9  1  0  0  0
  8 12  1  0  0  0
  9 10  1  0  0  0
 10 11  2  0  0  0
 11 13  1  0  0  0
 12 28  1  0  0  0
 12 29  1  0  0  0
 12 30  1  0  0  0
 13 31  1  0  0  0
 13 32  1  0  0  0
 13 33  1  0  0  0
 14 15  1  0  0  0
 14 34  1  0  0  0
 15 16  2  0  0  0
 15 35  1  0  0  0
 16 17  1  0  0  0
 16 19  1  0  0  0
 17 18  2  0  0  0
 17 36  1  0  0  0
 18 37  1  0  0  0
 19 20  1  0  0  0
 19 23  1  0  0  0
 20 21  2  0  0  0
 20 38  1  0  0  0
 21 22  1  0  0  0
 21 39  1  0  0  0
 22 23  2  0  0  0
 23 24  1  0  0  0
 24 40  1  0  0  0
 24 41  1  0  0  0
 24 42  1  0  0  0
M  END
> <s_m_entry_id>
9670

> <s_m_entry_name>
dock_pv.110

> <s_m_Source_Path>
/home/csk/Desktop/cluster/DUD-E-result/mcr

> <s_m_Source_File>
dock_pv.maegz

> <i_m_Source_File_Index>
110

> <chembl_id>
CHEMBL3086019

> <chembl_pref_name>
None

> <i_lp_mmshare_version>
53161

> <i_f3d_flags>
0

> <r_lp_tautomer_probability>
1

> <s_lp_Force_Field>
OPLS_2005

> <r_lp_Energy>
13.962642

> <b_lp_Chiralities_Consistent>
1

> <s_lp_Variant>
CHEMBL1994_lig527-1

> <s_i_glide_gridfile>
glide-grid_2aa2

> <i_i_glide_lignum>
838

> <i_i_glide_rotatable_bonds>
5

> <r_i_docking_score>
-8.27306091401335

> <r_i_glide_ligand_efficiency>
-0.344710871417223

> <r_i_glide_ligand_efficiency_sa>
-0.994318211310232

> <r_i_glide_ligand_efficiency_ln>
-1.98012310275198

> <r_i_glide_gscore>
-8.27306091401335

> <r_i_glide_lipo>
-3.61765665770027

> <r_i_glide_hbond>
-0.190709379013487

> <r_i_glide_metal>
0

> <r_i_glide_rewards>
-2.88651051364972

> <r_i_glide_evdw>
-38.5737800598145

> <r_i_glide_ecoul>
-2.67571473121643

> <r_i_glide_erotb>
0.79217771180326

> <r_i_glide_esite>
-0.0403158627799497

> <r_i_glide_emodel>
-55.5530363277935

> <r_i_glide_energy>
-41.2494947910309

> <r_i_glide_einternal>
2.41641211509705

> <i_i_glide_confnum>
230

> <i_i_glide_posenum>
34

> <r_i_glide_eff_state_penalty>
0

> <s_user_duplicate_titles>
CHEMBL1994_lig527

> <s_m_subgroup_title>
dock_pv

> <s_m_subgroupid>
dock_pv

> <b_m_subgroup_collapsed>
1

$$$$
CHEMBL1994_lig1040
                    3D
 Schrodinger Suite 2021-1.
 40 42  0  0  1  0            999 V2000
   17.4293   71.2255   20.8125 C   0  0  0  0  0  0
   19.8963   72.0076   19.8143 C   0  0  0  0  0  0
   17.8580   70.7228   19.5901 C   0  0  0  0  0  0
   19.1455   71.0401   19.1366 C   0  0  0  0  0  0
   19.6301   70.3139   17.9436 C   0  0  0  0  0  0
   18.7923   69.4646   17.3004 C   0  0  0  0  0  0
   17.4038   69.2703   17.6630 C   0  0  0  0  0  0
   17.0420   69.8945   18.8059 N   0  0  0  0  0  0
   19.4298   72.5522   21.0097 C   0  0  0  0  0  0
   18.2651   72.0182   21.5597 C   0  0  0  0  0  0
   17.8417   72.2481   22.8381 O   0  0  0  0  0  0
   18.7532   72.9407   23.6687 C   0  0  0  0  0  0
   19.3994   74.1111   22.9069 C   0  0  1  0  0  0
   20.0831   73.5535   21.7106 N   0  0  0  0  0  0
   21.0392   70.6115   17.4895 C   0  0  0  0  0  0
   21.3822   69.8623   16.4681 F   0  0  0  0  0  0
   21.0409   71.8718   17.1023 F   0  0  0  0  0  0
   21.9255   70.4071   18.4669 F   0  0  0  0  0  0
   16.6161   68.6705   16.9476 O   0  0  0  0  0  0
   21.3920   74.0992   21.3243 C   0  0  0  0  0  0
   21.6345   75.5741   21.5914 C   0  0  0  0  0  0
   21.5084   75.8620   22.8696 F   0  0  0  0  0  0
   22.8712   75.8623   21.2683 F   0  0  0  0  0  0
   20.8474   76.3661   20.8724 F   0  0  0  0  0  0
   18.3629   75.2225   22.5861 C   0  0  0  0  0  0
   18.0749   76.1575   23.7687 C   0  0  0  0  0  0
   16.4678   71.0588   21.2568 H   0  0  0  0  0  0
   20.8533   72.3141   19.4320 H   0  0  0  0  0  0
   19.1311   68.9331   16.4237 H   0  0  0  0  0  0
   16.0764   69.7620   19.0712 H   0  0  0  0  0  0
   19.5276   72.2615   24.0158 H   0  0  0  0  0  0
   18.2396   73.2880   24.5661 H   0  0  0  0  0  0
   20.1156   74.4779   23.6326 H   0  0  0  0  0  0
   22.1978   73.4681   21.6936 H   0  0  0  0  0  0
   21.4798   74.0471   20.2420 H   0  0  0  0  0  0
   17.4294   74.7771   22.2396 H   0  0  0  0  0  0
   18.7024   75.8346   21.7533 H   0  0  0  0  0  0
   17.3281   76.9055   23.5023 H   0  0  0  0  0  0
   18.9760   76.6904   24.0718 H   0  0  0  0  0  0
   17.6993   75.6128   24.6344 H   0  0  0  0  0  0
  1  3  1  0  0  0
  1 10  2  0  0  0
  1 27  1  0  0  0
  2  9  2  0  0  0
  2  4  1  0  0  0
  2 28  1  0  0  0
  3  8  1  0  0  0
  3  4  2  0  0  0
  4  5  1  0  0  0
  5 15  1  0  0  0
  5  6  2  0  0  0
  6  7  1  0  0  0
  6 29  1  0  0  0
  7  8  1  0  0  0
  7 19  2  0  0  0
  8 30  1  0  0  0
  9 14  1  0  0  0
  9 10  1  0  0  0
 10 11  1  0  0  0
 11 12  1  0  0  0
 12 13  1  0  0  0
 12 31  1  0  0  0
 12 32  1  0  0  0
 13 14  1  0  0  0
 13 25  1  0  0  0
 13 33  1  0  0  0
 14 20  1  0  0  0
 15 16  1  0  0  0
 15 17  1  0  0  0
 15 18  1  0  0  0
 20 21  1  0  0  0
 20 34  1  0  0  0
 20 35  1  0  0  0
 21 22  1  0  0  0
 21 23  1  0  0  0
 21 24  1  0  0  0
 25 26  1  0  0  0
 25 36  1  0  0  0
 25 37  1  0  0  0
 26 38  1  0  0  0
 26 39  1  0  0  0
 26 40  1  0  0  0
M  END
> <s_m_entry_id>
9671

> <s_m_entry_name>
dock_pv.111

> <s_m_Source_Path>
/home/csk/Desktop/cluster/DUD-E-result/mcr

> <s_m_Source_File>
dock_pv.maegz

> <i_m_Source_File_Index>
111

> <chembl_id>
CHEMBL388997

> <chembl_pref_name>
None

> <i_lp_mmshare_version>
53161

> <i_f3d_flags>
0

> <r_lp_tautomer_probability>
1

> <s_lp_Force_Field>
OPLS_2005

> <r_lp_Energy>
33.959993

> <b_lp_Chiralities_Consistent>
1

> <s_lp_Variant>
CHEMBL1994_lig1040-2

> <s_i_glide_gridfile>
glide-grid_2aa2

> <i_i_glide_lignum>
1501

> <i_i_glide_rotatable_bonds>
4

> <r_i_docking_score>
-8.26472798902141

> <r_i_glide_ligand_efficiency>
-0.317874153423901

> <r_i_glide_ligand_efficiency_sa>
-0.941700928743909

> <r_i_glide_ligand_efficiency_ln>
-1.94094424943724

> <r_i_glide_gscore>
-8.26472798902141

> <r_i_glide_lipo>
-3.91740908755543

> <r_i_glide_hbond>
-0.258569585937332

> <r_i_glide_metal>
0

> <r_i_glide_rewards>
-2.78185711221962

> <r_i_glide_evdw>
-21.8501129150391

> <r_i_glide_ecoul>
-2.29412388801575

> <r_i_glide_erotb>
0.134139879165096

> <r_i_glide_esite>
-0.00440785351981194

> <r_i_glide_emodel>
-21.2630067129204

> <r_i_glide_energy>
-24.1442368030548

> <r_i_glide_einternal>
9.14030265808105

> <i_i_glide_confnum>
4

> <i_i_glide_posenum>
192

> <r_i_glide_eff_state_penalty>
0

> <s_user_duplicate_titles>
CHEMBL1994_lig1040

> <s_m_subgroup_title>
dock_pv

> <s_m_subgroupid>
dock_pv

> <b_m_subgroup_collapsed>
1

$$$$
CHEMBL1994_lig882
                    3D
 Schrodinger Suite 2021-1.
 44 47  0  0  1  0            999 V2000
   21.3047   70.7037   17.2351 C   0  0  2  0  0  0
   19.8291   73.2571   19.3674 C   0  0  0  0  0  0
   21.0360   73.4050   20.0648 C   0  0  0  0  0  0
   21.1139   74.1829   21.2218 C   0  0  0  0  0  0
   18.7151   73.9976   19.7964 C   0  0  0  0  0  0
   18.7647   74.7185   20.9915 C   0  0  0  0  0  0
   19.9584   74.7813   21.7072 C   0  0  0  0  0  0
   20.0028   75.4622   22.9035 O   0  0  0  0  0  0
   18.7684   75.4429   23.6655 C   0  0  0  0  0  0
   17.4965   75.7242   22.8247 C   0  0  0  0  0  0
   17.6373   75.3301   21.5417 N   0  0  0  0  0  0
   16.4844   76.2591   23.2699 O   0  0  0  0  0  0
   19.7033   72.2811   18.3735 N   0  0  0  0  0  0
   20.7071   72.1122   17.3417 C   0  0  0  0  0  0
   20.2376   69.8802   16.8054 O   0  0  0  0  0  0
   19.1814   69.7887   17.7453 C   0  0  0  0  0  0
   18.7646   71.1260   18.4290 C   0  0  1  0  0  0
   18.3916   70.8643   19.8729 C   0  0  0  0  0  0
   19.3108   70.3478   20.7852 C   0  0  0  0  0  0
   19.1636   70.6647   22.1180 C   0  0  0  0  0  0
   18.0251   71.3154   22.5707 C   0  0  0  0  0  0
   17.0407   71.6767   21.6670 C   0  0  0  0  0  0
   17.2363   71.4584   20.3243 C   0  0  0  0  0  0
   22.1009   70.2786   18.4694 C   0  0  0  0  0  0
   21.9921   70.6691   16.3936 H   0  0  0  0  0  0
   21.9068   72.8497   19.7575 H   0  0  0  0  0  0
   22.0395   74.2604   21.7733 H   0  0  0  0  0  0
   17.7830   73.9141   19.2589 H   0  0  0  0  0  0
   18.6300   74.4497   24.0956 H   0  0  0  0  0  0
   18.7975   76.1759   24.4690 H   0  0  0  0  0  0
   16.8039   75.4385   20.9845 H   0  0  0  0  0  0
   20.2410   72.3533   16.4002 H   0  0  0  0  0  0
   21.4898   72.8568   17.4080 H   0  0  0  0  0  0
   19.4410   69.0514   18.4908 H   0  0  0  0  0  0
   18.3224   69.3682   17.2251 H   0  0  0  0  0  0
   17.8649   71.4570   17.9066 H   0  0  0  0  0  0
   20.1886   69.8051   20.4928 H   0  0  0  0  0  0
   19.9294   70.4011   22.8305 H   0  0  0  0  0  0
   17.9036   71.5270   23.6211 H   0  0  0  0  0  0
   16.1554   72.1939   21.9703 H   0  0  0  0  0  0
   16.5726   71.8619   19.6055 H   0  0  0  0  0  0
   23.0397   70.8276   18.5053 H   0  0  0  0  0  0
   21.6110   70.5542   19.3873 H   0  0  0  0  0  0
   22.3144   69.2148   18.4727 H   0  0  0  0  0  0
  1 14  1  0  0  0
  1 15  1  0  0  0
  1 24  1  0  0  0
  1 25  1  0  0  0
  2  3  2  0  0  0
  2  5  1  0  0  0
  2 13  1  0  0  0
  3  4  1  0  0  0
  3 26  1  0  0  0
  4  7  2  0  0  0
  4 27  1  0  0  0
  5  6  2  0  0  0
  5 28  1  0  0  0
  6  7  1  0  0  0
  6 11  1  0  0  0
  7  8  1  0  0  0
  8  9  1  0  0  0
  9 10  1  0  0  0
  9 29  1  0  0  0
  9 30  1  0  0  0
 10 11  1  0  0  0
 10 12  2  0  0  0
 11 31  1  0  0  0
 13 14  1  0  0  0
 13 17  1  0  0  0
 14 32  1  0  0  0
 14 33  1  0  0  0
 15 16  1  0  0  0
 16 17  1  0  0  0
 16 34  1  0  0  0
 16 35  1  0  0  0
 17 18  1  0  0  0
 17 36  1  0  0  0
 18 19  2  0  0  0
 18 23  1  0  0  0
 19 20  1  0  0  0
 19 37  1  0  0  0
 20 21  2  0  0  0
 20 38  1  0  0  0
 21 22  1  0  0  0
 21 39  1  0  0  0
 22 23  2  0  0  0
 22 40  1  0  0  0
 23 41  1  0  0  0
 24 42  1  0  0  0
 24 43  1  0  0  0
 24 44  1  0  0  0
M  END
> <s_m_entry_id>
9672

> <s_m_entry_name>
dock_pv.112

> <s_m_Source_Path>
/home/csk/Desktop/cluster/DUD-E-result/mcr

> <s_m_Source_File>
dock_pv.maegz

> <i_m_Source_File_Index>
112

> <chembl_id>
CHEMBL4097160

> <chembl_pref_name>
None

> <i_lp_mmshare_version>
53161

> <i_f3d_flags>
0

> <r_lp_tautomer_probability>
1

> <s_lp_Force_Field>
OPLS_2005

> <r_lp_Energy>
36.66993

> <b_lp_Chiralities_Consistent>
1

> <s_lp_Variant>
CHEMBL1994_lig882-1

> <s_i_glide_gridfile>
glide-grid_2aa2

> <i_i_glide_lignum>
1325

> <i_i_glide_rotatable_bonds>
2

> <r_i_docking_score>
-8.25520624266729

> <r_i_glide_ligand_efficiency>
-0.343966926777804

> <r_i_glide_ligand_efficiency_sa>
-0.992172303639436

> <r_i_glide_ligand_efficiency_ln>
-1.97584966060138

> <r_i_glide_gscore>
-8.25520624266729

> <r_i_glide_lipo>
-4.2811177060998

> <r_i_glide_hbond>
0

> <r_i_glide_metal>
0

> <r_i_glide_rewards>
-2.55185120089352

> <r_i_glide_evdw>
-28.3332061767578

> <r_i_glide_ecoul>
-2.41025114059448

> <r_i_glide_erotb>
0.355960644253086

> <r_i_glide_esite>
0

> <r_i_glide_emodel>
-64.9560617737231

> <r_i_glide_energy>
-30.7434573173523

> <r_i_glide_einternal>
1.48128986358643

> <i_i_glide_confnum>
36

> <i_i_glide_posenum>
102

> <r_i_glide_eff_state_penalty>
0

> <s_user_duplicate_titles>
CHEMBL1994_lig882

> <s_m_subgroup_title>
dock_pv

> <s_m_subgroupid>
dock_pv

> <b_m_subgroup_collapsed>
1

$$$$
CHEMBL1994_lig21
                    3D
 Schrodinger Suite 2021-1.
 40 43  0  0  1  0            999 V2000
   19.9715   75.1034   21.8307 C   0  0  0  0  0  0
   17.9399   73.9708   21.1041 C   0  0  0  0  0  0
   19.3123   74.1714   20.8883 C   0  0  0  0  0  0
   17.2360   74.8835   21.9301 N   0  0  0  0  0  0
   17.7913   75.6709   22.8914 C   0  0  0  0  0  0
   19.2301   75.6644   22.8271 C   0  0  0  0  0  0
   17.9622   72.1807   19.4951 C   0  0  0  0  0  0
   19.2970   72.4113   19.2292 C   0  0  0  0  0  0
   17.4411   71.1650   18.7049 N   0  0  0  0  0  0
   21.4723   75.2852   21.7572 C   0  0  0  0  0  0
   17.3037   72.9089   20.4701 C   0  0  0  0  0  0
   19.9841   73.4108   19.9171 C   0  0  0  0  0  0
   19.7977   71.3536   18.2844 C   0  0  2  0  0  0
   18.5103   70.5327   17.9484 C   0  0  1  0  0  0
   17.1833   76.4114   23.6674 O   0  0  0  0  0  0
   21.8410   75.8621   22.8700 F   0  0  0  0  0  0
   22.1175   74.1294   21.6698 F   0  0  0  0  0  0
   21.8068   76.0619   20.7337 F   0  0  0  0  0  0
   15.8113   75.0509   21.6697 C   0  0  0  0  0  0
   20.9000   70.4918   18.9486 C   0  0  0  0  0  0
   18.6004   69.0459   18.3496 C   0  0  0  0  0  0
   20.3414   69.6989   20.1557 C   0  0  0  0  0  0
   19.0410   68.9095   19.8313 C   0  0  0  0  0  0
   20.1900   71.7982   17.3684 H   0  0  0  0  0  0
   18.2853   70.6089   16.8840 H   0  0  0  0  0  0
   19.6970   76.2620   23.5932 H   0  0  0  0  0  0
   16.5445   71.1023   18.2461 H   0  0  0  0  0  0
   16.2787   72.6647   20.6959 H   0  0  0  0  0  0
   21.0375   73.5432   19.7271 H   0  0  0  0  0  0
   15.3179   75.7251   22.3702 H   0  0  0  0  0  0
   15.6881   75.4620   20.6698 H   0  0  0  0  0  0
   15.2665   74.1102   21.6965 H   0  0  0  0  0  0
   21.7462   71.1122   19.2475 H   0  0  0  0  0  0
   21.3049   69.7966   18.2124 H   0  0  0  0  0  0
   19.2843   68.5367   17.6699 H   0  0  0  0  0  0
   17.6357   68.5546   18.2104 H   0  0  0  0  0  0
   20.1297   70.3988   20.9660 H   0  0  0  0  0  0
   21.1177   69.0606   20.5644 H   0  0  0  0  0  0
   18.2465   69.2979   20.4679 H   0  0  0  0  0  0
   19.1124   67.8620   20.1147 H   0  0  0  0  0  0
  1  3  1  0  0  0
  1  6  2  0  0  0
  1 10  1  0  0  0
  2  3  2  0  0  0
  2 11  1  0  0  0
  2  4  1  0  0  0
  3 12  1  0  0  0
  4  5  1  0  0  0
  4 19  1  0  0  0
  5  6  1  0  0  0
  5 15  2  0  0  0
  6 26  1  0  0  0
  7  8  1  0  0  0
  7  9  1  0  0  0
  7 11  2  0  0  0
  8 12  2  0  0  0
  8 13  1  0  0  0
  9 14  1  0  0  0
  9 27  1  0  0  0
 10 16  1  0  0  0
 10 17  1  0  0  0
 10 18  1  0  0  0
 11 28  1  0  0  0
 12 29  1  0  0  0
 13 14  1  0  0  0
 13 20  1  0  0  0
 13 24  1  0  0  0
 14 21  1  0  0  0
 14 25  1  0  0  0
 19 30  1  0  0  0
 19 31  1  0  0  0
 19 32  1  0  0  0
 20 22  1  0  0  0
 20 33  1  0  0  0
 20 34  1  0  0  0
 21 23  1  0  0  0
 21 35  1  0  0  0
 21 36  1  0  0  0
 22 23  1  0  0  0
 22 37  1  0  0  0
 22 38  1  0  0  0
 23 39  1  0  0  0
 23 40  1  0  0  0
M  END
> <s_m_entry_id>
9673

> <s_m_entry_name>
dock_pv.113

> <s_m_Source_Path>
/home/csk/Desktop/cluster/DUD-E-result/mcr

> <s_m_Source_File>
dock_pv.maegz

> <i_m_Source_File_Index>
113

> <chembl_id>
CHEMBL163425

> <chembl_pref_name>
None

> <i_lp_mmshare_version>
53161

> <i_f3d_flags>
0

> <r_lp_tautomer_probability>
1

> <s_lp_Force_Field>
OPLS_2005

> <r_lp_Energy>
50.565167

> <b_lp_Chiralities_Consistent>
1

> <s_lp_Variant>
CHEMBL1994_lig21-1

> <s_i_glide_gridfile>
glide-grid_2aa2

> <i_i_glide_lignum>
22

> <i_i_glide_rotatable_bonds>
1

> <r_i_docking_score>
-8.25231739197622

> <r_i_glide_ligand_efficiency>
-0.358796408346792

> <r_i_glide_ligand_efficiency_sa>
-1.02036925712033

> <r_i_glide_ligand_efficiency_ln>
-1.99548517325688

> <r_i_glide_gscore>
-8.25231739197622

> <r_i_glide_lipo>
-4.05665951105667

> <r_i_glide_hbond>
0

> <r_i_glide_metal>
0

> <r_i_glide_rewards>
-2.69891974286971

> <r_i_glide_evdw>
-29.6721801757812

> <r_i_glide_ecoul>
-0.0875275284051895

> <r_i_glide_erotb>
0

> <r_i_glide_esite>
0

> <r_i_glide_emodel>
-30.7278850005428

> <r_i_glide_energy>
-29.7597077041864

> <r_i_glide_einternal>
2.41081213951111

> <i_i_glide_confnum>
1

> <i_i_glide_posenum>
132

> <r_i_glide_eff_state_penalty>
0

> <s_user_duplicate_titles>
CHEMBL1994_lig21

> <s_m_subgroup_title>
dock_pv

> <s_m_subgroupid>
dock_pv

> <b_m_subgroup_collapsed>
1

$$$$
CHEMBL1994_lig811
                    3D
 Schrodinger Suite 2021-1.
 37 38  0  0  1  0            999 V2000
   20.5016   72.6175   17.8751 C   0  0  0  0  0  0
   19.2657   72.1853   18.6923 C   0  0  2  0  0  0
   18.3845   73.2946   18.5865 O   0  0  0  0  0  0
   19.6293   71.9687   20.1857 C   0  0  0  0  0  0
   20.0140   73.2273   20.9576 C   0  0  0  0  0  0
   21.3068   73.7475   20.8705 C   0  0  0  0  0  0
   21.6357   74.8558   21.6449 C   0  0  0  0  0  0
   20.7470   75.4612   22.4679 N   0  0  0  0  0  0
   19.4755   74.9921   22.5079 C   0  0  0  0  0  0
   18.6036   75.7303   23.3168 N   0  0  0  0  0  0
   17.2825   75.8905   23.1362 C   0  0  0  0  0  0
   16.6180   75.4620   22.1959 O   0  0  0  0  0  0
   16.7422   76.6622   24.0699 N   0  0  0  0  0  0
   19.0774   73.8605   21.7785 C   0  0  0  0  0  0
   18.6088   70.9078   18.1373 C   0  0  0  0  0  0
   19.3211   69.9880   17.3498 C   0  0  0  0  0  0
   18.6765   68.8815   16.8085 C   0  0  0  0  0  0
   17.3219   68.6902   17.0605 C   0  0  0  0  0  0
   16.6151   69.5598   17.8776 C   0  0  0  0  0  0
   17.2583   70.6640   18.4159 C   0  0  0  0  0  0
   21.3411   71.9334   17.9978 H   0  0  0  0  0  0
   20.2483   72.6619   16.8200 H   0  0  0  0  0  0
   20.8631   73.6063   18.1595 H   0  0  0  0  0  0
   17.9008   73.3805   19.4112 H   0  0  0  0  0  0
   18.7967   71.4933   20.7086 H   0  0  0  0  0  0
   20.4428   71.2448   20.2665 H   0  0  0  0  0  0
   22.0533   73.2683   20.2552 H   0  0  0  0  0  0
   22.6349   75.2661   21.6298 H   0  0  0  0  0  0
   19.0391   76.2965   24.0257 H   0  0  0  0  0  0
   15.7896   76.9630   23.9512 H   0  0  0  0  0  0
   17.2892   77.0128   24.8490 H   0  0  0  0  0  0
   18.0715   73.4724   21.8587 H   0  0  0  0  0  0
   20.3694   70.1270   17.1295 H   0  0  0  0  0  0
   19.2248   68.1852   16.1917 H   0  0  0  0  0  0
   16.7982   67.8622   16.6243 H   0  0  0  0  0  0
   15.5682   69.3886   18.0828 H   0  0  0  0  0  0
   16.6910   71.3415   19.0372 H   0  0  0  0  0  0
  1  2  1  0  0  0
  1 21  1  0  0  0
  1 22  1  0  0  0
  1 23  1  0  0  0
  2  3  1  0  0  0
  2  4  1  0  0  0
  2 15  1  0  0  0
  3 24  1  0  0  0
  4  5  1  0  0  0
  4 25  1  0  0  0
  4 26  1  0  0  0
  5  6  2  0  0  0
  5 14  1  0  0  0
  6  7  1  0  0  0
  6 27  1  0  0  0
  7  8  2  0  0  0
  7 28  1  0  0  0
  8  9  1  0  0  0
  9 10  1  0  0  0
  9 14  2  0  0  0
 10 11  1  0  0  0
 10 29  1  0  0  0
 11 12  2  0  0  0
 11 13  1  0  0  0
 13 30  1  0  0  0
 13 31  1  0  0  0
 14 32  1  0  0  0
 15 16  2  0  0  0
 15 20  1  0  0  0
 16 17  1  0  0  0
 16 33  1  0  0  0
 17 18  2  0  0  0
 17 34  1  0  0  0
 18 19  1  0  0  0
 18 35  1  0  0  0
 19 20  2  0  0  0
 19 36  1  0  0  0
 20 37  1  0  0  0
M  END
> <s_m_entry_id>
9674

> <s_m_entry_name>
dock_pv.114

> <s_m_Source_Path>
/home/csk/Desktop/cluster/DUD-E-result/mcr

> <s_m_Source_File>
dock_pv.maegz

> <i_m_Source_File_Index>
114

> <chembl_id>
CHEMBL3643676

> <chembl_pref_name>
None

> <i_lp_mmshare_version>
53161

> <i_f3d_flags>
0

> <r_lp_tautomer_probability>
1

> <s_lp_Force_Field>
OPLS_2005

> <r_lp_Energy>
11.890854

> <b_lp_Chiralities_Consistent>
1

> <s_lp_Variant>
CHEMBL1994_lig811-2

> <s_i_glide_gridfile>
glide-grid_2aa2

> <i_i_glide_lignum>
1232

> <i_i_glide_rotatable_bonds>
6

> <r_i_docking_score>
-8.25057004631716

> <r_i_glide_ligand_efficiency>
-0.412528502315858

> <r_i_glide_ligand_efficiency_sa>
-1.1197746329155

> <r_i_glide_ligand_efficiency_ln>
-2.06484556058074

> <r_i_glide_gscore>
-8.25057004631716

> <r_i_glide_lipo>
-4.04401057175016

> <r_i_glide_hbond>
-0.32

> <r_i_glide_metal>
0

> <r_i_glide_rewards>
-2.49299912685257

> <r_i_glide_evdw>
-41.0541038513184

> <r_i_glide_ecoul>
-2.09085416793823

> <r_i_glide_erotb>
0.972772970042216

> <r_i_glide_esite>
0

> <r_i_glide_emodel>
-59.3728566004827

> <r_i_glide_energy>
-43.1449580192566

> <r_i_glide_einternal>
7.5577917098999

> <i_i_glide_confnum>
31

> <i_i_glide_posenum>
102

> <r_i_glide_eff_state_penalty>
0

> <s_user_duplicate_titles>
CHEMBL1994_lig811

> <s_m_subgroup_title>
dock_pv

> <s_m_subgroupid>
dock_pv

> <b_m_subgroup_collapsed>
1

$$$$
CHEMBL1994_lig688
                    3D
 Schrodinger Suite 2021-1.
 38 41  0  0  1  0            999 V2000
   16.6579   69.2110   18.4700 O   0  0  0  0  0  0
   16.7569   68.8006   17.0931 C   0  0  0  0  0  0
   18.2163   68.6745   16.5585 C   0  0  0  0  0  0
   19.0433   69.5517   17.1604 N   0  0  0  0  0  0
   18.6964   70.4363   18.1836 C   0  0  0  0  0  0
   17.4731   70.2617   18.8285 C   0  0  0  0  0  0
   19.5517   71.4487   18.6153 C   0  0  0  0  0  0
   19.1879   72.2466   19.7163 C   0  0  0  0  0  0
   17.9724   72.0540   20.3556 C   0  0  0  0  0  0
   17.1260   71.0620   19.9145 C   0  0  0  0  0  0
   18.5681   67.8999   15.6707 O   0  0  0  0  0  0
   22.1686   73.9139   20.8700 N   0  0  0  0  0  0
   21.4424   73.0620   20.1589 N   0  0  0  0  0  0
   20.1072   73.2275   20.3024 C   0  0  0  0  0  0
   20.0189   74.3073   21.1797 C   0  0  0  0  0  0
   21.3177   74.8164   21.2249 C   0  0  0  0  0  0
   21.8410   76.1356   21.6700 C   0  0  0  0  0  0
   18.9138   74.8193   22.0068 C   0  0  0  0  0  0
   19.1583   74.6998   23.3732 C   0  0  0  0  0  0
   18.2410   75.1774   24.2894 C   0  0  0  0  0  0
   17.0894   75.7832   23.8325 C   0  0  0  0  0  0
   16.7948   75.8429   22.4723 C   0  0  0  0  0  0
   17.7189   75.3641   21.5424 C   0  0  0  0  0  0
   16.2410   76.2620   24.7486 F   0  0  0  0  0  0
   16.2410   67.8620   16.9500 H   0  0  0  0  0  0
   16.2505   69.5423   16.4775 H   0  0  0  0  0  0
   19.9853   69.5501   16.8000 H   0  0  0  0  0  0
   20.5057   71.5855   18.1272 H   0  0  0  0  0  0
   17.6920   72.6212   21.2302 H   0  0  0  0  0  0
   16.2413   70.9066   20.4992 H   0  0  0  0  0  0
   21.8654   72.2592   19.7163 H   0  0  0  0  0  0
   21.8410   76.2224   22.7557 H   0  0  0  0  0  0
   22.8762   76.2620   21.3577 H   0  0  0  0  0  0
   21.2696   76.9624   21.2497 H   0  0  0  0  0  0
   20.0703   74.2435   23.7277 H   0  0  0  0  0  0
   18.4251   75.0969   25.3503 H   0  0  0  0  0  0
   15.8564   76.2620   22.1430 H   0  0  0  0  0  0
   17.5189   75.4297   20.4828 H   0  0  0  0  0  0
  1  2  1  0  0  0
  1  6  1  0  0  0
  2  3  1  0  0  0
  2 25  1  0  0  0
  2 26  1  0  0  0
  3  4  1  0  0  0
  3 11  2  0  0  0
  4  5  1  0  0  0
  4 27  1  0  0  0
  5  6  1  0  0  0
  5  7  2  0  0  0
  6 10  2  0  0  0
  7  8  1  0  0  0
  7 28  1  0  0  0
  8  9  2  0  0  0
  8 14  1  0  0  0
  9 10  1  0  0  0
  9 29  1  0  0  0
 10 30  1  0  0  0
 12 16  2  0  0  0
 12 13  1  0  0  0
 13 31  1  0  0  0
 13 14  1  0  0  0
 14 15  2  0  0  0
 15 16  1  0  0  0
 15 18  1  0  0  0
 16 17  1  0  0  0
 17 32  1  0  0  0
 17 33  1  0  0  0
 17 34  1  0  0  0
 18 19  1  0  0  0
 18 23  2  0  0  0
 19 20  2  0  0  0
 19 35  1  0  0  0
 20 21  1  0  0  0
 20 36  1  0  0  0
 21 22  2  0  0  0
 21 24  1  0  0  0
 22 23  1  0  0  0
 22 37  1  0  0  0
 23 38  1  0  0  0
M  END
> <s_m_entry_id>
9675

> <s_m_entry_name>
dock_pv.115

> <s_m_Source_Path>
/home/csk/Desktop/cluster/DUD-E-result/mcr

> <s_m_Source_File>
dock_pv.maegz

> <i_m_Source_File_Index>
115

> <chembl_id>
CHEMBL3337723

> <chembl_pref_name>
None

> <i_lp_mmshare_version>
53161

> <i_f3d_flags>
0

> <r_lp_tautomer_probability>
0.5

> <s_lp_Force_Field>
OPLS_2005

> <r_lp_Energy>
23.4393

> <b_lp_Chiralities_Consistent>
1

> <s_lp_Variant>
CHEMBL1994_lig688-2

> <s_i_glide_gridfile>
glide-grid_2aa2

> <i_i_glide_lignum>
1100

> <i_i_glide_rotatable_bonds>
2

> <r_i_docking_score>
-8.24797474009458

> <r_i_glide_ligand_efficiency>
-0.343665614170607

> <r_i_glide_ligand_efficiency_sa>
-0.991303167683842

> <r_i_glide_ligand_efficiency_ln>
-1.9741188302037

> <r_i_glide_gscore>
-8.24797474009458

> <r_i_glide_lipo>
-4.18030354916882

> <r_i_glide_hbond>
-0.134837397186329

> <r_i_glide_metal>
0

> <r_i_glide_rewards>
-2.47683473444564

> <r_i_glide_evdw>
-25.6539535522461

> <r_i_glide_ecoul>
-3.28326869010925

> <r_i_glide_erotb>
0.35800756523728

> <r_i_glide_esite>
-0.0388186434023797

> <r_i_glide_emodel>
-37.8526469292393

> <r_i_glide_energy>
-28.9372222423553

> <r_i_glide_einternal>
2.01242542266846

> <i_i_glide_confnum>
6

> <i_i_glide_posenum>
44

> <r_i_glide_eff_state_penalty>
0

> <s_user_duplicate_titles>
CHEMBL1994_lig688

> <s_m_subgroup_title>
dock_pv

> <s_m_subgroupid>
dock_pv

> <b_m_subgroup_collapsed>
1

$$$$
CHEMBL1994_lig690
                    3D
 Schrodinger Suite 2021-1.
 38 41  0  0  1  0            999 V2000
   16.6806   69.2437   18.4700 O   0  0  0  0  0  0
   16.7581   68.8065   17.0986 C   0  0  0  0  0  0
   18.2096   68.6820   16.5442 C   0  0  0  0  0  0
   19.0410   69.5810   17.1096 N   0  0  0  0  0  0
   18.7194   70.4674   18.1403 C   0  0  0  0  0  0
   17.5135   70.2874   18.8158 C   0  0  0  0  0  0
   19.5896   71.4771   18.5594 C   0  0  0  0  0  0
   19.2720   72.2516   19.6916 C   0  0  0  0  0  0
   18.0929   72.0158   20.3855 C   0  0  0  0  0  0
   17.2094   71.0620   19.9332 C   0  0  0  0  0  0
   18.5539   67.8891   15.6701 O   0  0  0  0  0  0
   21.3453   74.8554   21.2171 N   0  0  0  0  0  0
   22.2410   73.9621   20.8700 N   0  0  0  0  0  0
   21.5778   73.0874   20.1593 C   0  0  0  0  0  0
   20.2160   73.2355   20.2557 C   0  0  0  0  0  0
   20.0633   74.3866   21.0413 C   0  0  0  0  0  0
   21.8394   76.1228   21.7215 C   0  0  0  0  0  0
   18.8770   75.0011   21.6650 C   0  0  0  0  0  0
   18.9746   75.3888   23.0041 C   0  0  0  0  0  0
   17.8533   75.8441   23.6701 C   0  0  0  0  0  0
   16.6410   75.8620   23.0030 C   0  0  0  0  0  0
   16.5242   75.4620   21.6768 C   0  0  0  0  0  0
   17.6592   75.0622   20.9877 C   0  0  0  0  0  0
   15.5547   76.2620   23.6700 F   0  0  0  0  0  0
   16.2412   67.8620   16.9824 H   0  0  0  0  0  0
   16.2429   69.5383   16.4792 H   0  0  0  0  0  0
   19.9760   69.5782   16.7314 H   0  0  0  0  0  0
   20.5260   71.6268   18.0420 H   0  0  0  0  0  0
   17.8647   72.5287   21.3069 H   0  0  0  0  0  0
   16.3346   70.8934   20.5322 H   0  0  0  0  0  0
   22.0942   72.2748   19.6695 H   0  0  0  0  0  0
   21.8033   76.1407   22.8090 H   0  0  0  0  0  0
   22.8784   76.2620   21.4238 H   0  0  0  0  0  0
   21.2524   76.9248   21.2700 H   0  0  0  0  0  0
   19.8995   75.2963   23.5515 H   0  0  0  0  0  0
   17.9066   76.1379   24.7074 H   0  0  0  0  0  0
   15.5585   75.4620   21.1961 H   0  0  0  0  0  0
   17.5827   74.7491   19.9563 H   0  0  0  0  0  0
  1  2  1  0  0  0
  1  6  1  0  0  0
  2  3  1  0  0  0
  2 25  1  0  0  0
  2 26  1  0  0  0
  3  4  1  0  0  0
  3 11  2  0  0  0
  4  5  1  0  0  0
  4 27  1  0  0  0
  5  6  1  0  0  0
  5  7  2  0  0  0
  6 10  2  0  0  0
  7  8  1  0  0  0
  7 28  1  0  0  0
  8  9  2  0  0  0
  8 15  1  0  0  0
  9 10  1  0  0  0
  9 29  1  0  0  0
 10 30  1  0  0  0
 12 13  1  0  0  0
 12 16  1  0  0  0
 12 17  1  0  0  0
 13 14  2  0  0  0
 14 15  1  0  0  0
 14 31  1  0  0  0
 15 16  2  0  0  0
 16 18  1  0  0  0
 17 32  1  0  0  0
 17 33  1  0  0  0
 17 34  1  0  0  0
 18 19  1  0  0  0
 18 23  2  0  0  0
 19 20  2  0  0  0
 19 35  1  0  0  0
 20 21  1  0  0  0
 20 36  1  0  0  0
 21 22  2  0  0  0
 21 24  1  0  0  0
 22 23  1  0  0  0
 22 37  1  0  0  0
 23 38  1  0  0  0
M  END
> <s_m_entry_id>
9676

> <s_m_entry_name>
dock_pv.116

> <s_m_Source_Path>
/home/csk/Desktop/cluster/DUD-E-result/mcr

> <s_m_Source_File>
dock_pv.maegz

> <i_m_Source_File_Index>
116

> <chembl_id>
CHEMBL3337725

> <chembl_pref_name>
None

> <i_lp_mmshare_version>
53161

> <i_f3d_flags>
0

> <r_lp_tautomer_probability>
1

> <s_lp_Force_Field>
OPLS_2005

> <r_lp_Energy>
24.06946

> <b_lp_Chiralities_Consistent>
1

> <s_lp_Variant>
CHEMBL1994_lig690-1

> <s_i_glide_gridfile>
glide-grid_2aa2

> <i_i_glide_lignum>
1102

> <i_i_glide_rotatable_bonds>
2

> <r_i_docking_score>
-8.23922430393587

> <r_i_glide_ligand_efficiency>
-0.343301012663995

> <r_i_glide_ligand_efficiency_sa>
-0.990251474952465

> <r_i_glide_ligand_efficiency_ln>
-1.97202444929957

> <r_i_glide_gscore>
-8.23922430393587

> <r_i_glide_lipo>
-3.91781124489274

> <r_i_glide_hbond>
-0.149979162276439

> <r_i_glide_metal>
0

> <r_i_glide_rewards>
-2.79119209098227

> <r_i_glide_evdw>
-23.7493495941162

> <r_i_glide_ecoul>
-3.53712725639343

> <r_i_glide_erotb>
0.35800756523728

> <r_i_glide_esite>
-0.0202128028568797

> <r_i_glide_emodel>
-27.5216372359763

> <r_i_glide_energy>
-27.2864768505096

> <r_i_glide_einternal>
0.455308198928833

> <i_i_glide_confnum>
15

> <i_i_glide_posenum>
315

> <r_i_glide_eff_state_penalty>
0

> <s_user_duplicate_titles>
CHEMBL1994_lig690

> <s_m_subgroup_title>
dock_pv

> <s_m_subgroupid>
dock_pv

> <b_m_subgroup_collapsed>
1

$$$$
CHEMBL1994_lig521
                    3D
 Schrodinger Suite 2021-1.
 36 39  0  0  1  0            999 V2000
   16.8275   68.9216   17.3113 C   0  0  0  0  0  0
   18.2410   68.9029   16.6562 C   0  0  0  0  0  0
   19.0611   69.8129   17.2175 N   0  0  0  0  0  0
   16.8470   69.2459   18.7135 O   0  0  0  0  0  0
   17.6132   70.3401   19.0501 C   0  0  0  0  0  0
   18.7485   70.6319   18.3030 C   0  0  0  0  0  0
   19.5544   71.6963   18.6902 C   0  0  0  0  0  0
   19.2644   72.4154   19.8666 C   0  0  0  0  0  0
   18.1484   72.0780   20.6257 C   0  0  0  0  0  0
   17.3174   71.0620   20.2042 C   0  0  0  0  0  0
   20.1809   73.4661   20.3052 C   0  0  0  0  0  0
   20.0527   74.5531   21.0778 C   0  0  0  0  0  0
   21.3743   75.1418   21.2459 C   0  0  0  0  0  0
   22.2410   74.2395   20.8700 O   0  0  0  0  0  0
   21.6016   73.2650   20.0700 C   0  0  0  0  0  0
   18.8404   75.0764   21.7023 C   0  0  0  0  0  0
   21.6919   76.2447   21.6700 O   0  0  0  0  0  0
   18.9020   75.4511   23.0505 C   0  0  0  0  0  0
   17.7589   75.8620   23.7128 C   0  0  0  0  0  0
   16.5519   75.8620   23.0344 C   0  0  0  0  0  0
   16.4630   75.4620   21.7082 C   0  0  0  0  0  0
   17.6170   75.1272   21.0196 C   0  0  0  0  0  0
   15.4486   76.2620   23.6700 F   0  0  0  0  0  0
   18.5596   68.1788   15.7151 O   0  0  0  0  0  0
   17.5273   74.8222   19.7050 F   0  0  0  0  0  0
   16.3334   67.9659   17.1476 H   0  0  0  0  0  0
   16.2539   69.6961   16.8029 H   0  0  0  0  0  0
   19.9661   69.8884   16.7789 H   0  0  0  0  0  0
   20.4264   71.9296   18.0969 H   0  0  0  0  0  0
   17.9250   72.5725   21.5591 H   0  0  0  0  0  0
   16.4708   70.8175   20.8209 H   0  0  0  0  0  0
   21.8410   73.3689   19.0133 H   0  0  0  0  0  0
   21.8410   72.2620   20.3742 H   0  0  0  0  0  0
   19.8332   75.4116   23.5975 H   0  0  0  0  0  0
   17.7999   76.1602   24.7497 H   0  0  0  0  0  0
   15.5060   75.4620   21.2113 H   0  0  0  0  0  0
  1  2  1  0  0  0
  1  4  1  0  0  0
  1 26  1  0  0  0
  1 27  1  0  0  0
  2  3  1  0  0  0
  2 24  2  0  0  0
  3  6  1  0  0  0
  3 28  1  0  0  0
  4  5  1  0  0  0
  5  6  2  0  0  0
  5 10  1  0  0  0
  6  7  1  0  0  0
  7  8  2  0  0  0
  7 29  1  0  0  0
  8  9  1  0  0  0
  8 11  1  0  0  0
  9 10  2  0  0  0
  9 30  1  0  0  0
 10 31  1  0  0  0
 11 12  2  0  0  0
 11 15  1  0  0  0
 12 13  1  0  0  0
 12 16  1  0  0  0
 13 14  1  0  0  0
 13 17  2  0  0  0
 14 15  1  0  0  0
 15 32  1  0  0  0
 15 33  1  0  0  0
 16 18  2  0  0  0
 16 22  1  0  0  0
 18 19  1  0  0  0
 18 34  1  0  0  0
 19 20  2  0  0  0
 19 35  1  0  0  0
 20 21  1  0  0  0
 20 23  1  0  0  0
 21 22  2  0  0  0
 21 36  1  0  0  0
 22 25  1  0  0  0
M  END
> <s_m_entry_id>
9677

> <s_m_entry_name>
dock_pv.117

> <s_m_Source_Path>
/home/csk/Desktop/cluster/DUD-E-result/mcr

> <s_m_Source_File>
dock_pv.maegz

> <i_m_Source_File_Index>
117

> <chembl_id>
CHEMBL2419303

> <chembl_pref_name>
None

> <i_lp_mmshare_version>
53161

> <i_f3d_flags>
0

> <r_lp_tautomer_probability>
0.999841193423406

> <s_lp_Force_Field>
OPLS_2005

> <r_lp_Energy>
30.651807

> <b_lp_Chiralities_Consistent>
1

> <s_lp_Variant>
CHEMBL1994_lig521-1

> <s_i_glide_gridfile>
glide-grid_2aa2

> <i_i_glide_lignum>
832

> <i_i_glide_rotatable_bonds>
2

> <r_i_docking_score>
-8.23807717930368

> <r_i_glide_ligand_efficiency>
-0.329523087172147

> <r_i_glide_ligand_efficiency_sa>
-0.963531351008193

> <r_i_glide_ligand_efficiency_ln>
-1.95267116674643

> <r_i_glide_gscore>
-8.23807717930368

> <r_i_glide_lipo>
-3.79797505991516

> <r_i_glide_hbond>
-0.00656657446899687

> <r_i_glide_metal>
0

> <r_i_glide_rewards>
-3.02554393369085

> <r_i_glide_evdw>
-23.4309310913086

> <r_i_glide_ecoul>
-3.61610794067383

> <r_i_glide_erotb>
0.322008320116697

> <r_i_glide_esite>
-0.0160371856788543

> <r_i_glide_emodel>
-29.707229706771

> <r_i_glide_energy>
-27.0470390319824

> <r_i_glide_einternal>
2.70078039169312

> <i_i_glide_confnum>
10

> <i_i_glide_posenum>
197

> <r_i_glide_eff_state_penalty>
0

> <s_user_duplicate_titles>
CHEMBL1994_lig521

> <s_m_subgroup_title>
dock_pv

> <s_m_subgroupid>
dock_pv

> <b_m_subgroup_collapsed>
1

$$$$
CHEMBL1994_lig951 
                    3D
 Schrodinger Suite 2021-1.
 43 46  0  0  1  0            999 V2000
   21.4387   73.4323   18.0727 O   0  0  0  0  0  0
   20.0074   73.2742   18.3400 S   0  0  0  0  0  0
   18.9758   73.8573   17.4771 O   0  0  0  0  0  0
   20.6577   74.2632   22.1597 C   0  0  0  0  0  0
   18.5217   74.3791   20.3374 C   0  0  0  0  0  0
   19.7738   73.9009   19.9548 C   0  0  0  0  0  0
   20.8491   73.8702   20.8465 C   0  0  0  0  0  0
   18.3413   74.7811   21.6499 C   0  0  0  0  0  0
   19.3970   74.6751   22.5551 C   0  0  0  0  0  0
   19.1651   74.8885   23.8823 O   0  0  0  0  0  0
   18.2037   75.9105   24.1592 C   0  0  0  0  0  0
   16.9315   75.8705   23.2854 C   0  0  0  0  0  0
   17.1305   75.2816   22.0957 N   0  0  0  0  0  0
   15.8430   76.2668   23.6707 O   0  0  0  0  0  0
   19.7062   71.5649   18.5421 N   0  0  0  0  0  0
   20.7772   70.7023   19.0115 C   0  0  2  0  0  0
   21.2743   69.8649   17.8155 C   0  0  0  0  0  0
   20.1838   69.3121   16.8654 C   0  0  0  0  0  0
   18.5991   70.8883   18.0092 C   0  0  0  0  0  0
   18.7937   69.6821   17.3151 C   0  0  0  0  0  0
   17.7025   68.8436   17.0898 C   0  0  0  0  0  0
   16.4330   69.2521   17.4738 C   0  0  0  0  0  0
   16.2440   70.4910   18.0520 C   0  0  0  0  0  0
   17.3286   71.2922   18.3735 C   0  0  0  0  0  0
   20.2466   69.9197   20.2340 C   0  0  0  0  0  0
   21.4676   74.2119   22.8678 H   0  0  0  0  0  0
   17.7028   74.4261   19.6317 H   0  0  0  0  0  0
   21.8222   73.5099   20.5414 H   0  0  0  0  0  0
   17.8917   75.8385   25.2007 H   0  0  0  0  0  0
   18.6567   76.8894   23.9961 H   0  0  0  0  0  0
   16.3136   75.2413   21.5050 H   0  0  0  0  0  0
   21.6161   71.3138   19.3436 H   0  0  0  0  0  0
   21.9339   70.5017   17.2219 H   0  0  0  0  0  0
   21.9238   69.0752   18.1838 H   0  0  0  0  0  0
   20.2396   68.2277   16.8523 H   0  0  0  0  0  0
   20.3482   69.6457   15.8435 H   0  0  0  0  0  0
   17.8345   67.8898   16.5963 H   0  0  0  0  0  0
   15.5611   68.6682   17.2774 H   0  0  0  0  0  0
   15.2492   70.8766   18.1716 H   0  0  0  0  0  0
   17.1868   72.2268   18.8969 H   0  0  0  0  0  0
   21.0385   69.3220   20.6905 H   0  0  0  0  0  0
   19.8519   70.5877   21.0071 H   0  0  0  0  0  0
   19.4447   69.2243   19.9786 H   0  0  0  0  0  0
  1  2  2  0  0  0
  2  3  2  0  0  0
  2  6  1  0  0  0
  2 15  1  0  0  0
  4  9  2  0  0  0
  4  7  1  0  0  0
  4 26  1  0  0  0
  5  8  2  0  0  0
  5  6  1  0  0  0
  5 27  1  0  0  0
  6  7  2  0  0  0
  7 28  1  0  0  0
  8  9  1  0  0  0
  8 13  1  0  0  0
  9 10  1  0  0  0
 10 11  1  0  0  0
 11 12  1  0  0  0
 11 29  1  0  0  0
 11 30  1  0  0  0
 12 13  1  0  0  0
 12 14  2  0  0  0
 13 31  1  0  0  0
 15 16  1  0  0  0
 15 19  1  0  0  0
 16 17  1  0  0  0
 16 25  1  0  0  0
 16 32  1  0  0  0
 17 18  1  0  0  0
 17 33  1  0  0  0
 17 34  1  0  0  0
 18 20  1  0  0  0
 18 35  1  0  0  0
 18 36  1  0  0  0
 19 20  2  0  0  0
 19 24  1  0  0  0
 20 21  1  0  0  0
 21 22  2  0  0  0
 21 37  1  0  0  0
 22 23  1  0  0  0
 22 38  1  0  0  0
 23 24  2  0  0  0
 23 39  1  0  0  0
 24 40  1  0  0  0
 25 41  1  0  0  0
 25 42  1  0  0  0
 25 43  1  0  0  0
M  END
> <s_m_entry_id>
9678

> <s_m_entry_name>
dock_pv.118

> <s_m_Source_Path>
/home/csk/Desktop/cluster/DUD-E-result/mcr

> <s_m_Source_File>
dock_pv.maegz

> <i_m_Source_File_Index>
118

> <chembl_id>
CHEMBL4467010

> <chembl_pref_name>
None

> <i_lp_mmshare_version>
53161

> <i_f3d_flags>
0

> <r_lp_tautomer_probability>
1

> <s_lp_Force_Field>
OPLS_2005

> <r_lp_Energy>
29.346599

> <b_lp_Chiralities_Consistent>
1

> <s_lp_Variant>
CHEMBL1994_lig951 -1

> <s_i_glide_gridfile>
glide-grid_2aa2

> <i_i_glide_lignum>
1391

> <i_i_glide_rotatable_bonds>
2

> <r_i_docking_score>
-8.22155225544017

> <r_i_glide_ligand_efficiency>
-0.328862090217607

> <r_i_glide_ligand_efficiency_sa>
-0.961598584190287

> <r_i_glide_ligand_efficiency_ln>
-1.94875426457877

> <r_i_glide_gscore>
-8.22155225544017

> <r_i_glide_lipo>
-4.1867713370628

> <r_i_glide_hbond>
-0.197661485046987

> <r_i_glide_metal>
0

> <r_i_glide_rewards>
-2.46194898729378

> <r_i_glide_evdw>
-22.0952453613281

> <r_i_glide_ecoul>
-3.79094457626343

> <r_i_glide_erotb>
0.29823350846931

> <r_i_glide_esite>
0

> <r_i_glide_emodel>
-41.1182855480398

> <r_i_glide_energy>
-25.8861899375916

> <r_i_glide_einternal>
0.388591021299362

> <i_i_glide_confnum>
21

> <i_i_glide_posenum>
16

> <r_i_glide_eff_state_penalty>
0

> <s_user_duplicate_titles>
CHEMBL1994_lig951 

> <s_m_subgroup_title>
dock_pv

> <s_m_subgroupid>
dock_pv

> <b_m_subgroup_collapsed>
1

$$$$
CHEMBL1994_lig32
                    3D
 Schrodinger Suite 2021-1.
 38 40  0  0  1  0            999 V2000
   18.7040   74.2844   20.8508 C   0  0  0  0  0  0
   19.2418   73.2334   19.9286 C   0  0  0  0  0  0
   20.6337   73.2004   19.7756 C   0  0  0  0  0  0
   17.1985   74.4164   21.0982 C   0  0  0  0  0  0
   19.0752   71.3614   18.3364 C   0  0  0  0  0  0
   20.4699   71.4223   18.1640 C   0  0  0  0  0  0
   21.4769   74.0492   20.4700 O   0  0  0  0  0  0
   21.0068   75.0751   21.2499 C   0  0  0  0  0  0
   18.4811   72.3009   19.2005 C   0  0  0  0  0  0
   19.5665   75.1310   21.4588 C   0  0  0  0  0  0
   21.1534   70.5878   17.2700 N   0  0  0  0  0  0
   21.2422   72.3048   18.9059 C   0  0  0  0  0  0
   18.2341   70.3065   17.6004 C   0  0  1  0  0  0
   20.4742   69.4620   16.6452 C   0  0  0  0  0  0
   21.8415   75.8620   21.6792 O   0  0  0  0  0  0
   18.9952   69.7450   16.3560 C   0  0  1  0  0  0
   16.6410   73.2205   21.2700 F   0  0  0  0  0  0
   16.9518   75.1363   22.1941 F   0  0  0  0  0  0
   16.6410   75.0507   20.0700 F   0  0  0  0  0  0
   17.7497   69.1956   18.5677 C   0  0  0  0  0  0
   18.3061   68.5441   15.6514 C   0  0  0  0  0  0
   16.3110   68.7254   18.2761 C   0  0  0  0  0  0
   17.4099   72.2752   19.2990 H   0  0  0  0  0  0
   19.1883   75.9006   22.1150 H   0  0  0  0  0  0
   22.1556   70.5021   17.3510 H   0  0  0  0  0  0
   22.3165   72.3024   18.7979 H   0  0  0  0  0  0
   17.3556   70.8397   17.2340 H   0  0  0  0  0  0
   21.0148   69.2081   15.7343 H   0  0  0  0  0  0
   20.5572   68.5921   17.2700 H   0  0  0  0  0  0
   19.0410   70.5211   15.6092 H   0  0  0  0  0  0
   18.4297   68.3430   18.5426 H   0  0  0  0  0  0
   17.7970   69.5496   19.5984 H   0  0  0  0  0  0
   18.4775   67.6096   16.1875 H   0  0  0  0  0  0
   17.2339   68.6620   15.5325 H   0  0  0  0  0  0
   18.6410   68.4184   14.6275 H   0  0  0  0  0  0
   16.0495   67.8620   18.8700 H   0  0  0  0  0  0
   15.5812   69.5084   18.4700 H   0  0  0  0  0  0
   16.1621   68.4040   17.2542 H   0  0  0  0  0  0
  1  2  1  0  0  0
  1  4  1  0  0  0
  1 10  2  0  0  0
  2  3  2  0  0  0
  2  9  1  0  0  0
  3 12  1  0  0  0
  3  7  1  0  0  0
  4 17  1  0  0  0
  4 18  1  0  0  0
  4 19  1  0  0  0
  5  9  2  0  0  0
  5  6  1  0  0  0
  5 13  1  0  0  0
  6 11  1  0  0  0
  6 12  2  0  0  0
  7  8  1  0  0  0
  8 10  1  0  0  0
  8 15  2  0  0  0
  9 23  1  0  0  0
 10 24  1  0  0  0
 11 14  1  0  0  0
 11 25  1  0  0  0
 12 26  1  0  0  0
 13 16  1  0  0  0
 13 20  1  0  0  0
 13 27  1  0  0  0
 14 16  1  0  0  0
 14 28  1  0  0  0
 14 29  1  0  0  0
 16 21  1  0  0  0
 16 30  1  0  0  0
 20 22  1  0  0  0
 20 31  1  0  0  0
 20 32  1  0  0  0
 21 33  1  0  0  0
 21 34  1  0  0  0
 21 35  1  0  0  0
 22 36  1  0  0  0
 22 37  1  0  0  0
 22 38  1  0  0  0
M  END
> <s_m_entry_id>
9679

> <s_m_entry_name>
dock_pv.119

> <s_m_Source_Path>
/home/csk/Desktop/cluster/DUD-E-result/mcr

> <s_m_Source_File>
dock_pv.maegz

> <i_m_Source_File_Index>
119

> <chembl_id>
CHEMBL2112311

> <chembl_pref_name>
None

> <i_lp_mmshare_version>
53161

> <i_f3d_flags>
0

> <r_lp_tautomer_probability>
1

> <s_lp_Force_Field>
OPLS_2005

> <r_lp_Energy>
19.929455

> <b_lp_Chiralities_Consistent>
1

> <s_lp_Variant>
CHEMBL1994_lig32-1

> <s_i_glide_gridfile>
glide-grid_2aa2

> <i_i_glide_lignum>
34

> <i_i_glide_rotatable_bonds>
2

> <r_i_docking_score>
-8.21702919725242

> <r_i_glide_ligand_efficiency>
-0.373501327147837

> <r_i_glide_ligand_efficiency_sa>
-1.0465654076419

> <r_i_glide_ligand_efficiency_ln>
-2.00854165923091

> <r_i_glide_gscore>
-8.21702919725242

> <r_i_glide_lipo>
-4.20065583868401

> <r_i_glide_hbond>
0

> <r_i_glide_metal>
0

> <r_i_glide_rewards>
-2.29051250060485

> <r_i_glide_evdw>
-36.1746063232422

> <r_i_glide_ecoul>
0.552463054656982

> <r_i_glide_erotb>
0

> <r_i_glide_esite>
0

> <r_i_glide_emodel>
-46.0201849019926

> <r_i_glide_energy>
-35.6221432685852

> <r_i_glide_einternal>
3.07668542861938

> <i_i_glide_confnum>
1

> <i_i_glide_posenum>
394

> <r_i_glide_eff_state_penalty>
0

> <s_user_duplicate_titles>
CHEMBL1994_lig32

> <s_m_subgroup_title>
dock_pv

> <s_m_subgroupid>
dock_pv

> <b_m_subgroup_collapsed>
1

$$$$
CHEMBL1994_lig537
                    3D
 Schrodinger Suite 2021-1.
 39 41  0  0  1  0            999 V2000
   18.7879   70.0072   18.6625 C   0  0  0  0  0  0
   20.0201   70.1088   18.0181 C   0  0  0  0  0  0
   20.2007   69.4643   16.8001 C   0  0  0  0  0  0
   19.1555   68.7278   16.2438 C   0  0  0  0  0  0
   17.9166   68.6600   16.8681 C   0  0  0  0  0  0
   17.7368   69.2864   18.0873 C   0  0  0  0  0  0
   18.4985   70.7411   19.9037 C   0  0  0  0  0  0
   17.3429   71.4245   20.1442 C   0  0  0  0  0  0
   17.3005   72.0366   21.3764 C   0  0  0  0  0  0
   18.4585   71.8952   22.1297 C   0  0  0  0  0  0
   19.5705   70.8475   21.2630 S   0  0  0  0  0  0
   18.7846   72.5411   23.4622 C   0  0  0  0  0  0
   18.2670   73.9306   23.5035 N   0  0  1  0  0  0
   19.1363   75.2665   22.7510 S   0  0  0  0  0  0
   19.2997   74.6688   21.0732 C   0  0  0  0  0  0
   20.4995   75.3234   23.2689 O   0  0  0  0  0  0
   18.2599   76.4391   22.7385 O   0  0  0  0  0  0
   20.4169   74.1294   20.4869 C   0  0  0  0  0  0
   20.0878   73.6927   19.2482 O   0  0  0  0  0  0
   18.7654   74.0481   18.9910 N   0  0  0  0  0  0
   18.3447   74.6674   20.0729 C   0  0  0  0  0  0
   21.8453   73.9483   20.9071 C   0  0  0  0  0  0
   16.9951   75.3166   20.0888 C   0  0  0  0  0  0
   20.8225   70.6946   18.4459 H   0  0  0  0  0  0
   21.1501   69.5231   16.2871 H   0  0  0  0  0  0
   19.3091   68.1882   15.3232 H   0  0  0  0  0  0
   17.1058   68.1035   16.4306 H   0  0  0  0  0  0
   16.7776   69.2149   18.5814 H   0  0  0  0  0  0
   16.5385   71.4593   19.4264 H   0  0  0  0  0  0
   16.4546   72.6359   21.6674 H   0  0  0  0  0  0
   19.8400   72.5526   23.7062 H   0  0  0  0  0  0
   18.2709   71.9848   24.2469 H   0  0  0  0  0  0
   17.2396   73.9974   23.5193 H   0  0  0  0  0  0
   21.9633   73.8610   21.9854 H   0  0  0  0  0  0
   22.2844   73.0627   20.4560 H   0  0  0  0  0  0
   22.4320   74.8142   20.6139 H   0  0  0  0  0  0
   16.6456   75.5572   21.0892 H   0  0  0  0  0  0
   17.0366   76.2434   19.5155 H   0  0  0  0  0  0
   16.2442   74.6709   19.6664 H   0  0  0  0  0  0
  1  2  2  0  0  0
  1  6  1  0  0  0
  1  7  1  0  0  0
  2  3  1  0  0  0
  2 24  1  0  0  0
  3  4  2  0  0  0
  3 25  1  0  0  0
  4  5  1  0  0  0
  4 26  1  0  0  0
  5  6  2  0  0  0
  5 27  1  0  0  0
  6 28  1  0  0  0
  7  8  2  0  0  0
  7 11  1  0  0  0
  8  9  1  0  0  0
  8 29  1  0  0  0
  9 10  2  0  0  0
  9 30  1  0  0  0
 10 11  1  0  0  0
 10 12  1  0  0  0
 12 13  1  0  0  0
 12 31  1  0  0  0
 12 32  1  0  0  0
 13 14  1  0  0  0
 13 33  1  0  0  0
 14 15  1  0  0  0
 14 16  2  0  0  0
 14 17  2  0  0  0
 15 18  2  0  0  0
 15 21  1  0  0  0
 18 19  1  0  0  0
 18 22  1  0  0  0
 19 20  1  0  0  0
 20 21  2  0  0  0
 21 23  1  0  0  0
 22 34  1  0  0  0
 22 35  1  0  0  0
 22 36  1  0  0  0
 23 37  1  0  0  0
 23 38  1  0  0  0
 23 39  1  0  0  0
M  END
> <s_m_entry_id>
9680

> <s_m_entry_name>
dock_pv.120

> <s_m_Source_Path>
/home/csk/Desktop/cluster/DUD-E-result/mcr

> <s_m_Source_File>
dock_pv.maegz

> <i_m_Source_File_Index>
120

> <chembl_id>
CHEMBL3086012

> <chembl_pref_name>
None

> <i_lp_mmshare_version>
53161

> <i_f3d_flags>
0

> <r_lp_tautomer_probability>
1

> <s_lp_Force_Field>
OPLS_2005

> <r_lp_Energy>
9.778334

> <b_lp_Chiralities_Consistent>
1

> <s_lp_Variant>
CHEMBL1994_lig537-1

> <s_i_glide_gridfile>
glide-grid_2aa2

> <i_i_glide_lignum>
848

> <i_i_glide_rotatable_bonds>
5

> <r_i_docking_score>
-8.20239019300166

> <r_i_glide_ligand_efficiency>
-0.35662566056529

> <r_i_glide_ligand_efficiency_sa>
-1.01419593918938

> <r_i_glide_ligand_efficiency_ln>
-1.98341232383002

> <r_i_glide_gscore>
-8.20239019300166

> <r_i_glide_lipo>
-4.28201010154485

> <r_i_glide_hbond>
-0.290212338440931

> <r_i_glide_metal>
0

> <r_i_glide_rewards>
-2.04887184061927

> <r_i_glide_evdw>
-34.29052734375

> <r_i_glide_ecoul>
-4.12018918991089

> <r_i_glide_erotb>
0.783970397967236

> <r_i_glide_esite>
-0.0327115646897148

> <r_i_glide_emodel>
-37.1161241325627

> <r_i_glide_energy>
-38.4107165336609

> <r_i_glide_einternal>
3.06832909584045

> <i_i_glide_confnum>
18

> <i_i_glide_posenum>
89

> <r_i_glide_eff_state_penalty>
0

> <s_user_duplicate_titles>
CHEMBL1994_lig537

> <s_m_subgroup_title>
dock_pv

> <s_m_subgroupid>
dock_pv

> <b_m_subgroup_collapsed>
1

$$$$
CHEMBL1994_lig689
                    3D
 Schrodinger Suite 2021-1.
 37 40  0  0  1  0            999 V2000
   16.4653   69.8482   17.9056 O   0  0  0  0  0  0
   16.8850   68.6620   17.2170 C   0  0  0  0  0  0
   18.2799   68.7006   16.5203 C   0  0  0  0  0  0
   19.0372   69.7356   16.9280 N   0  0  0  0  0  0
   18.7410   70.5704   18.0004 C   0  0  0  0  0  0
   17.4675   70.5140   18.5578 C   0  0  0  0  0  0
   19.6923   71.4079   18.5734 C   0  0  0  0  0  0
   19.3715   72.1249   19.7410 C   0  0  0  0  0  0
   18.1488   71.9182   20.3694 C   0  0  0  0  0  0
   17.1882   71.1497   19.7558 C   0  0  0  0  0  0
   18.6410   67.8929   15.6700 O   0  0  0  0  0  0
   22.2410   73.8720   20.8699 O   0  0  0  0  0  0
   21.5571   73.0064   20.0411 N   0  0  0  0  0  0
   20.2998   73.0904   20.3513 C   0  0  0  0  0  0
   20.0754   74.1532   21.2321 C   0  0  0  0  0  0
   21.3261   74.6565   21.4225 C   0  0  0  0  0  0
   21.8410   75.8766   22.0305 C   0  0  0  0  0  0
   18.8652   74.7266   21.8395 C   0  0  0  0  0  0
   17.7143   74.9501   21.0873 C   0  0  0  0  0  0
   16.5931   75.4617   21.7176 C   0  0  0  0  0  0
   16.6665   75.8204   23.0586 C   0  0  0  0  0  0
   17.8164   75.6218   23.8080 C   0  0  0  0  0  0
   18.9173   75.0523   23.1967 C   0  0  0  0  0  0
   15.5682   76.2622   23.6706 F   0  0  0  0  0  0
   16.9327   67.8628   17.9556 H   0  0  0  0  0  0
   16.1518   68.3725   16.4699 H   0  0  0  0  0  0
   19.9481   69.7796   16.4974 H   0  0  0  0  0  0
   20.6685   71.4996   18.1189 H   0  0  0  0  0  0
   17.9058   72.3748   21.3163 H   0  0  0  0  0  0
   16.2410   71.0800   20.2438 H   0  0  0  0  0  0
   21.1940   76.6621   21.6700 H   0  0  0  0  0  0
   21.8374   75.8623   23.1189 H   0  0  0  0  0  0
   22.8395   76.1256   21.6702 H   0  0  0  0  0  0
   17.6794   74.7026   20.0362 H   0  0  0  0  0  0
   15.6706   75.5893   21.1753 H   0  0  0  0  0  0
   17.8365   75.8627   24.8611 H   0  0  0  0  0  0
   19.8034   74.8553   23.7806 H   0  0  0  0  0  0
  1  2  1  0  0  0
  1  6  1  0  0  0
  2  3  1  0  0  0
  2 25  1  0  0  0
  2 26  1  0  0  0
  3  4  1  0  0  0
  3 11  2  0  0  0
  4  5  1  0  0  0
  4 27  1  0  0  0
  5  6  1  0  0  0
  5  7  2  0  0  0
  6 10  2  0  0  0
  7  8  1  0  0  0
  7 28  1  0  0  0
  8  9  2  0  0  0
  8 14  1  0  0  0
  9 10  1  0  0  0
  9 29  1  0  0  0
 10 30  1  0  0  0
 12 13  1  0  0  0
 12 16  1  0  0  0
 13 14  2  0  0  0
 14 15  1  0  0  0
 15 16  2  0  0  0
 15 18  1  0  0  0
 16 17  1  0  0  0
 17 31  1  0  0  0
 17 32  1  0  0  0
 17 33  1  0  0  0
 18 19  1  0  0  0
 18 23  2  0  0  0
 19 20  2  0  0  0
 19 34  1  0  0  0
 20 21  1  0  0  0
 20 35  1  0  0  0
 21 22  2  0  0  0
 21 24  1  0  0  0
 22 23  1  0  0  0
 22 36  1  0  0  0
 23 37  1  0  0  0
M  END
> <s_m_entry_id>
9681

> <s_m_entry_name>
dock_pv.121

> <s_m_Source_Path>
/home/csk/Desktop/cluster/DUD-E-result/mcr

> <s_m_Source_File>
dock_pv.maegz

> <i_m_Source_File_Index>
121

> <chembl_id>
CHEMBL3337724

> <chembl_pref_name>
None

> <i_lp_mmshare_version>
53161

> <i_f3d_flags>
0

> <r_lp_tautomer_probability>
1

> <s_lp_Force_Field>
OPLS_2005

> <r_lp_Energy>
24.303517

> <b_lp_Chiralities_Consistent>
1

> <s_lp_Variant>
CHEMBL1994_lig689-1

> <s_i_glide_gridfile>
glide-grid_2aa2

> <i_i_glide_lignum>
1101

> <i_i_glide_rotatable_bonds>
2

> <r_i_docking_score>
-8.19124154784928

> <r_i_glide_ligand_efficiency>
-0.341301731160387

> <r_i_glide_ligand_efficiency_sa>
-0.98448454917957

> <r_i_glide_ligand_efficiency_ln>
-1.96053997398284

> <r_i_glide_gscore>
-8.19124154784928

> <r_i_glide_lipo>
-4.05941107334425

> <r_i_glide_hbond>
-0.0947647450981182

> <r_i_glide_metal>
0

> <r_i_glide_rewards>
-2.504183391617

> <r_i_glide_evdw>
-24.7108402252197

> <r_i_glide_ecoul>
-4.21790218353271

> <r_i_glide_erotb>
0.356092102198375

> <r_i_glide_esite>
-0.020747101197399

> <r_i_glide_emodel>
-45.0096420613314

> <r_i_glide_energy>
-28.9287424087524

> <r_i_glide_einternal>
0.0490231961011887

> <i_i_glide_confnum>
13

> <i_i_glide_posenum>
260

> <r_i_glide_eff_state_penalty>
0

> <s_user_duplicate_titles>
CHEMBL1994_lig689

> <s_m_subgroup_title>
dock_pv

> <s_m_subgroupid>
dock_pv

> <b_m_subgroup_collapsed>
1

$$$$
CHEMBL1994_lig692
                    3D
 Schrodinger Suite 2021-1.
 41 44  0  0  1  0            999 V2000
   16.6785   69.2107   18.4704 O   0  0  0  0  0  0
   16.7514   68.8022   17.0904 C   0  0  0  0  0  0
   18.2081   68.7137   16.5492 C   0  0  0  0  0  0
   18.9649   69.7112   17.0440 N   0  0  0  0  0  0
   18.5848   70.5985   18.0526 C   0  0  0  0  0  0
   17.4366   70.3196   18.7899 C   0  0  0  0  0  0
   19.3749   71.6841   18.4110 C   0  0  0  0  0  0
   19.1059   72.3878   19.5964 C   0  0  0  0  0  0
   17.9865   72.0626   20.3540 C   0  0  0  0  0  0
   17.1370   71.0630   19.9313 C   0  0  0  0  0  0
   18.6099   67.8785   15.7422 O   0  0  0  0  0  0
   21.1768   74.9589   21.1691 N   0  0  0  0  0  0
   22.0760   74.0630   20.8698 N   0  0  0  0  0  0
   21.4417   73.2288   20.0739 C   0  0  0  0  0  0
   20.0714   73.3488   20.1706 C   0  0  0  0  0  0
   19.9111   74.4666   20.9792 C   0  0  0  0  0  0
   22.2527   72.2618   19.2651 C   0  0  0  0  0  0
   21.6450   76.2388   21.6589 C   0  0  0  0  0  0
   18.7264   75.0225   21.6211 C   0  0  0  0  0  0
   18.8066   75.3156   22.9836 C   0  0  0  0  0  0
   17.7103   75.7959   23.6633 C   0  0  0  0  0  0
   16.5075   75.8632   22.9926 C   0  0  0  0  0  0
   16.3827   75.4615   21.6657 C   0  0  0  0  0  0
   17.5109   75.0999   20.9501 C   0  0  0  0  0  0
   15.4410   76.2621   23.6708 F   0  0  0  0  0  0
   19.9297   75.0634   23.6700 F   0  0  0  0  0  0
   16.2380   67.8641   16.9437 H   0  0  0  0  0  0
   16.2452   69.5524   16.4859 H   0  0  0  0  0  0
   19.8987   69.7562   16.6662 H   0  0  0  0  0  0
   20.2381   71.9141   17.8086 H   0  0  0  0  0  0
   17.7905   72.5317   21.3056 H   0  0  0  0  0  0
   16.3197   70.8186   20.5835 H   0  0  0  0  0  0
   22.3190   72.5685   18.2214 H   0  0  0  0  0  0
   23.2572   72.2433   19.6697 H   0  0  0  0  0  0
   21.8767   71.2381   19.2757 H   0  0  0  0  0  0
   21.7369   76.2384   22.7429 H   0  0  0  0  0  0
   22.6372   76.4298   21.2687 H   0  0  0  0  0  0
   20.9829   77.0149   21.2694 H   0  0  0  0  0  0
   17.7722   76.0419   24.7129 H   0  0  0  0  0  0
   15.4275   75.4686   21.1801 H   0  0  0  0  0  0
   17.4304   74.8271   19.9074 H   0  0  0  0  0  0
  1  2  1  0  0  0
  1  6  1  0  0  0
  2  3  1  0  0  0
  2 27  1  0  0  0
  2 28  1  0  0  0
  3  4  1  0  0  0
  3 11  2  0  0  0
  4  5  1  0  0  0
  4 29  1  0  0  0
  5  6  1  0  0  0
  5  7  2  0  0  0
  6 10  2  0  0  0
  7  8  1  0  0  0
  7 30  1  0  0  0
  8  9  2  0  0  0
  8 15  1  0  0  0
  9 10  1  0  0  0
  9 31  1  0  0  0
 10 32  1  0  0  0
 12 13  1  0  0  0
 12 16  1  0  0  0
 12 18  1  0  0  0
 13 14  2  0  0  0
 14 15  1  0  0  0
 14 17  1  0  0  0
 15 16  2  0  0  0
 16 19  1  0  0  0
 17 33  1  0  0  0
 17 34  1  0  0  0
 17 35  1  0  0  0
 18 36  1  0  0  0
 18 37  1  0  0  0
 18 38  1  0  0  0
 19 20  1  0  0  0
 19 24  2  0  0  0
 20 21  2  0  0  0
 20 26  1  0  0  0
 21 22  1  0  0  0
 21 39  1  0  0  0
 22 23  2  0  0  0
 22 25  1  0  0  0
 23 24  1  0  0  0
 23 40  1  0  0  0
 24 41  1  0  0  0
M  END
> <s_m_entry_id>
9682

> <s_m_entry_name>
dock_pv.122

> <s_m_Source_Path>
/home/csk/Desktop/cluster/DUD-E-result/mcr

> <s_m_Source_File>
dock_pv.maegz

> <i_m_Source_File_Index>
122

> <chembl_id>
CHEMBL3337727

> <chembl_pref_name>
None

> <i_lp_mmshare_version>
53161

> <i_f3d_flags>
0

> <r_lp_tautomer_probability>
1

> <s_lp_Force_Field>
OPLS_2005

> <r_lp_Energy>
24.187671

> <b_lp_Chiralities_Consistent>
1

> <s_lp_Variant>
CHEMBL1994_lig692-1

> <s_i_glide_gridfile>
glide-grid_2aa2

> <i_i_glide_lignum>
1104

> <i_i_glide_rotatable_bonds>
2

> <r_i_docking_score>
-8.16411183335456

> <r_i_glide_ligand_efficiency>
-0.314004301282868

> <r_i_glide_ligand_efficiency_sa>
-0.930236507003233

> <r_i_glide_ligand_efficiency_ln>
-1.91731487542741

> <r_i_glide_gscore>
-8.16411183335456

> <r_i_glide_lipo>
-3.89068134746777

> <r_i_glide_hbond>
-0.108156830398221

> <r_i_glide_metal>
0

> <r_i_glide_rewards>
-2.90234422634045

> <r_i_glide_evdw>
-20.2898578643799

> <r_i_glide_ecoul>
-3.57024550437927

> <r_i_glide_erotb>
0.302844924898785

> <r_i_glide_esite>
-0.0157446351710236

> <r_i_glide_emodel>
-46.2513168742425

> <r_i_glide_energy>
-23.8601033687592

> <r_i_glide_einternal>
1.71959209442139

> <i_i_glide_confnum>
10

> <i_i_glide_posenum>
362

> <r_i_glide_eff_state_penalty>
0

> <s_user_duplicate_titles>
CHEMBL1994_lig692

> <s_m_subgroup_title>
dock_pv

> <s_m_subgroupid>
dock_pv

> <b_m_subgroup_collapsed>
1

$$$$
CHEMBL1994_lig1041
                    3D
 Schrodinger Suite 2021-1.
 37 39  0  0  1  0            999 V2000
   17.1889   71.6589   20.4658 C   0  0  0  0  0  0
   19.7895   72.2132   19.6863 C   0  0  0  0  0  0
   17.7985   70.8485   19.5224 C   0  0  0  0  0  0
   19.1098   71.1299   19.1118 C   0  0  0  0  0  0
   19.6474   70.2776   18.0267 C   0  0  0  0  0  0
   18.8325   69.3705   17.4330 C   0  0  0  0  0  0
   17.4317   69.2158   17.7456 C   0  0  0  0  0  0
   17.0542   69.8611   18.8643 N   0  0  0  0  0  0
   19.1277   73.0837   20.5617 C   0  0  0  0  0  0
   17.7922   72.8221   20.8763 C   0  0  0  0  0  0
   16.9985   73.6485   21.6409 O   0  0  0  0  0  0
   17.4933   74.9668   21.8064 C   0  0  0  0  0  0
   18.9739   74.8851   22.1966 C   0  0  2  0  0  0
   19.6901   74.2479   21.0606 N   0  0  0  0  0  0
   21.0358   70.5834   17.5252 C   0  0  0  0  0  0
   21.3101   69.8621   16.4535 F   0  0  0  0  0  0
   21.0441   71.8518   17.1610 F   0  0  0  0  0  0
   21.9483   70.3613   18.4717 F   0  0  0  0  0  0
   16.6405   68.6623   16.9968 O   0  0  0  0  0  0
   21.1427   74.3980   21.0671 C   0  0  0  0  0  0
   21.6111   75.7568   21.5259 C   0  0  0  0  0  0
   22.8762   75.8619   21.2698 F   0  0  0  0  0  0
   21.0236   76.7542   20.8797 F   0  0  0  0  0  0
   21.4684   75.8619   22.8420 F   0  0  0  0  0  0
   19.1638   74.1885   23.5592 C   0  0  0  0  0  0
   16.2410   71.4600   20.9010 H   0  0  0  0  0  0
   20.8100   72.4105   19.4144 H   0  0  0  0  0  0
   19.1916   68.7746   16.6073 H   0  0  0  0  0  0
   16.0717   69.7738   19.0831 H   0  0  0  0  0  0
   17.3817   75.5389   20.8850 H   0  0  0  0  0  0
   16.9172   75.4970   22.5647 H   0  0  0  0  0  0
   19.2601   75.9299   22.2967 H   0  0  0  0  0  0
   21.6086   73.6161   21.6634 H   0  0  0  0  0  0
   21.4978   74.2941   20.0435 H   0  0  0  0  0  0
   18.7978   74.8100   24.3769 H   0  0  0  0  0  0
   18.6432   73.2323   23.6143 H   0  0  0  0  0  0
   20.2154   73.9780   23.7319 H   0  0  0  0  0  0
  1  3  1  0  0  0
  1 10  2  0  0  0
  1 26  1  0  0  0
  2  9  2  0  0  0
  2  4  1  0  0  0
  2 27  1  0  0  0
  3  4  2  0  0  0
  3  8  1  0  0  0
  4  5  1  0  0  0
  5 15  1  0  0  0
  5  6  2  0  0  0
  6  7  1  0  0  0
  6 28  1  0  0  0
  7  8  1  0  0  0
  7 19  2  0  0  0
  8 29  1  0  0  0
  9 14  1  0  0  0
  9 10  1  0  0  0
 10 11  1  0  0  0
 11 12  1  0  0  0
 12 13  1  0  0  0
 12 30  1  0  0  0
 12 31  1  0  0  0
 13 14  1  0  0  0
 13 25  1  0  0  0
 13 32  1  0  0  0
 14 20  1  0  0  0
 15 16  1  0  0  0
 15 17  1  0  0  0
 15 18  1  0  0  0
 20 21  1  0  0  0
 20 33  1  0  0  0
 20 34  1  0  0  0
 21 22  1  0  0  0
 21 23  1  0  0  0
 21 24  1  0  0  0
 25 35  1  0  0  0
 25 36  1  0  0  0
 25 37  1  0  0  0
M  END
> <s_m_entry_id>
9683

> <s_m_entry_name>
dock_pv.123

> <s_m_Source_Path>
/home/csk/Desktop/cluster/DUD-E-result/mcr

> <s_m_Source_File>
dock_pv.maegz

> <i_m_Source_File_Index>
123

> <chembl_id>
CHEMBL227440

> <chembl_pref_name>
None

> <i_lp_mmshare_version>
53161

> <i_f3d_flags>
0

> <r_lp_tautomer_probability>
1

> <s_lp_Force_Field>
OPLS_2005

> <r_lp_Energy>
28.621805

> <b_lp_Chiralities_Consistent>
1

> <s_lp_Variant>
CHEMBL1994_lig1041-1

> <s_i_glide_gridfile>
glide-grid_2aa2

> <i_i_glide_lignum>
1502

> <i_i_glide_rotatable_bonds>
3

> <r_i_docking_score>
-8.15467154841958

> <r_i_glide_ligand_efficiency>
-0.326186861936783

> <r_i_glide_ligand_efficiency_sa>
-0.953776169251783

> <r_i_glide_ligand_efficiency_ln>
-1.93290153276183

> <r_i_glide_gscore>
-8.15467154841958

> <r_i_glide_lipo>
-3.82998675989864

> <r_i_glide_hbond>
-0.274964529130236

> <r_i_glide_metal>
0

> <r_i_glide_rewards>
-2.89555818552547

> <r_i_glide_evdw>
-19.4997940063477

> <r_i_glide_ecoul>
-2.15092873573303

> <r_i_glide_erotb>
0.143466936812101

> <r_i_glide_esite>
0

> <r_i_glide_emodel>
-21.537642373061

> <r_i_glide_energy>
-21.6507227420807

> <r_i_glide_einternal>
5.285240650177

> <i_i_glide_confnum>
4

> <i_i_glide_posenum>
50

> <r_i_glide_eff_state_penalty>
0

> <s_user_duplicate_titles>
CHEMBL1994_lig1041

> <s_m_subgroup_title>
dock_pv

> <s_m_subgroupid>
dock_pv

> <b_m_subgroup_collapsed>
1

$$$$
CHEMBL1994_lig953 
                    3D
 Schrodinger Suite 2021-1.
 39 42  0  0  1  0            999 V2000
   16.9578   68.8227   17.2672 C   0  0  0  0  0  0
   16.5038   69.8573   18.0698 C   0  0  0  0  0  0
   17.3794   70.8609   18.4715 C   0  0  0  0  0  0
   18.2911   68.7834   16.8781 C   0  0  0  0  0  0
   19.1774   69.7912   17.2697 C   0  0  0  0  0  0
   18.7180   70.8686   18.0423 C   0  0  0  0  0  0
   19.6364   71.8215   18.5642 N   0  0  0  0  0  0
   21.0950   71.5682   18.6520 C   0  0  0  0  0  0
   21.4619   70.1659   18.1474 C   0  0  0  0  0  0
   20.6418   69.7225   16.9280 C   0  0  0  0  0  0
   19.2800   73.1306   18.5713 C   0  0  0  0  0  0
   19.4188   73.8519   19.8747 C   0  0  0  0  0  0
   18.6413   73.6674   17.6700 O   0  0  0  0  0  0
   20.6408   73.9870   20.5580 C   0  0  0  0  0  0
   20.6727   74.5443   21.8339 C   0  0  0  0  0  0
   18.2437   74.3711   20.4324 C   0  0  0  0  0  0
   18.2728   74.9181   21.7016 C   0  0  0  0  0  0
   19.4793   74.9658   22.4045 C   0  0  0  0  0  0
   19.4802   75.4993   23.6700 O   0  0  0  0  0  0
   18.2415   75.2638   24.3795 C   0  0  0  0  0  0
   17.0707   75.8618   23.5843 C   0  0  0  0  0  0
   17.1355   75.4622   22.2989 N   0  0  0  0  0  0
   16.2410   76.6188   24.0568 O   0  0  0  0  0  0
   16.2795   68.0361   16.9767 H   0  0  0  0  0  0
   15.4756   69.8617   18.3941 H   0  0  0  0  0  0
   17.0137   71.6302   19.1345 H   0  0  0  0  0  0
   18.6463   67.9491   16.2919 H   0  0  0  0  0  0
   21.6275   72.3226   18.0674 H   0  0  0  0  0  0
   21.4404   71.6967   19.6743 H   0  0  0  0  0  0
   22.5307   70.1189   17.9406 H   0  0  0  0  0  0
   21.3031   69.4621   18.9656 H   0  0  0  0  0  0
   20.8644   68.6924   16.6668 H   0  0  0  0  0  0
   20.8863   70.3388   16.0702 H   0  0  0  0  0  0
   21.5764   73.6749   20.1237 H   0  0  0  0  0  0
   21.6032   74.6384   22.3756 H   0  0  0  0  0  0
   17.3033   74.3136   19.9006 H   0  0  0  0  0  0
   18.0580   74.1901   24.4677 H   0  0  0  0  0  0
   18.2499   75.6826   25.3816 H   0  0  0  0  0  0
   16.3431   75.7156   21.7296 H   0  0  0  0  0  0
  1  2  2  0  0  0
  1  4  1  0  0  0
  1 24  1  0  0  0
  2  3  1  0  0  0
  2 25  1  0  0  0
  3  6  2  0  0  0
  3 26  1  0  0  0
  4  5  2  0  0  0
  4 27  1  0  0  0
  5  6  1  0  0  0
  5 10  1  0  0  0
  6  7  1  0  0  0
  7  8  1  0  0  0
  7 11  1  0  0  0
  8  9  1  0  0  0
  8 28  1  0  0  0
  8 29  1  0  0  0
  9 10  1  0  0  0
  9 30  1  0  0  0
  9 31  1  0  0  0
 10 32  1  0  0  0
 10 33  1  0  0  0
 11 12  1  0  0  0
 11 13  2  0  0  0
 12 14  2  0  0  0
 12 16  1  0  0  0
 14 15  1  0  0  0
 14 34  1  0  0  0
 15 18  2  0  0  0
 15 35  1  0  0  0
 16 17  2  0  0  0
 16 36  1  0  0  0
 17 18  1  0  0  0
 17 22  1  0  0  0
 18 19  1  0  0  0
 19 20  1  0  0  0
 20 21  1  0  0  0
 20 37  1  0  0  0
 20 38  1  0  0  0
 21 22  1  0  0  0
 21 23  2  0  0  0
 22 39  1  0  0  0
M  END
> <s_m_entry_id>
9684

> <s_m_entry_name>
dock_pv.124

> <s_m_Source_Path>
/home/csk/Desktop/cluster/DUD-E-result/mcr

> <s_m_Source_File>
dock_pv.maegz

> <i_m_Source_File_Index>
124

> <chembl_id>
CHEMBL4580706

> <chembl_pref_name>
None

> <i_lp_mmshare_version>
53161

> <i_f3d_flags>
0

> <r_lp_tautomer_probability>
1

> <s_lp_Force_Field>
OPLS_2005

> <r_lp_Energy>
49.328538

> <b_lp_Chiralities_Consistent>
1

> <s_lp_Variant>
CHEMBL1994_lig953 -1

> <s_i_glide_gridfile>
glide-grid_2aa2

> <i_i_glide_lignum>
1395

> <i_i_glide_rotatable_bonds>
2

> <r_i_docking_score>
-8.15051616727922

> <r_i_glide_ligand_efficiency>
-0.354370268142575

> <r_i_glide_ligand_efficiency_sa>
-1.00778190315852

> <r_i_glide_ligand_efficiency_ln>
-1.97086871404268

> <r_i_glide_gscore>
-8.15051616727922

> <r_i_glide_lipo>
-4.61324688106571

> <r_i_glide_hbond>
-0.263694780237428

> <r_i_glide_metal>
0

> <r_i_glide_rewards>
-1.00506316872062

> <r_i_glide_evdw>
-41.2794761657715

> <r_i_glide_ecoul>
-3.95820903778076

> <r_i_glide_erotb>
0.38919382670023

> <r_i_glide_esite>
0

> <r_i_glide_emodel>
-43.7627268622159

> <r_i_glide_energy>
-45.2376852035522

> <r_i_glide_einternal>
6.23585224151611

> <i_i_glide_confnum>
3

> <i_i_glide_posenum>
39

> <r_i_glide_eff_state_penalty>
0

> <s_user_duplicate_titles>
CHEMBL1994_lig953 

> <s_m_subgroup_title>
dock_pv

> <s_m_subgroupid>
dock_pv

> <b_m_subgroup_collapsed>
1

$$$$
CHEMBL1994_lig380
                    3D
 Schrodinger Suite 2021-1.
 41 43  0  0  1  0            999 V2000
   16.9263   73.7674   20.8701 C   0  0  0  0  0  0
   17.5759   74.6935   21.6586 C   0  0  0  0  0  0
   18.9667   74.8002   21.6597 C   0  0  0  0  0  0
   17.6370   72.8924   20.0700 C   0  0  0  0  0  0
   19.0292   72.9839   20.0241 C   0  0  0  0  0  0
   19.6781   73.9569   20.8176 C   0  0  0  0  0  0
   21.0334   73.8375   20.6032 N   0  0  0  0  0  0
   21.2353   72.8414   19.6700 C   0  0  0  0  0  0
   20.0330   72.2433   19.3433 C   0  0  0  0  0  0
   16.7924   75.4620   22.5050 N   0  0  0  0  0  0
   17.4011   75.8978   24.0757 S   0  0  0  0  0  0
   16.2410   76.2620   24.8700 O   0  0  0  0  0  0
   18.3443   74.8711   24.5236 O   0  0  0  0  0  0
   18.2751   77.4620   23.6700 C   0  0  0  0  0  0
   22.0526   74.5966   21.3206 C   0  0  0  0  0  0
   19.7538   71.0513   18.5237 C   0  0  0  0  0  0
   18.7497   70.1787   18.9581 C   0  0  0  0  0  0
   18.4065   69.0751   18.2016 C   0  0  0  0  0  0
   19.1175   68.8281   17.0357 C   0  0  0  0  0  0
   20.1119   69.6947   16.5848 C   0  0  0  0  0  0
   20.4262   70.8232   17.3277 C   0  0  0  0  0  0
   19.0410   67.5144   16.4700 C   0  0  0  0  0  0
   19.0410   66.4433   16.0587 N   0  0  0  0  0  0
   21.9558   76.0966   21.0383 C   0  0  0  0  0  0
   15.8501   73.6857   20.9231 H   0  0  0  0  0  0
   19.4961   75.4630   22.3176 H   0  0  0  0  0  0
   17.1066   72.1582   19.4851 H   0  0  0  0  0  0
   22.2410   72.5688   19.3858 H   0  0  0  0  0  0
   15.7904   75.3630   22.4433 H   0  0  0  0  0  0
   19.0656   77.6333   24.3942 H   0  0  0  0  0  0
   18.6841   77.3164   22.6841 H   0  0  0  0  0  0
   17.5368   78.2619   23.6700 H   0  0  0  0  0  0
   21.9352   74.3903   22.3856 H   0  0  0  0  0  0
   23.0389   74.2620   21.0271 H   0  0  0  0  0  0
   18.2535   70.3222   19.9061 H   0  0  0  0  0  0
   17.6744   68.3734   18.5810 H   0  0  0  0  0  0
   20.6997   69.4620   15.7074 H   0  0  0  0  0  0
   21.2024   71.4957   16.9936 H   0  0  0  0  0  0
   22.6413   76.6551   21.6700 H   0  0  0  0  0  0
   22.2410   76.2620   20.0117 H   0  0  0  0  0  0
   20.9665   76.5262   21.1754 H   0  0  0  0  0  0
  1  2  2  0  0  0
  1  4  1  0  0  0
  1 25  1  0  0  0
  2  3  1  0  0  0
  2 10  1  0  0  0
  3  6  2  0  0  0
  3 26  1  0  0  0
  4  5  2  0  0  0
  4 27  1  0  0  0
  5  9  1  0  0  0
  5  6  1  0  0  0
  6  7  1  0  0  0
  7 15  1  0  0  0
  7  8  1  0  0  0
  8  9  2  0  0  0
  8 28  1  0  0  0
  9 16  1  0  0  0
 10 11  1  0  0  0
 10 29  1  0  0  0
 11 12  2  0  0  0
 11 13  2  0  0  0
 11 14  1  0  0  0
 14 30  1  0  0  0
 14 31  1  0  0  0
 14 32  1  0  0  0
 15 24  1  0  0  0
 15 33  1  0  0  0
 15 34  1  0  0  0
 16 17  2  0  0  0
 16 21  1  0  0  0
 17 18  1  0  0  0
 17 35  1  0  0  0
 18 19  2  0  0  0
 18 36  1  0  0  0
 19 20  1  0  0  0
 19 22  1  0  0  0
 20 21  2  0  0  0
 20 37  1  0  0  0
 21 38  1  0  0  0
 22 23  3  0  0  0
 24 39  1  0  0  0
 24 40  1  0  0  0
 24 41  1  0  0  0
M  END
> <s_m_entry_id>
9685

> <s_m_entry_name>
dock_pv.125

> <s_m_Source_Path>
/home/csk/Desktop/cluster/DUD-E-result/mcr

> <s_m_Source_File>
dock_pv.maegz

> <i_m_Source_File_Index>
125

> <chembl_id>
CHEMBL1672544

> <chembl_pref_name>
None

> <i_lp_mmshare_version>
53161

> <i_f3d_flags>
0

> <r_lp_tautomer_probability>
1

> <s_lp_Force_Field>
OPLS_2005

> <r_lp_Energy>
9.19828

> <b_lp_Chiralities_Consistent>
1

> <s_lp_Variant>
CHEMBL1994_lig380-1

> <s_i_glide_gridfile>
glide-grid_2aa2

> <i_i_glide_lignum>
626

> <i_i_glide_rotatable_bonds>
4

> <r_i_docking_score>
-8.14528549070645

> <r_i_glide_ligand_efficiency>
-0.339386895446102

> <r_i_glide_ligand_efficiency_sa>
-0.978961207213149

> <r_i_glide_ligand_efficiency_ln>
-1.94954058072251

> <r_i_glide_gscore>
-8.14528549070645

> <r_i_glide_lipo>
-4.04147509918367

> <r_i_glide_hbond>
-0.16

> <r_i_glide_metal>
0

> <r_i_glide_rewards>
-2.51606193831222

> <r_i_glide_evdw>
-17.3389263153076

> <r_i_glide_ecoul>
-5.11028003692627

> <r_i_glide_erotb>
0.328545774191101

> <r_i_glide_esite>
-0.122805906097343

> <r_i_glide_emodel>
-21.6575563784562

> <r_i_glide_energy>
-22.4492063522339

> <r_i_glide_einternal>
3.37991762161255

> <i_i_glide_confnum>
7

> <i_i_glide_posenum>
153

> <r_i_glide_eff_state_penalty>
0

> <s_user_duplicate_titles>
CHEMBL1994_lig380

> <s_m_subgroup_title>
dock_pv

> <s_m_subgroupid>
dock_pv

> <b_m_subgroup_collapsed>
1

$$$$
CHEMBL1994_lig534
                    3D
 Schrodinger Suite 2021-1.
 43 45  0  0  1  0            999 V2000
   18.6834   71.6720   22.0546 C   0  0  0  0  0  0
   18.8939   72.5198   23.3051 C   0  0  0  0  0  0
   18.6410   73.9664   23.0611 N   0  0  2  0  0  0
   19.7182   74.9772   22.0952 S   0  0  0  0  0  0
   19.8763   74.1854   20.4962 C   0  0  0  0  0  0
   19.0410   76.2620   21.8990 O   0  0  0  0  0  0
   21.0409   74.9380   22.7217 O   0  0  0  0  0  0
   17.5790   71.9388   21.2537 C   0  0  0  0  0  0
   17.4598   71.3200   20.0246 C   0  0  0  0  0  0
   18.3930   70.3659   19.6058 C   0  0  0  0  0  0
   19.4475   70.0197   20.4496 C   0  0  0  0  0  0
   19.5857   70.6725   21.6700 C   0  0  0  0  0  0
   18.2365   69.7220   18.3604 N   0  0  0  0  0  0
   19.1858   69.3146   17.4506 C   0  0  0  0  0  0
   18.4807   68.6375   16.4635 C   0  0  0  0  0  0
   17.2017   68.6620   16.6723 N   0  0  0  0  0  0
   17.0652   69.3078   17.7743 C   0  0  0  0  0  0
   15.7188   69.5145   18.2972 C   0  0  0  0  0  0
   21.0208   73.4263   20.2222 C   0  0  0  0  0  0
   21.1273   72.7179   19.0266 C   0  0  0  0  0  0
   20.1261   72.8200   18.0700 C   0  0  0  0  0  0
   18.9958   73.5978   18.3217 C   0  0  0  0  0  0
   18.8538   74.2620   19.5436 C   0  0  0  0  0  0
   22.1978   71.9259   18.7929 F   0  0  0  0  0  0
   17.7111   74.9378   19.8024 F   0  0  0  0  0  0
   18.8504   67.8620   15.2700 C   0  0  0  0  0  0
   18.1347   72.1808   24.0113 H   0  0  0  0  0  0
   19.8409   72.3779   23.8196 H   0  0  0  0  0  0
   18.1457   74.4588   23.8088 H   0  0  0  0  0  0
   16.8549   72.6880   21.5435 H   0  0  0  0  0  0
   16.6423   71.6321   19.4093 H   0  0  0  0  0  0
   20.1629   69.2608   20.1684 H   0  0  0  0  0  0
   20.4154   70.4032   22.3032 H   0  0  0  0  0  0
   20.2386   69.4880   17.6142 H   0  0  0  0  0  0
   15.0056   69.0620   17.6700 H   0  0  0  0  0  0
   15.5832   69.0620   19.2700 H   0  0  0  0  0  0
   15.4410   70.5600   18.2313 H   0  0  0  0  0  0
   21.8145   73.3407   20.9499 H   0  0  0  0  0  0
   20.2399   72.2842   17.1398 H   0  0  0  0  0  0
   18.2163   73.6617   17.5797 H   0  0  0  0  0  0
   19.8410   67.4620   15.2774 H   0  0  0  0  0  0
   18.6409   68.4217   14.3594 H   0  0  0  0  0  0
   18.2203   66.9869   15.2748 H   0  0  0  0  0  0
  1  2  1  0  0  0
  1  8  2  0  0  0
  1 12  1  0  0  0
  2  3  1  0  0  0
  2 27  1  0  0  0
  2 28  1  0  0  0
  3  4  1  0  0  0
  3 29  1  0  0  0
  4  5  1  0  0  0
  4  6  2  0  0  0
  4  7  2  0  0  0
  5 19  2  0  0  0
  5 23  1  0  0  0
  8  9  1  0  0  0
  8 30  1  0  0  0
  9 10  2  0  0  0
  9 31  1  0  0  0
 10 11  1  0  0  0
 10 13  1  0  0  0
 11 12  2  0  0  0
 11 32  1  0  0  0
 12 33  1  0  0  0
 13 14  1  0  0  0
 13 17  1  0  0  0
 14 15  2  0  0  0
 14 34  1  0  0  0
 15 16  1  0  0  0
 15 26  1  0  0  0
 16 17  2  0  0  0
 17 18  1  0  0  0
 18 35  1  0  0  0
 18 36  1  0  0  0
 18 37  1  0  0  0
 19 20  1  0  0  0
 19 38  1  0  0  0
 20 21  2  0  0  0
 20 24  1  0  0  0
 21 22  1  0  0  0
 21 39  1  0  0  0
 22 23  2  0  0  0
 22 40  1  0  0  0
 23 25  1  0  0  0
 26 41  1  0  0  0
 26 42  1  0  0  0
 26 43  1  0  0  0
M  END
> <s_m_entry_id>
9686

> <s_m_entry_name>
dock_pv.126

> <s_m_Source_Path>
/home/csk/Desktop/cluster/DUD-E-result/mcr

> <s_m_Source_File>
dock_pv.maegz

> <i_m_Source_File_Index>
126

> <chembl_id>
CHEMBL3086027

> <chembl_pref_name>
None

> <i_lp_mmshare_version>
53161

> <i_f3d_flags>
0

> <r_lp_tautomer_probability>
1

> <s_lp_Force_Field>
OPLS_2005

> <r_lp_Energy>
10.252579

> <b_lp_Chiralities_Consistent>
1

> <s_lp_Variant>
CHEMBL1994_lig534-1

> <s_i_glide_gridfile>
glide-grid_2aa2

> <i_i_glide_lignum>
845

> <i_i_glide_rotatable_bonds>
5

> <r_i_docking_score>
-8.13776410307512

> <r_i_glide_ligand_efficiency>
-0.312990927041351

> <r_i_glide_ligand_efficiency_sa>
-0.927234389800173

> <r_i_glide_ligand_efficiency_ln>
-1.91112719742524

> <r_i_glide_gscore>
-8.13776410307512

> <r_i_glide_lipo>
-4.10493273192636

> <r_i_glide_hbond>
-0.0146226914670981

> <r_i_glide_metal>
0

> <r_i_glide_rewards>
-2.90917036900098

> <r_i_glide_evdw>
-31.2693958282471

> <r_i_glide_ecoul>
-0.596486628055573

> <r_i_glide_erotb>
0.54390447494001

> <r_i_glide_esite>
0

> <r_i_glide_emodel>
-41.5341230067159

> <r_i_glide_energy>
-31.8658824563026

> <r_i_glide_einternal>
5.33049631118774

> <i_i_glide_confnum>
21

> <i_i_glide_posenum>
137

> <r_i_glide_eff_state_penalty>
0

> <s_user_duplicate_titles>
CHEMBL1994_lig534

> <s_m_subgroup_title>
dock_pv

> <s_m_subgroupid>
dock_pv

> <b_m_subgroup_collapsed>
1

$$$$
CHEMBL1994_lig807
                    3D
 Schrodinger Suite 2021-1.
 34 35  0  0  1  0            999 V2000
   18.3997   76.2620   24.0700 N   0  0  0  0  0  0
   17.3880   75.9494   23.2733 C   0  0  0  0  0  0
   16.2425   76.2620   23.5761 O   0  0  0  0  0  0
   17.6693   75.2830   22.1332 N   0  0  0  0  0  0
   18.8986   74.8249   21.6092 C   0  0  0  0  0  0
   18.8196   74.0078   20.4770 C   0  0  0  0  0  0
   19.9984   73.5034   19.9165 C   0  0  0  0  0  0
   19.9501   72.6037   18.6948 C   0  0  0  0  0  0
   20.0305   71.1013   19.0554 C   0  0  2  0  0  0
   21.3568   70.6319   18.8700 O   0  0  0  0  0  0
   18.9721   70.2847   18.3208 C   0  0  0  0  0  0
   17.6318   70.4051   18.7106 C   0  0  0  0  0  0
   16.6411   69.6648   18.0700 C   0  0  0  0  0  0
   16.9861   68.7929   17.0432 C   0  0  0  0  0  0
   18.3146   68.6620   16.6506 C   0  0  0  0  0  0
   18.6410   67.7967   15.6700 F   0  0  0  0  0  0
   19.3035   69.4207   17.2700 C   0  0  0  0  0  0
   21.2223   73.8241   20.5030 C   0  0  0  0  0  0
   21.2364   74.6621   21.6134 C   0  0  0  0  0  0
   20.1026   75.1579   22.1640 N   0  0  0  0  0  0
   19.3325   75.9937   23.7960 H   0  0  0  0  0  0
   18.2384   76.7760   24.9364 H   0  0  0  0  0  0
   16.8577   75.0227   21.5960 H   0  0  0  0  0  0
   17.8616   73.7594   20.0426 H   0  0  0  0  0  0
   20.7408   72.8887   17.9981 H   0  0  0  0  0  0
   19.0304   72.8300   18.1519 H   0  0  0  0  0  0
   19.8196   70.9555   20.1177 H   0  0  0  0  0  0
   21.9265   71.0620   19.5143 H   0  0  0  0  0  0
   17.3533   71.0684   19.5176 H   0  0  0  0  0  0
   15.6101   69.7549   18.3758 H   0  0  0  0  0  0
   16.2197   68.2192   16.5523 H   0  0  0  0  0  0
   20.3282   69.3110   16.9459 H   0  0  0  0  0  0
   22.1421   73.4156   20.1179 H   0  0  0  0  0  0
   22.1697   74.9383   22.0824 H   0  0  0  0  0  0
  1  2  1  0  0  0
  1 21  1  0  0  0
  1 22  1  0  0  0
  2  3  2  0  0  0
  2  4  1  0  0  0
  4  5  1  0  0  0
  4 23  1  0  0  0
  5  6  2  0  0  0
  5 20  1  0  0  0
  6  7  1  0  0  0
  6 24  1  0  0  0
  7  8  1  0  0  0
  7 18  2  0  0  0
  8  9  1  0  0  0
  8 25  1  0  0  0
  8 26  1  0  0  0
  9 10  1  0  0  0
  9 11  1  0  0  0
  9 27  1  0  0  0
 10 28  1  0  0  0
 11 12  2  0  0  0
 11 17  1  0  0  0
 12 13  1  0  0  0
 12 29  1  0  0  0
 13 14  2  0  0  0
 13 30  1  0  0  0
 14 15  1  0  0  0
 14 31  1  0  0  0
 15 16  1  0  0  0
 15 17  2  0  0  0
 17 32  1  0  0  0
 18 19  1  0  0  0
 18 33  1  0  0  0
 19 20  2  0  0  0
 19 34  1  0  0  0
M  END
> <s_m_entry_id>
9687

> <s_m_entry_name>
dock_pv.127

> <s_m_Source_Path>
/home/csk/Desktop/cluster/DUD-E-result/mcr

> <s_m_Source_File>
dock_pv.maegz

> <i_m_Source_File_Index>
127

> <chembl_id>
CHEMBL3643672

> <chembl_pref_name>
None

> <i_lp_mmshare_version>
53161

> <i_f3d_flags>
0

> <r_lp_tautomer_probability>
1

> <s_lp_Force_Field>
OPLS_2005

> <r_lp_Energy>
8.954969

> <b_lp_Chiralities_Consistent>
1

> <s_lp_Variant>
CHEMBL1994_lig807-1

> <s_i_glide_gridfile>
glide-grid_2aa2

> <i_i_glide_lignum>
1224

> <i_i_glide_rotatable_bonds>
6

> <r_i_docking_score>
-8.13568731829017

> <r_i_glide_ligand_efficiency>
-0.406784365914508

> <r_i_glide_ligand_efficiency_sa>
-1.10418264789112

> <r_i_glide_ligand_efficiency_ln>
-2.03609420284155

> <r_i_glide_gscore>
-8.13568731829017

> <r_i_glide_lipo>
-3.70866974239417

> <r_i_glide_hbond>
-0.472347346679313

> <r_i_glide_metal>
0

> <r_i_glide_rewards>
-1.83599494296736

> <r_i_glide_evdw>
-38.6806182861328

> <r_i_glide_ecoul>
-7.08884763717651

> <r_i_glide_erotb>
0.948638500846392

> <r_i_glide_esite>
-0.0699557272125984

> <r_i_glide_emodel>
-64.3258487063482

> <r_i_glide_energy>
-45.7694659233093

> <r_i_glide_einternal>
4.01988554000854

> <i_i_glide_confnum>
4

> <i_i_glide_posenum>
125

> <r_i_glide_eff_state_penalty>
0

> <s_user_duplicate_titles>
CHEMBL1994_lig807

> <s_m_subgroup_title>
dock_pv

> <s_m_subgroupid>
dock_pv

> <b_m_subgroup_collapsed>
1

$$$$
CHEMBL1994_lig886
                    3D
 Schrodinger Suite 2021-1.
 33 35  0  0  1  0            999 V2000
   16.6675   69.4227   17.6702 C   0  0  0  0  0  0
   17.9974   71.4225   18.4963 C   0  0  0  0  0  0
   17.2576   75.7459   23.0074 C   0  0  0  0  0  0
   18.9138   69.8577   16.9487 O   0  0  0  0  0  0
   18.3274   73.5460   20.3393 N   0  0  0  0  0  0
   20.2490   70.1904   17.3088 C   0  0  0  0  0  0
   19.7446   75.8618   22.7778 O   0  0  0  0  0  0
   17.3058   75.0475   21.8525 N   0  0  0  0  0  0
   18.6406   75.7885   23.7083 C   0  0  0  0  0  0
   18.0536   69.9358   18.0773 C   0  0  2  0  0  0
   19.6936   74.9176   21.7787 C   0  0  0  0  0  0
   18.4583   74.5112   21.2818 C   0  0  0  0  0  0
   20.7398   73.3981   20.2637 C   0  0  0  0  0  0
   16.2415   76.2621   23.4598 O   0  0  0  0  0  0
   20.3253   71.6159   17.9070 C   0  0  0  0  0  0
   19.3214   71.8889   18.9624 N   0  0  0  0  0  0
   20.8585   74.3819   21.2469 C   0  0  0  0  0  0
   19.4661   72.9795   19.8281 C   0  0  0  0  0  0
   15.9743   69.4396   18.5108 H   0  0  0  0  0  0
   16.7226   68.3943   17.3124 H   0  0  0  0  0  0
   16.2397   70.0317   16.8754 H   0  0  0  0  0  0
   17.6791   72.0694   17.6768 H   0  0  0  0  0  0
   17.3031   71.4999   19.3341 H   0  0  0  0  0  0
   20.8832   70.1234   16.4264 H   0  0  0  0  0  0
   20.6482   69.4629   18.0152 H   0  0  0  0  0  0
   16.4235   74.9503   21.3753 H   0  0  0  0  0  0
   18.6652   76.6008   24.4356 H   0  0  0  0  0  0
   18.7128   74.8484   24.2589 H   0  0  0  0  0  0
   18.4263   69.3020   18.8868 H   0  0  0  0  0  0
   21.6428   72.9430   19.8979 H   0  0  0  0  0  0
   20.2405   72.3678   17.1217 H   0  0  0  0  0  0
   21.3344   71.7148   18.3016 H   0  0  0  0  0  0
   21.8266   74.6941   21.6122 H   0  0  0  0  0  0
  1 10  1  0  0  0
  1 19  1  0  0  0
  1 20  1  0  0  0
  1 21  1  0  0  0
  2 10  1  0  0  0
  2 16  1  0  0  0
  2 22  1  0  0  0
  2 23  1  0  0  0
  3 14  2  0  0  0
  3  9  1  0  0  0
  3  8  1  0  0  0
  4 10  1  0  0  0
  4  6  1  0  0  0
  5 18  2  0  0  0
  5 12  1  0  0  0
  6 15  1  0  0  0
  6 24  1  0  0  0
  6 25  1  0  0  0
  7 11  1  0  0  0
  7  9  1  0  0  0
  8 12  1  0  0  0
  8 26  1  0  0  0
  9 27  1  0  0  0
  9 28  1  0  0  0
 10 29  1  0  0  0
 11 12  2  0  0  0
 11 17  1  0  0  0
 13 17  2  0  0  0
 13 18  1  0  0  0
 13 30  1  0  0  0
 15 16  1  0  0  0
 15 31  1  0  0  0
 15 32  1  0  0  0
 16 18  1  0  0  0
 17 33  1  0  0  0
M  END
> <s_m_entry_id>
9688

> <s_m_entry_name>
dock_pv.128

> <s_m_Source_Path>
/home/csk/Desktop/cluster/DUD-E-result/mcr

> <s_m_Source_File>
dock_pv.maegz

> <i_m_Source_File_Index>
128

> <chembl_id>
CHEMBL4081522

> <chembl_pref_name>
None

> <i_lp_mmshare_version>
53161

> <i_f3d_flags>
0

> <r_lp_tautomer_probability>
1

> <s_lp_Force_Field>
OPLS_2005

> <r_lp_Energy>
27.325193

> <b_lp_Chiralities_Consistent>
1

> <s_lp_Variant>
CHEMBL1994_lig886-1

> <s_i_glide_gridfile>
glide-grid_2aa2

> <i_i_glide_lignum>
1329

> <i_i_glide_rotatable_bonds>
1

> <r_i_docking_score>
-8.12711706883294

> <r_i_glide_ligand_efficiency>
-0.451506503824052

> <r_i_glide_ligand_efficiency_sa>
-1.18328178318619

> <r_i_glide_ligand_efficiency_ln>
-2.08903353576367

> <r_i_glide_gscore>
-8.12711706883294

> <r_i_glide_lipo>
-3.14940382452216

> <r_i_glide_hbond>
-0.117320688976898

> <r_i_glide_metal>
0

> <r_i_glide_rewards>
-2.79797073003905

> <r_i_glide_evdw>
-38.4795265197754

> <r_i_glide_ecoul>
-2.79907035827637

> <r_i_glide_erotb>
0.281415054435384

> <r_i_glide_esite>
0

> <r_i_glide_emodel>
-60.8310742163979

> <r_i_glide_energy>
-41.2785968780518

> <r_i_glide_einternal>
0.746824443340302

> <i_i_glide_confnum>
2

> <i_i_glide_posenum>
276

> <r_i_glide_eff_state_penalty>
0

> <s_user_duplicate_titles>
CHEMBL1994_lig886

> <s_m_subgroup_title>
dock_pv

> <s_m_subgroupid>
dock_pv

> <b_m_subgroup_collapsed>
1

$$$$
CHEMBL1994_lig262
                    3D
 Schrodinger Suite 2021-1.
 42 44  0  0  1  0            999 V2000
   18.9363   72.8875   19.3370 C   0  0  0  0  0  0
   18.2081   73.5100   20.3178 C   0  0  0  0  0  0
   19.3558   71.3967   19.4177 C   0  0  1  0  0  0
   18.9481   70.8085   20.7409 C   0  0  0  0  0  0
   17.8792   72.7943   21.4321 N   0  0  0  0  0  0
   18.2497   71.5086   21.6401 C   0  0  0  0  0  0
   18.8631   70.4931   18.2747 C   0  0  0  0  0  0
   18.6416   76.2607   23.6693 N   0  0  0  0  0  0
   17.8275   75.5197   21.7776 N   0  0  0  0  0  0
   19.3363   73.4813   18.0763 C   0  0  0  0  0  0
   16.7603   75.7100   22.5597 N   0  0  0  0  0  0
   17.7032   74.9537   20.4350 C   0  0  0  0  0  0
   19.7493   69.8480   17.3963 C   0  0  0  0  0  0
   19.0723   69.4068   20.8673 C   0  0  0  0  0  0
   19.0420   68.2618   20.8696 N   0  0  0  0  0  0
   17.3227   76.1671   23.6581 C   0  0  0  0  0  0
   18.9570   75.8528   22.4687 C   0  0  0  0  0  0
   19.2537   68.9377   16.4709 C   0  0  0  0  0  0
   17.4891   70.2157   18.1905 C   0  0  0  0  0  0
   20.2294   72.9891   17.3996 O   0  0  0  0  0  0
   17.8968   68.6619   16.4057 C   0  0  0  0  0  0
   21.4588   70.0992   17.4356 Cl  0  0  0  0  0  0
   17.0087   69.2873   17.2731 C   0  0  0  0  0  0
   18.6411   74.5654   17.7505 O   0  0  0  0  0  0
   17.4409   67.8630   15.4267 F   0  0  0  0  0  0
   17.7010   70.9618   22.8805 C   0  0  0  0  0  0
   18.6433   75.1620   16.4704 C   0  0  0  0  0  0
   20.4455   71.3774   19.4159 H   0  0  0  0  0  0
   17.3204   73.2507   22.1466 H   0  0  0  0  0  0
   18.2409   75.6228   19.7885 H   0  0  0  0  0  0
   16.6567   74.9967   20.1267 H   0  0  0  0  0  0
   16.7419   76.4545   24.5236 H   0  0  0  0  0  0
   19.9390   75.7482   22.0288 H   0  0  0  0  0  0
   19.9215   68.4359   15.7947 H   0  0  0  0  0  0
   16.7926   70.6868   18.8710 H   0  0  0  0  0  0
   15.9523   69.0691   17.2263 H   0  0  0  0  0  0
   18.1627   71.4604   23.7375 H   0  0  0  0  0  0
   16.6407   71.1331   22.9055 H   0  0  0  0  0  0
   17.8412   69.8865   22.8701 H   0  0  0  0  0  0
   18.4151   76.2253   16.5432 H   0  0  0  0  0  0
   19.5981   75.0631   15.9608 H   0  0  0  0  0  0
   17.8398   74.7187   15.8912 H   0  0  0  0  0  0
  1  2  2  0  0  0
  1  3  1  0  0  0
  1 10  1  0  0  0
  2  5  1  0  0  0
  2 12  1  0  0  0
  3  4  1  0  0  0
  3  7  1  0  0  0
  3 28  1  0  0  0
  4  6  2  0  0  0
  4 14  1  0  0  0
  5  6  1  0  0  0
  5 29  1  0  0  0
  6 26  1  0  0  0
  7 13  2  0  0  0
  7 19  1  0  0  0
  8 17  2  0  0  0
  8 16  1  0  0  0
  9 12  1  0  0  0
  9 11  1  0  0  0
  9 17  1  0  0  0
 10 20  2  0  0  0
 10 24  1  0  0  0
 11 16  2  0  0  0
 12 30  1  0  0  0
 12 31  1  0  0  0
 13 18  1  0  0  0
 13 22  1  0  0  0
 14 15  3  0  0  0
 16 32  1  0  0  0
 17 33  1  0  0  0
 18 21  2  0  0  0
 18 34  1  0  0  0
 19 23  2  0  0  0
 19 35  1  0  0  0
 21 23  1  0  0  0
 21 25  1  0  0  0
 23 36  1  0  0  0
 24 27  1  0  0  0
 26 37  1  0  0  0
 26 38  1  0  0  0
 26 39  1  0  0  0
 27 40  1  0  0  0
 27 41  1  0  0  0
 27 42  1  0  0  0
M  END
> <s_m_entry_id>
9689

> <s_m_entry_name>
dock_pv.129

> <s_m_Source_Path>
/home/csk/Desktop/cluster/DUD-E-result/mcr

> <s_m_Source_File>
dock_pv.maegz

> <i_m_Source_File_Index>
129

> <chembl_id>
CHEMBL1215621

> <chembl_pref_name>
None

> <i_lp_mmshare_version>
53161

> <i_f3d_flags>
0

> <r_lp_tautomer_probability>
1

> <s_lp_Force_Field>
OPLS_2005

> <r_lp_Energy>
18.33955

> <b_lp_Chiralities_Consistent>
1

> <s_lp_Variant>
CHEMBL1994_lig262-2

> <s_i_glide_gridfile>
glide-grid_2aa2

> <i_i_glide_lignum>
445

> <i_i_glide_rotatable_bonds>
5

> <r_i_docking_score>
-8.12197607191783

> <r_i_glide_ligand_efficiency>
-0.300813928589549

> <r_i_glide_ligand_efficiency_sa>
-0.902441784777214

> <r_i_glide_ligand_efficiency_ln>
-1.89066212830197

> <r_i_glide_gscore>
-8.12197607191783

> <r_i_glide_lipo>
-3.54214858305201

> <r_i_glide_hbond>
-0.169440005714172

> <r_i_glide_metal>
0

> <r_i_glide_rewards>
-3.03115480982026

> <r_i_glide_evdw>
-24.0183181762695

> <r_i_glide_ecoul>
-4.08545303344727

> <r_i_glide_erotb>
0.518067464832425

> <r_i_glide_esite>
-0.0835662743332442

> <r_i_glide_emodel>
-42.6646695508744

> <r_i_glide_energy>
-28.1037712097168

> <r_i_glide_einternal>
5.86306095123291

> <i_i_glide_confnum>
16

> <i_i_glide_posenum>
255

> <r_i_glide_eff_state_penalty>
0

> <s_user_duplicate_titles>
CHEMBL1994_lig262,687487

> <s_m_subgroup_title>
dock_pv

> <s_m_subgroupid>
dock_pv

> <b_m_subgroup_collapsed>
1

$$$$
CHEMBL1994_lig43
                    3D
 Schrodinger Suite 2021-1.
 32 34  0  0  1  0            999 V2000
   19.7800   70.8170   18.5138 C   0  0  0  0  0  0
   19.3363   71.7922   19.5565 C   0  0  0  0  0  0
   17.9578   71.8674   19.7920 C   0  0  0  0  0  0
   21.2567   70.7221   18.1086 C   0  0  0  0  0  0
   19.6719   73.5717   21.2241 C   0  0  0  0  0  0
   21.2848   75.5629   21.2080 C   0  0  0  0  0  0
   17.0410   71.0620   19.1336 O   0  0  0  0  0  0
   18.2774   73.6543   21.3830 C   0  0  0  0  0  0
   17.4216   70.1382   18.1859 C   0  0  0  0  0  0
   20.1764   72.6331   20.3080 C   0  0  0  0  0  0
   18.8506   70.0554   17.8889 C   0  0  0  0  0  0
   20.6042   74.4712   22.0444 C   0  0  1  0  0  0
   17.4410   72.7852   20.6975 C   0  0  0  0  0  0
   17.6721   74.6035   22.2269 N   0  0  0  0  0  0
   16.5237   69.4768   17.6700 O   0  0  0  0  0  0
   21.9034   69.8882   18.9151 F   0  0  0  0  0  0
   21.8410   71.9135   18.1268 F   0  0  0  0  0  0
   21.3729   70.2620   16.8654 F   0  0  0  0  0  0
   21.8410   75.0705   20.1117 F   0  0  0  0  0  0
   20.4303   76.5069   20.8700 F   0  0  0  0  0  0
   22.2410   76.1864   21.8691 F   0  0  0  0  0  0
   18.4587   75.6265   22.9017 C   0  0  0  0  0  0
   19.8463   75.0663   23.2482 C   0  0  0  0  0  0
   21.2461   72.5924   20.1914 H   0  0  0  0  0  0
   19.1628   69.3557   17.1279 H   0  0  0  0  0  0
   21.4080   73.8620   22.4501 H   0  0  0  0  0  0
   16.3773   72.8295   20.8702 H   0  0  0  0  0  0
   16.6802   74.7845   22.1622 H   0  0  0  0  0  0
   17.9269   75.9819   23.7856 H   0  0  0  0  0  0
   18.5256   76.4523   22.1944 H   0  0  0  0  0  0
   19.7220   74.3039   24.0192 H   0  0  0  0  0  0
   20.4514   75.8620   23.6700 H   0  0  0  0  0  0
  1  2  1  0  0  0
  1  4  1  0  0  0
  1 11  2  0  0  0
  2  3  2  0  0  0
  2 10  1  0  0  0
  3 13  1  0  0  0
  3  7  1  0  0  0
  4 16  1  0  0  0
  4 17  1  0  0  0
  4 18  1  0  0  0
  5 10  2  0  0  0
  5  8  1  0  0  0
  5 12  1  0  0  0
  6 12  1  0  0  0
  6 19  1  0  0  0
  6 20  1  0  0  0
  6 21  1  0  0  0
  7  9  1  0  0  0
  8 14  1  0  0  0
  8 13  2  0  0  0
  9 11  1  0  0  0
  9 15  2  0  0  0
 10 24  1  0  0  0
 11 25  1  0  0  0
 12 23  1  0  0  0
 12 26  1  0  0  0
 13 27  1  0  0  0
 14 22  1  0  0  0
 14 28  1  0  0  0
 22 23  1  0  0  0
 22 29  1  0  0  0
 22 30  1  0  0  0
 23 31  1  0  0  0
 23 32  1  0  0  0
M  END
> <s_m_entry_id>
9690

> <s_m_entry_name>
dock_pv.130

> <s_m_Source_Path>
/home/csk/Desktop/cluster/DUD-E-result/mcr

> <s_m_Source_File>
dock_pv.maegz

> <i_m_Source_File_Index>
130

> <chembl_id>
CHEMBL267270

> <chembl_pref_name>
None

> <i_lp_mmshare_version>
53161

> <i_f3d_flags>
0

> <r_lp_tautomer_probability>
1

> <s_lp_Force_Field>
OPLS_2005

> <r_lp_Energy>
19.497067

> <b_lp_Chiralities_Consistent>
1

> <s_lp_Variant>
CHEMBL1994_lig43-1

> <s_i_glide_gridfile>
glide-grid_2aa2

> <i_i_glide_lignum>
50

> <i_i_glide_rotatable_bonds>
2

> <r_i_docking_score>
-8.11390787300112

> <r_i_glide_ligand_efficiency>
-0.352778603173962

> <r_i_glide_ligand_efficiency_sa>
-1.00325541971602

> <r_i_glide_ligand_efficiency_ln>
-1.96201649654057

> <r_i_glide_gscore>
-8.11390787300112

> <r_i_glide_lipo>
-3.74484385881612

> <r_i_glide_hbond>
0

> <r_i_glide_metal>
0

> <r_i_glide_rewards>
-2.79158720794867

> <r_i_glide_evdw>
-31.2196712493896

> <r_i_glide_ecoul>
-0.0124829094856977

> <r_i_glide_erotb>
0

> <r_i_glide_esite>
-0.0146208073439884

> <r_i_glide_emodel>
-40.4691782370074

> <r_i_glide_energy>
-31.2321541588753

> <r_i_glide_einternal>
2.35383868217468

> <i_i_glide_confnum>
2

> <i_i_glide_posenum>
194

> <r_i_glide_eff_state_penalty>
0

> <s_user_duplicate_titles>
CHEMBL1994_lig43

> <s_m_subgroup_title>
dock_pv

> <s_m_subgroupid>
dock_pv

> <b_m_subgroup_collapsed>
1

$$$$
CHEMBL1994_lig803
                    3D
 Schrodinger Suite 2021-1.
 33 34  0  0  1  0            999 V2000
   18.2407   77.0141   23.6699 N   0  0  0  0  0  0
   17.5819   75.8832   23.8538 C   0  0  0  0  0  0
   16.6409   75.8621   24.6245 O   0  0  0  0  0  0
   17.9706   74.7859   23.1836 N   0  0  0  0  0  0
   19.0899   74.5568   22.3681 C   0  0  0  0  0  0
   19.0367   73.4125   21.5714 C   0  0  0  0  0  0
   20.1552   73.0593   20.8130 C   0  0  0  0  0  0
   20.1193   71.7949   19.9710 C   0  0  0  0  0  0
   19.5439   72.0306   18.5608 C   0  0  0  0  0  0
   18.7359   70.8408   18.0715 C   0  0  0  0  0  0
   17.4085   70.7082   18.4904 C   0  0  0  0  0  0
   16.6387   69.6317   18.0604 C   0  0  0  0  0  0
   17.1921   68.6856   17.2047 C   0  0  0  0  0  0
   18.5188   68.7973   16.7940 C   0  0  0  0  0  0
   19.0407   67.8632   15.9681 F   0  0  0  0  0  0
   19.2944   69.8750   17.2261 C   0  0  0  0  0  0
   21.2972   73.8618   20.8693 C   0  0  0  0  0  0
   21.2780   75.0004   21.6728 C   0  0  0  0  0  0
   20.2002   75.3493   22.4176 N   0  0  0  0  0  0
   19.0254   77.0391   23.0372 H   0  0  0  0  0  0
   18.0636   77.7697   24.3174 H   0  0  0  0  0  0
   17.3243   74.0108   23.2676 H   0  0  0  0  0  0
   18.1512   72.7918   21.5557 H   0  0  0  0  0  0
   19.5224   71.0625   20.5194 H   0  0  0  0  0  0
   21.1112   71.3517   19.9008 H   0  0  0  0  0  0
   20.3393   72.2724   17.8537 H   0  0  0  0  0  0
   18.8787   72.8963   18.5525 H   0  0  0  0  0  0
   16.9708   71.4373   19.1569 H   0  0  0  0  0  0
   15.6149   69.5270   18.3897 H   0  0  0  0  0  0
   16.5850   67.8621   16.8718 H   0  0  0  0  0  0
   20.3206   69.9581   16.9006 H   0  0  0  0  0  0
   22.1912   73.5789   20.3398 H   0  0  0  0  0  0
   22.1499   75.6347   21.7568 H   0  0  0  0  0  0
  1  2  1  0  0  0
  1 20  1  0  0  0
  1 21  1  0  0  0
  2  3  2  0  0  0
  2  4  1  0  0  0
  4  5  1  0  0  0
  4 22  1  0  0  0
  5  6  2  0  0  0
  5 19  1  0  0  0
  6  7  1  0  0  0
  6 23  1  0  0  0
  7  8  1  0  0  0
  7 17  2  0  0  0
  8  9  1  0  0  0
  8 24  1  0  0  0
  8 25  1  0  0  0
  9 10  1  0  0  0
  9 26  1  0  0  0
  9 27  1  0  0  0
 10 11  2  0  0  0
 10 16  1  0  0  0
 11 12  1  0  0  0
 11 28  1  0  0  0
 12 13  2  0  0  0
 12 29  1  0  0  0
 13 14  1  0  0  0
 13 30  1  0  0  0
 14 15  1  0  0  0
 14 16  2  0  0  0
 16 31  1  0  0  0
 17 18  1  0  0  0
 17 32  1  0  0  0
 18 19  2  0  0  0
 18 33  1  0  0  0
M  END
> <s_m_entry_id>
9691

> <s_m_entry_name>
dock_pv.131

> <s_m_Source_Path>
/home/csk/Desktop/cluster/DUD-E-result/mcr

> <s_m_Source_File>
dock_pv.maegz

> <i_m_Source_File_Index>
131

> <chembl_id>
CHEMBL3643669

> <chembl_pref_name>
None

> <i_lp_mmshare_version>
53161

> <i_f3d_flags>
0

> <r_lp_tautomer_probability>
1

> <s_lp_Force_Field>
OPLS_2005

> <r_lp_Energy>
6.840237

> <b_lp_Chiralities_Consistent>
1

> <s_lp_Variant>
CHEMBL1994_lig803-1

> <s_i_glide_gridfile>
glide-grid_2aa2

> <i_i_glide_lignum>
1219

> <i_i_glide_rotatable_bonds>
5

> <r_i_docking_score>
-8.11286545537396

> <r_i_glide_ligand_efficiency>
-0.426992918703893

> <r_i_glide_ligand_efficiency_sa>
-1.13938860714378

> <r_i_glide_ligand_efficiency_ln>
-2.05678564131024

> <r_i_glide_gscore>
-8.11286545537396

> <r_i_glide_lipo>
-3.73580910498717

> <r_i_glide_hbond>
-0.757811943763253

> <r_i_glide_metal>
0

> <r_i_glide_rewards>
-1.99021976787561

> <r_i_glide_evdw>
-34.0272979736328

> <r_i_glide_ecoul>
-6.09314489364624

> <r_i_glide_erotb>
1.05202798948701

> <r_i_glide_esite>
-0.0657159955063613

> <r_i_glide_emodel>
-56.3781504624964

> <r_i_glide_energy>
-40.1204428672791

> <r_i_glide_einternal>
4.66429662704468

> <i_i_glide_confnum>
37

> <i_i_glide_posenum>
363

> <r_i_glide_eff_state_penalty>
0

> <s_user_duplicate_titles>
CHEMBL1994_lig803

> <s_m_subgroup_title>
dock_pv

> <s_m_subgroupid>
dock_pv

> <b_m_subgroup_collapsed>
1

$$$$
CHEMBL1994_lig154
                    3D
 Schrodinger Suite 2021-1.
 45 46  0  0  1  0            999 V2000
   19.1142   72.7391   21.0481 C   0  0  0  0  0  0
   20.4733   73.0557   20.8700 C   0  0  0  0  0  0
   20.9482   74.3565   20.9984 C   0  0  0  0  0  0
   20.0804   75.3961   21.2697 C   0  0  0  0  0  0
   18.7257   75.1348   21.3707 C   0  0  0  0  0  0
   18.2298   73.8237   21.2389 C   0  0  0  0  0  0
   18.6168   71.2445   21.0593 C   0  0  0  0  0  0
   19.0572   70.3495   17.8446 C   0  0  0  0  0  0
   17.8859   69.8876   18.7076 C   0  0  2  0  0  0
   17.5836   70.9240   19.8785 C   0  0  0  0  0  0
   18.2080   68.6228   19.2707 O   0  0  0  0  0  0
   16.6437   69.5671   17.8152 C   0  0  0  0  0  0
   15.6305   69.0397   18.4702 F   0  0  0  0  0  0
   16.1837   70.6620   17.2700 F   0  0  0  0  0  0
   16.8753   68.7033   16.8236 F   0  0  0  0  0  0
   19.8089   70.2347   21.1264 C   0  0  0  0  0  0
   17.8914   71.0067   22.4123 C   0  0  0  0  0  0
   22.2579   74.6177   20.8716 F   0  0  0  0  0  0
   16.8861   73.5559   21.2700 O   0  0  0  0  0  0
   15.9792   74.6358   21.3538 C   0  0  0  0  0  0
   19.6149   69.4600   16.9254 C   0  0  0  0  0  0
   20.8974   69.6821   16.4935 C   0  0  0  0  0  0
   21.6479   70.6620   17.0883 C   0  0  0  0  0  0
   21.0409   71.6904   17.7849 C   0  0  0  0  0  0
   19.6957   71.5759   18.0726 C   0  0  0  0  0  0
   21.2001   72.2907   20.6622 H   0  0  0  0  0  0
   20.4535   76.4053   21.3545 H   0  0  0  0  0  0
   18.0757   75.9776   21.5430 H   0  0  0  0  0  0
   16.6410   70.6620   20.3267 H   0  0  0  0  0  0
   17.3035   71.8608   19.3978 H   0  0  0  0  0  0
   18.0848   67.9354   18.6086 H   0  0  0  0  0  0
   19.4807   69.2069   21.2700 H   0  0  0  0  0  0
   20.4319   70.2334   20.2352 H   0  0  0  0  0  0
   20.4608   70.4408   21.9736 H   0  0  0  0  0  0
   17.7340   69.9430   22.5725 H   0  0  0  0  0  0
   18.4627   71.3921   23.2581 H   0  0  0  0  0  0
   16.9051   71.4630   22.4626 H   0  0  0  0  0  0
   15.0183   74.1692   21.2700 H   0  0  0  0  0  0
   16.0290   75.1518   22.3135 H   0  0  0  0  0  0
   16.0876   75.3484   20.5341 H   0  0  0  0  0  0
   19.1382   68.5400   16.6282 H   0  0  0  0  0  0
   21.3740   69.0620   15.7664 H   0  0  0  0  0  0
   22.6948   70.7086   16.8700 H   0  0  0  0  0  0
   21.6062   72.5557   18.0997 H   0  0  0  0  0  0
   19.2317   72.3827   18.6065 H   0  0  0  0  0  0
  1  6  1  0  0  0
  1  7  1  0  0  0
  1  2  2  0  0  0
  2  3  1  0  0  0
  2 26  1  0  0  0
  3 18  1  0  0  0
  3  4  2  0  0  0
  4  5  1  0  0  0
  4 27  1  0  0  0
  5  6  2  0  0  0
  5 28  1  0  0  0
  6 19  1  0  0  0
  7 10  1  0  0  0
  7 16  1  0  0  0
  7 17  1  0  0  0
  8  9  1  0  0  0
  8 21  2  0  0  0
  8 25  1  0  0  0
  9 10  1  0  0  0
  9 11  1  0  0  0
  9 12  1  0  0  0
 10 29  1  0  0  0
 10 30  1  0  0  0
 11 31  1  0  0  0
 12 13  1  0  0  0
 12 14  1  0  0  0
 12 15  1  0  0  0
 16 32  1  0  0  0
 16 33  1  0  0  0
 16 34  1  0  0  0
 17 35  1  0  0  0
 17 36  1  0  0  0
 17 37  1  0  0  0
 19 20  1  0  0  0
 20 38  1  0  0  0
 20 39  1  0  0  0
 20 40  1  0  0  0
 21 22  1  0  0  0
 21 41  1  0  0  0
 22 23  2  0  0  0
 22 42  1  0  0  0
 23 24  1  0  0  0
 23 43  1  0  0  0
 24 25  2  0  0  0
 24 44  1  0  0  0
 25 45  1  0  0  0
M  END
> <s_m_entry_id>
9692

> <s_m_entry_name>
dock_pv.132

> <s_m_Source_Path>
/home/csk/Desktop/cluster/DUD-E-result/mcr

> <s_m_Source_File>
dock_pv.maegz

> <i_m_Source_File_Index>
132

> <chembl_id>
CHEMBL236403

> <chembl_pref_name>
None

> <i_lp_mmshare_version>
53161

> <i_f3d_flags>
0

> <r_lp_tautomer_probability>
1

> <s_lp_Force_Field>
OPLS_2005

> <r_lp_Energy>
33.639193

> <b_lp_Chiralities_Consistent>
1

> <s_lp_Variant>
CHEMBL1994_lig154-2

> <s_i_glide_gridfile>
glide-grid_2aa2

> <i_i_glide_lignum>
258

> <i_i_glide_rotatable_bonds>
7

> <r_i_docking_score>
-8.1060554413431

> <r_i_glide_ligand_efficiency>
-0.324242217653724

> <r_i_glide_ligand_efficiency_sa>
-0.948089994879704

> <r_i_glide_ligand_efficiency_ln>
-1.92137805847754

> <r_i_glide_gscore>
-8.1060554413431

> <r_i_glide_lipo>
-4.72545573167693

> <r_i_glide_hbond>
-0.0432944938423476

> <r_i_glide_metal>
0

> <r_i_glide_rewards>
-2.37376239550647

> <r_i_glide_evdw>
-21.3498134613037

> <r_i_glide_ecoul>
-2.28571200370789

> <r_i_glide_erotb>
0.45196283931351

> <r_i_glide_esite>
-0.00515818600949038

> <r_i_glide_emodel>
-26.4514964480913

> <r_i_glide_energy>
-23.6355254650116

> <r_i_glide_einternal>
11.0818195343018

> <i_i_glide_confnum>
7

> <i_i_glide_posenum>
382

> <r_i_glide_eff_state_penalty>
0

> <s_user_duplicate_titles>
CHEMBL1994_lig154

> <s_m_subgroup_title>
dock_pv

> <s_m_subgroupid>
dock_pv

> <b_m_subgroup_collapsed>
1

$$$$
CHEMBL1994_lig752
                    3D
 Schrodinger Suite 2021-1.
 36 38  0  0  1  0            999 V2000
   19.1062   68.4559   16.4880 C   0  0  0  0  0  0
   17.7243   69.0615   16.8730 C   0  0  0  0  0  0
   17.8345   70.1344   17.6705 N   0  0  0  0  0  0
   20.1731   69.4357   16.4240 O   0  0  0  0  0  0
   20.2097   70.3345   17.4654 C   0  0  0  0  0  0
   19.0212   70.7123   18.0849 C   0  0  0  0  0  0
   19.0402   71.6495   19.1048 C   0  0  0  0  0  0
   20.2577   72.1910   19.5397 C   0  0  0  0  0  0
   21.4395   71.8431   18.8703 C   0  0  0  0  0  0
   21.4194   70.9103   17.8347 C   0  0  0  0  0  0
   16.6411   68.6619   16.4696 O   0  0  0  0  0  0
   20.3111   73.1295   20.7446 C   0  0  0  0  0  0
   19.2370   72.8595   21.7025 N   0  0  0  0  0  0
   18.5446   73.9460   22.2416 C   0  0  0  0  0  0
   19.0458   71.5652   22.3538 C   0  0  0  0  0  0
   18.8694   74.4426   23.5073 C   0  0  0  0  0  0
   18.1063   75.4611   24.0707 C   0  0  0  0  0  0
   17.0048   75.9628   23.3884 C   0  0  0  0  0  0
   16.6707   75.4620   22.1334 C   0  0  0  0  0  0
   17.4545   74.4804   21.5475 C   0  0  0  0  0  0
   17.1381   74.0472   20.3112 F   0  0  0  0  0  0
   16.2529   76.9265   23.9528 F   0  0  0  0  0  0
   19.0132   67.9237   15.5425 H   0  0  0  0  0  0
   19.3353   67.7327   17.2696 H   0  0  0  0  0  0
   16.9543   70.5169   17.9852 H   0  0  0  0  0  0
   18.1130   71.9145   19.5903 H   0  0  0  0  0  0
   22.3847   72.2617   19.1810 H   0  0  0  0  0  0
   22.3296   70.6402   17.3231 H   0  0  0  0  0  0
   20.2497   74.1555   20.3796 H   0  0  0  0  0  0
   21.2677   73.0553   21.2662 H   0  0  0  0  0  0
   17.9987   71.4178   22.6276 H   0  0  0  0  0  0
   19.3476   70.7387   21.7088 H   0  0  0  0  0  0
   19.6234   71.5048   23.2700 H   0  0  0  0  0  0
   19.6999   74.0317   24.0637 H   0  0  0  0  0  0
   18.3383   75.8480   25.0507 H   0  0  0  0  0  0
   15.8106   75.8520   21.6110 H   0  0  0  0  0  0
  1  2  1  0  0  0
  1  4  1  0  0  0
  1 23  1  0  0  0
  1 24  1  0  0  0
  2  3  1  0  0  0
  2 11  2  0  0  0
  3  6  1  0  0  0
  3 25  1  0  0  0
  4  5  1  0  0  0
  5  6  2  0  0  0
  5 10  1  0  0  0
  6  7  1  0  0  0
  7  8  2  0  0  0
  7 26  1  0  0  0
  8  9  1  0  0  0
  8 12  1  0  0  0
  9 10  2  0  0  0
  9 27  1  0  0  0
 10 28  1  0  0  0
 12 13  1  0  0  0
 12 29  1  0  0  0
 12 30  1  0  0  0
 13 14  1  0  0  0
 13 15  1  0  0  0
 14 16  2  0  0  0
 14 20  1  0  0  0
 15 31  1  0  0  0
 15 32  1  0  0  0
 15 33  1  0  0  0
 16 17  1  0  0  0
 16 34  1  0  0  0
 17 18  2  0  0  0
 17 35  1  0  0  0
 18 19  1  0  0  0
 18 22  1  0  0  0
 19 20  2  0  0  0
 19 36  1  0  0  0
 20 21  1  0  0  0
M  END
> <s_m_entry_id>
9693

> <s_m_entry_name>
dock_pv.133

> <s_m_Source_Path>
/home/csk/Desktop/cluster/DUD-E-result/mcr

> <s_m_Source_File>
dock_pv.maegz

> <i_m_Source_File_Index>
133

> <chembl_id>
CHEMBL3775291

> <chembl_pref_name>
None

> <i_lp_mmshare_version>
53161

> <i_f3d_flags>
0

> <r_lp_tautomer_probability>
1

> <s_lp_Force_Field>
OPLS_2005

> <r_lp_Energy>
24.47831

> <b_lp_Chiralities_Consistent>
1

> <s_lp_Variant>
CHEMBL1994_lig752-1

> <s_i_glide_gridfile>
glide-grid_2aa2

> <i_i_glide_lignum>
1166

> <i_i_glide_rotatable_bonds>
3

> <r_i_docking_score>
-8.10273355723236

> <r_i_glide_ligand_efficiency>
-0.368306070783289

> <r_i_glide_ligand_efficiency_sa>
-1.0320080949906

> <r_i_glide_ligand_efficiency_ln>
-1.98060363577524

> <r_i_glide_gscore>
-8.10273355723236

> <r_i_glide_lipo>
-3.52900192594065

> <r_i_glide_hbond>
-0.0870399422859673

> <r_i_glide_metal>
0

> <r_i_glide_rewards>
-2.86792526197433

> <r_i_glide_evdw>
-36.2767753601074

> <r_i_glide_ecoul>
-2.62482070922852

> <r_i_glide_erotb>
0.597452307184979

> <r_i_glide_esite>
-0.00865685982674237

> <r_i_glide_emodel>
-54.5451391325119

> <r_i_glide_energy>
-38.9015960693359

> <r_i_glide_einternal>
2.5826690196991

> <i_i_glide_confnum>
5

> <i_i_glide_posenum>
396

> <r_i_glide_eff_state_penalty>
0

> <s_user_duplicate_titles>
CHEMBL1994_lig752

> <s_m_subgroup_title>
dock_pv

> <s_m_subgroupid>
dock_pv

> <b_m_subgroup_collapsed>
1

$$$$
CHEMBL1994_lig28
                    3D
 Schrodinger Suite 2021-1.
 41 42  0  0  1  0            999 V2000
   17.8519   68.8223   16.8175 N   0  3  0  0  0  0
   18.2037   74.4504   20.7971 C   0  0  0  0  0  0
   19.6269   73.9075   20.6872 C   0  0  1  0  0  0
   20.5426   74.7982   21.5949 C   0  0  0  0  0  0
   17.7290   74.8425   22.1095 C   0  0  0  0  0  0
   18.5378   74.9922   23.1769 C   0  0  0  0  0  0
   18.3071   69.7635   17.8662 C   0  0  0  0  0  0
   20.0483   74.7487   23.0686 C   0  0  0  0  0  0
   16.6451   68.6620   16.6667 O   0  5  0  0  0  0
   18.6865   68.2643   16.1092 O   0  0  0  0  0  0
   19.6388   72.3896   21.0264 C   0  0  0  0  0  0
   17.4479   74.6360   19.7129 C   0  0  0  0  0  0
   17.3970   70.2620   18.8084 C   0  0  0  0  0  0
   19.6471   70.1690   17.9333 C   0  0  0  0  0  0
   19.1588   71.4944   19.8933 C   0  0  0  0  0  0
   17.8187   71.1197   19.8180 C   0  0  0  0  0  0
   20.0705   71.0288   18.9429 C   0  0  0  0  0  0
   20.5228   76.2618   21.1214 C   0  0  0  0  0  0
   21.9905   74.3223   21.4829 C   0  0  0  0  0  0
   17.9884   75.3195   24.5450 C   0  0  0  0  0  0
   19.9791   74.0227   19.6596 H   0  0  0  0  0  0
   16.6695   75.0174   22.2388 H   0  0  0  0  0  0
   20.6094   75.4598   23.6710 H   0  0  0  0  0  0
   20.2149   73.7604   23.4965 H   0  0  0  0  0  0
   20.6410   72.0532   21.2700 H   0  0  0  0  0  0
   19.0611   72.1832   21.9295 H   0  0  0  0  0  0
   17.8411   74.3580   18.7466 H   0  0  0  0  0  0
   16.4562   75.0605   19.7653 H   0  0  0  0  0  0
   16.3551   69.9731   18.7787 H   0  0  0  0  0  0
   20.3690   69.8085   17.2135 H   0  0  0  0  0  0
   17.1058   71.4813   20.5462 H   0  0  0  0  0  0
   21.1099   71.3208   18.9957 H   0  0  0  0  0  0
   20.7258   76.2672   20.0701 H   0  0  0  0  0  0
   19.5856   76.7914   21.2930 H   0  0  0  0  0  0
   21.3470   76.8265   21.5522 H   0  0  0  0  0  0
   22.2409   74.0651   20.4677 H   0  0  0  0  0  0
   22.6498   75.1221   21.7818 H   0  0  0  0  0  0
   22.2314   73.4620   22.0701 H   0  0  0  0  0  0
   18.4172   76.2615   24.8687 H   0  0  0  0  0  0
   18.2508   74.5407   25.2594 H   0  0  0  0  0  0
   16.9036   75.4266   24.5430 H   0  0  0  0  0  0
  1  7  1  0  0  0
  1  9  1  0  0  0
  1 10  2  0  0  0
  2  3  1  0  0  0
  2  5  1  0  0  0
  2 12  2  0  0  0
  3 11  1  0  0  0
  3  4  1  0  0  0
  3 21  1  0  0  0
  4  8  1  0  0  0
  4 18  1  0  0  0
  4 19  1  0  0  0
  5  6  2  0  0  0
  5 22  1  0  0  0
  6  8  1  0  0  0
  6 20  1  0  0  0
  7 13  2  0  0  0
  7 14  1  0  0  0
  8 23  1  0  0  0
  8 24  1  0  0  0
 11 15  1  0  0  0
 11 25  1  0  0  0
 11 26  1  0  0  0
 12 27  1  0  0  0
 12 28  1  0  0  0
 13 16  1  0  0  0
 13 29  1  0  0  0
 14 17  2  0  0  0
 14 30  1  0  0  0
 15 17  1  0  0  0
 15 16  2  0  0  0
 16 31  1  0  0  0
 17 32  1  0  0  0
 18 33  1  0  0  0
 18 34  1  0  0  0
 18 35  1  0  0  0
 19 36  1  0  0  0
 19 37  1  0  0  0
 19 38  1  0  0  0
 20 39  1  0  0  0
 20 40  1  0  0  0
 20 41  1  0  0  0
M  CHG  2   1   1   9  -1
M  END
> <s_m_entry_id>
9694

> <s_m_entry_name>
dock_pv.134

> <s_m_Source_Path>
/home/csk/Desktop/cluster/DUD-E-result/mcr

> <s_m_Source_File>
dock_pv.maegz

> <i_m_Source_File_Index>
134

> <chembl_id>
CHEMBL50023

> <chembl_pref_name>
None

> <i_lp_mmshare_version>
53161

> <i_f3d_flags>
0

> <r_lp_tautomer_probability>
1

> <s_lp_Force_Field>
OPLS_2005

> <r_lp_Energy>
22.995868

> <b_lp_Chiralities_Consistent>
1

> <s_lp_Variant>
CHEMBL1994_lig28-1

> <s_i_glide_gridfile>
glide-grid_2aa2

> <i_i_glide_lignum>
29

> <i_i_glide_rotatable_bonds>
3

> <r_i_docking_score>
-8.09168382717501

> <r_i_glide_ligand_efficiency>
-0.40458419135875

> <r_i_glide_ligand_efficiency_sa>
-1.09821045532335

> <r_i_glide_ligand_efficiency_ln>
-2.0250815803477

> <r_i_glide_gscore>
-8.09168382717501

> <r_i_glide_lipo>
-4.0609670826983

> <r_i_glide_hbond>
0

> <r_i_glide_metal>
0

> <r_i_glide_rewards>
-2.79775134559525

> <r_i_glide_evdw>
-29.4647884368896

> <r_i_glide_ecoul>
-1.63992750644684

> <r_i_glide_erotb>
0.486263148930052

> <r_i_glide_esite>
0

> <r_i_glide_emodel>
-40.1204042281269

> <r_i_glide_energy>
-31.1047159433365

> <r_i_glide_einternal>
0.502780437469482

> <i_i_glide_confnum>
1

> <i_i_glide_posenum>
356

> <r_i_glide_eff_state_penalty>
0

> <s_user_duplicate_titles>
CHEMBL1994_lig28

> <s_m_subgroup_title>
dock_pv

> <s_m_subgroupid>
dock_pv

> <b_m_subgroup_collapsed>
1

$$$$
CHEMBL1994_lig12
                    3D
 Schrodinger Suite 2021-1.
 33 35  0  0  1  0            999 V2000
   18.6179   74.3713   20.8979 C   0  0  0  0  0  0
   19.0193   73.1999   20.1680 C   0  0  0  0  0  0
   19.9777   71.0059   18.6622 C   0  0  0  0  0  0
   20.4232   73.0167   19.9514 C   0  0  0  0  0  0
   18.6294   71.1191   18.9357 C   0  0  0  0  0  0
   20.2481   69.8620   17.9110 N   0  0  0  0  0  0
   17.1458   74.7363   21.1420 C   0  0  0  0  0  0
   21.3544   73.8620   20.4691 N   0  0  0  0  0  0
   20.9610   74.9513   21.1624 C   0  0  0  0  0  0
   18.1362   72.2089   19.6448 C   0  0  0  0  0  0
   19.6161   75.2229   21.3862 C   0  0  0  0  0  0
   20.8844   71.9289   19.1680 C   0  0  0  0  0  0
   17.9136   69.9057   18.4107 C   0  0  2  0  0  0
   19.0049   69.1463   17.6228 C   0  0  1  0  0  0
   21.8410   75.8620   21.6700 O   0  0  0  0  0  0
   16.3372   73.6936   21.2700 F   0  0  0  0  0  0
   17.0089   75.4620   22.2521 F   0  0  0  0  0  0
   16.7227   75.4620   20.1098 F   0  0  0  0  0  0
   16.6064   70.2001   17.6701 C   0  0  0  0  0  0
   18.8378   68.9476   16.1081 C   0  0  0  0  0  0
   19.0410   68.1447   18.0527 H   0  0  0  0  0  0
   17.6458   69.2889   19.2700 H   0  0  0  0  0  0
   20.9027   69.7635   17.1491 H   0  0  0  0  0  0
   17.0748   72.2614   19.8022 H   0  0  0  0  0  0
   19.3473   76.1172   21.9304 H   0  0  0  0  0  0
   21.9449   71.8171   18.9949 H   0  0  0  0  0  0
   22.7495   75.5730   21.5632 H   0  0  0  0  0  0
   15.8681   70.6497   18.3323 H   0  0  0  0  0  0
   16.1618   69.2942   17.2593 H   0  0  0  0  0  0
   16.7865   70.9066   16.8700 H   0  0  0  0  0  0
   17.8433   68.5906   15.8453 H   0  0  0  0  0  0
   19.0410   69.8621   15.5517 H   0  0  0  0  0  0
   19.5401   68.1961   15.7515 H   0  0  0  0  0  0
  1  2  1  0  0  0
  1  7  1  0  0  0
  1 11  2  0  0  0
  2  4  2  0  0  0
  2 10  1  0  0  0
  3  5  1  0  0  0
  3  6  1  0  0  0
  3 12  2  0  0  0
  4 12  1  0  0  0
  4  8  1  0  0  0
  5 10  2  0  0  0
  5 13  1  0  0  0
  6 14  1  0  0  0
  6 23  1  0  0  0
  7 16  1  0  0  0
  7 17  1  0  0  0
  7 18  1  0  0  0
  8  9  2  0  0  0
  9 11  1  0  0  0
  9 15  1  0  0  0
 10 24  1  0  0  0
 11 25  1  0  0  0
 12 26  1  0  0  0
 13 14  1  0  0  0
 13 19  1  0  0  0
 13 22  1  0  0  0
 14 20  1  0  0  0
 14 21  1  0  0  0
 15 27  1  0  0  0
 19 28  1  0  0  0
 19 29  1  0  0  0
 19 30  1  0  0  0
 20 31  1  0  0  0
 20 32  1  0  0  0
 20 33  1  0  0  0
M  END
> <s_m_entry_id>
9695

> <s_m_entry_name>
dock_pv.135

> <s_m_Source_Path>
/home/csk/Desktop/cluster/DUD-E-result/mcr

> <s_m_Source_File>
dock_pv.maegz

> <i_m_Source_File_Index>
135

> <chembl_id>
CHEMBL162569

> <chembl_pref_name>
None

> <i_lp_mmshare_version>
53161

> <i_f3d_flags>
0

> <r_lp_tautomer_probability>
1

> <s_lp_Force_Field>
OPLS_2005

> <r_lp_Energy>
21.691069

> <b_lp_Chiralities_Consistent>
1

> <s_lp_Variant>
CHEMBL1994_lig12-1

> <s_i_glide_gridfile>
glide-grid_2aa2

> <i_i_glide_lignum>
12

> <i_i_glide_rotatable_bonds>
2

> <r_i_docking_score>
-8.09131138184846

> <r_i_glide_ligand_efficiency>
-0.404565569092423

> <r_i_glide_ligand_efficiency_sa>
-1.09815990671562

> <r_i_glide_ligand_efficiency_ln>
-2.02498836956653

> <r_i_glide_gscore>
-8.09131138184846

> <r_i_glide_lipo>
-3.76817507532652

> <r_i_glide_hbond>
-0.027684325266086

> <r_i_glide_metal>
0

> <r_i_glide_rewards>
-2.55073127640028

> <r_i_glide_evdw>
-34.2310562133789

> <r_i_glide_ecoul>
-0.0908213928341866

> <r_i_glide_erotb>
0

> <r_i_glide_esite>
-0.0195446852614959

> <r_i_glide_emodel>
-45.9098592296734

> <r_i_glide_energy>
-34.3218776062131

> <r_i_glide_einternal>
3.01513981819153

> <i_i_glide_confnum>
1

> <i_i_glide_posenum>
359

> <r_i_glide_eff_state_penalty>
0

> <s_user_duplicate_titles>
CHEMBL1994_lig12

> <s_m_subgroup_title>
dock_pv

> <s_m_subgroupid>
dock_pv

> <b_m_subgroup_collapsed>
1

$$$$
CHEMBL1994_lig951 
                    3D
 Schrodinger Suite 2021-1.
 43 46  0  0  1  0            999 V2000
   21.3228   73.1504   18.0700 O   0  0  0  0  0  0
   19.9210   73.0769   18.4806 S   0  0  0  0  0  0
   18.8390   73.6314   17.6700 O   0  0  0  0  0  0
   20.8234   74.7842   22.0110 C   0  0  0  0  0  0
   18.5524   74.3297   20.4048 C   0  0  0  0  0  0
   19.8154   73.9046   20.0095 C   0  0  0  0  0  0
   20.9528   74.1249   20.7956 C   0  0  0  0  0  0
   18.4299   74.9975   21.6005 C   0  0  0  0  0  0
   19.5562   75.1960   22.4024 C   0  0  0  0  0  0
   19.4176   75.8620   23.5840 O   0  0  0  0  0  0
   18.1360   75.6711   24.2005 C   0  0  0  0  0  0
   16.9264   75.8620   23.2760 C   0  0  0  0  0  0
   17.1972   75.4620   22.0290 N   0  0  0  0  0  0
   15.8410   76.2620   23.6698 O   0  0  0  0  0  0
   19.6187   71.4005   18.9334 N   0  0  0  0  0  0
   20.7300   70.7592   19.6213 C   0  0  1  0  0  0
   20.2410   69.9357   20.8214 C   0  0  0  0  0  0
   19.1063   68.9902   20.5254 C   0  0  0  0  0  0
   18.4783   70.6052   18.6528 C   0  0  0  0  0  0
   18.3528   69.3512   19.2776 C   0  0  0  0  0  0
   17.4409   68.4313   18.8018 C   0  0  0  0  0  0
   16.5529   68.7646   17.7986 C   0  0  0  0  0  0
   16.5577   70.0486   17.2908 C   0  0  0  0  0  0
   17.5164   70.9607   17.7067 C   0  0  0  0  0  0
   21.6363   70.0728   18.5823 C   0  0  0  0  0  0
   21.6855   74.9740   22.6339 H   0  0  0  0  0  0
   17.6810   74.1554   19.7889 H   0  0  0  0  0  0
   21.9273   73.7902   20.4715 H   0  0  0  0  0  0
   18.0544   74.7041   24.6992 H   0  0  0  0  0  0
   17.9702   76.4687   24.8700 H   0  0  0  0  0  0
   16.4062   75.4686   21.4036 H   0  0  0  0  0  0
   21.3456   71.5446   20.0557 H   0  0  0  0  0  0
   21.0554   69.3803   21.2804 H   0  0  0  0  0  0
   19.9346   70.6370   21.6006 H   0  0  0  0  0  0
   18.4088   69.0620   21.3529 H   0  0  0  0  0  0
   19.4410   67.9552   20.4927 H   0  0  0  0  0  0
   17.3908   67.4620   19.2700 H   0  0  0  0  0  0
   15.8410   68.0399   17.4537 H   0  0  0  0  0  0
   15.8410   70.3419   16.5445 H   0  0  0  0  0  0
   17.4784   71.9272   17.2550 H   0  0  0  0  0  0
   22.3968   69.4620   19.0653 H   0  0  0  0  0  0
   21.0656   69.4620   17.8874 H   0  0  0  0  0  0
   22.1719   70.8011   17.9741 H   0  0  0  0  0  0
  1  2  2  0  0  0
  2  3  2  0  0  0
  2  6  1  0  0  0
  2 15  1  0  0  0
  4  9  2  0  0  0
  4  7  1  0  0  0
  4 26  1  0  0  0
  5  8  2  0  0  0
  5  6  1  0  0  0
  5 27  1  0  0  0
  6  7  2  0  0  0
  7 28  1  0  0  0
  8  9  1  0  0  0
  8 13  1  0  0  0
  9 10  1  0  0  0
 10 11  1  0  0  0
 11 12  1  0  0  0
 11 29  1  0  0  0
 11 30  1  0  0  0
 12 13  1  0  0  0
 12 14  2  0  0  0
 13 31  1  0  0  0
 15 16  1  0  0  0
 15 19  1  0  0  0
 16 17  1  0  0  0
 16 25  1  0  0  0
 16 32  1  0  0  0
 17 18  1  0  0  0
 17 33  1  0  0  0
 17 34  1  0  0  0
 18 20  1  0  0  0
 18 35  1  0  0  0
 18 36  1  0  0  0
 19 20  2  0  0  0
 19 24  1  0  0  0
 20 21  1  0  0  0
 21 22  2  0  0  0
 21 37  1  0  0  0
 22 23  1  0  0  0
 22 38  1  0  0  0
 23 24  2  0  0  0
 23 39  1  0  0  0
 24 40  1  0  0  0
 25 41  1  0  0  0
 25 42  1  0  0  0
 25 43  1  0  0  0
M  END
> <s_m_entry_id>
9696

> <s_m_entry_name>
dock_pv.136

> <s_m_Source_Path>
/home/csk/Desktop/cluster/DUD-E-result/mcr

> <s_m_Source_File>
dock_pv.maegz

> <i_m_Source_File_Index>
136

> <chembl_id>
CHEMBL4467010

> <chembl_pref_name>
None

> <i_lp_mmshare_version>
53161

> <i_f3d_flags>
0

> <r_lp_tautomer_probability>
1

> <s_lp_Force_Field>
OPLS_2005

> <r_lp_Energy>
29.346598

> <b_lp_Chiralities_Consistent>
1

> <s_lp_Variant>
CHEMBL1994_lig951 -2

> <s_i_glide_gridfile>
glide-grid_2aa2

> <i_i_glide_lignum>
1392

> <i_i_glide_rotatable_bonds>
2

> <r_i_docking_score>
-8.09030253995789

> <r_i_glide_ligand_efficiency>
-0.323612101598316

> <r_i_glide_ligand_efficiency_sa>
-0.946247524358535

> <r_i_glide_ligand_efficiency_ln>
-1.91764414877289

> <r_i_glide_gscore>
-8.09030253995789

> <r_i_glide_lipo>
-4.03477862219029

> <r_i_glide_hbond>
-0.196940587658758

> <r_i_glide_metal>
0

> <r_i_glide_rewards>
-2.34742295582669

> <r_i_glide_evdw>
-21.1781044006348

> <r_i_glide_ecoul>
-5.00325775146484

> <r_i_glide_erotb>
0.29823350846931

> <r_i_glide_esite>
0

> <r_i_glide_emodel>
-37.9235936330359

> <r_i_glide_energy>
-26.1813621520996

> <r_i_glide_einternal>
3.5185124874115

> <i_i_glide_confnum>
26

> <i_i_glide_posenum>
187

> <r_i_glide_eff_state_penalty>
0

> <s_user_duplicate_titles>
CHEMBL1994_lig951 

> <s_m_subgroup_title>
dock_pv

> <s_m_subgroupid>
dock_pv

> <b_m_subgroup_collapsed>
1

$$$$
CHEMBL1994_lig13
                    3D
 Schrodinger Suite 2021-1.
 30 32  0  0  1  0            999 V2000
   18.6428   74.3946   20.8867 C   0  0  0  0  0  0
   19.0519   73.2614   20.1059 C   0  0  0  0  0  0
   20.4575   73.0731   19.9035 C   0  0  0  0  0  0
   17.1663   74.7398   21.1287 C   0  0  0  0  0  0
   21.3840   73.8955   20.4699 N   0  0  0  0  0  0
   20.0041   71.1344   18.5029 C   0  0  0  0  0  0
   20.9800   74.9560   21.2072 C   0  0  0  0  0  0
   19.6338   75.2193   21.4265 C   0  0  0  0  0  0
   20.2467   70.0524   17.6519 N   0  0  0  0  0  0
   18.1640   72.3273   19.5015 C   0  0  0  0  0  0
   18.6492   71.2778   18.7363 C   0  0  0  0  0  0
   20.9180   72.0147   19.0742 C   0  0  0  0  0  0
   17.8977   70.2501   17.9470 C   0  0  0  0  0  0
   19.0046   69.3022   17.4777 C   0  0  1  0  0  0
   21.8408   75.8477   21.7801 O   0  0  0  0  0  0
   16.3878   73.6744   21.2699 F   0  0  0  0  0  0
   17.0139   75.4664   22.2359 F   0  0  0  0  0  0
   16.7264   75.4522   20.0917 F   0  0  0  0  0  0
   18.8283   68.7166   16.0704 C   0  0  0  0  0  0
   19.0376   68.4675   18.1796 H   0  0  0  0  0  0
   19.3583   76.0863   22.0101 H   0  0  0  0  0  0
   20.8605   69.9822   16.8538 H   0  0  0  0  0  0
   17.0999   72.4078   19.6207 H   0  0  0  0  0  0
   21.9791   71.8981   18.9077 H   0  0  0  0  0  0
   17.4045   70.7313   17.1044 H   0  0  0  0  0  0
   17.1403   69.7210   18.5267 H   0  0  0  0  0  0
   22.7517   75.5468   21.7462 H   0  0  0  0  0  0
   17.8149   68.3415   15.9278 H   0  0  0  0  0  0
   19.5069   67.8792   15.9128 H   0  0  0  0  0  0
   19.0314   69.4596   15.2974 H   0  0  0  0  0  0
  1  2  1  0  0  0
  1  4  1  0  0  0
  1  8  2  0  0  0
  2  3  2  0  0  0
  2 10  1  0  0  0
  3 12  1  0  0  0
  3  5  1  0  0  0
  4 16  1  0  0  0
  4 17  1  0  0  0
  4 18  1  0  0  0
  5  7  2  0  0  0
  6 11  1  0  0  0
  6  9  1  0  0  0
  6 12  2  0  0  0
  7  8  1  0  0  0
  7 15  1  0  0  0
  8 21  1  0  0  0
  9 14  1  0  0  0
  9 22  1  0  0  0
 10 11  2  0  0  0
 10 23  1  0  0  0
 11 13  1  0  0  0
 12 24  1  0  0  0
 13 14  1  0  0  0
 13 25  1  0  0  0
 13 26  1  0  0  0
 14 19  1  0  0  0
 14 20  1  0  0  0
 15 27  1  0  0  0
 19 28  1  0  0  0
 19 29  1  0  0  0
 19 30  1  0  0  0
M  END
> <s_m_entry_id>
9697

> <s_m_entry_name>
dock_pv.137

> <s_m_Source_Path>
/home/csk/Desktop/cluster/DUD-E-result/mcr

> <s_m_Source_File>
dock_pv.maegz

> <i_m_Source_File_Index>
137

> <chembl_id>
CHEMBL351465

> <chembl_pref_name>
None

> <i_lp_mmshare_version>
53161

> <i_f3d_flags>
0

> <r_lp_tautomer_probability>
1

> <s_lp_Force_Field>
OPLS_2005

> <r_lp_Energy>
18.507081

> <b_lp_Chiralities_Consistent>
1

> <s_lp_Variant>
CHEMBL1994_lig13-1

> <s_i_glide_gridfile>
glide-grid_2aa2

> <i_i_glide_lignum>
13

> <i_i_glide_rotatable_bonds>
2

> <r_i_docking_score>
-8.07832911468144

> <r_i_glide_ligand_efficiency>
-0.425175216562181

> <r_i_glide_ligand_efficiency_sa>
-1.13453824775671

> <r_i_glide_ligand_efficiency_ln>
-2.0480299371721

> <r_i_glide_gscore>
-8.07832911468144

> <r_i_glide_lipo>
-3.67535801420328

> <r_i_glide_hbond>
-0.0978347153938252

> <r_i_glide_metal>
0

> <r_i_glide_rewards>
-2.53177709282821

> <r_i_glide_evdw>
-34.4309272766113

> <r_i_glide_ecoul>
-0.23480761051178

> <r_i_glide_erotb>
0

> <r_i_glide_esite>
-0.0165917868487795

> <r_i_glide_emodel>
-47.2775518139631

> <r_i_glide_energy>
-34.6657348871231

> <r_i_glide_einternal>
2.65482401847839

> <i_i_glide_confnum>
1

> <i_i_glide_posenum>
300

> <r_i_glide_eff_state_penalty>
0

> <s_user_duplicate_titles>
CHEMBL1994_lig13

> <s_m_subgroup_title>
dock_pv

> <s_m_subgroupid>
dock_pv

> <b_m_subgroup_collapsed>
1

$$$$
CHEMBL1994_lig1040
                    3D
 Schrodinger Suite 2021-1.
 40 42  0  0  1  0            999 V2000
   17.1921   72.0646   20.7131 C   0  0  0  0  0  0
   19.7178   72.9850   20.0107 C   0  0  0  0  0  0
   17.9471   71.3403   19.8170 C   0  0  0  0  0  0
   19.2240   71.7838   19.4454 C   0  0  0  0  0  0
   19.9046   70.9428   18.4121 C   0  0  0  0  0  0
   19.2118   69.9339   17.8127 C   0  0  0  0  0  0
   17.8274   69.6117   18.0868 C   0  0  0  0  0  0
   17.3495   70.2620   19.1618 N   0  0  0  0  0  0
   18.8819   73.8047   20.7977 C   0  0  0  0  0  0
   17.6014   73.3260   21.0844 C   0  0  0  0  0  0
   16.6284   74.0861   21.6696 O   0  0  0  0  0  0
   16.7665   75.4627   21.4135 C   0  0  0  0  0  0
   18.1694   75.9517   21.8542 C   0  0  2  0  0  0
   19.2310   75.0450   21.3513 N   0  0  0  0  0  0
   21.2881   71.3400   17.9448 C   0  0  0  0  0  0
   22.1971   71.0853   18.8682 F   0  0  0  0  0  0
   21.6216   70.6641   16.8464 F   0  0  0  0  0  0
   21.2768   72.6371   17.6784 F   0  0  0  0  0  0
   17.1178   68.8979   17.3858 O   0  0  0  0  0  0
   20.4396   75.7966   21.0211 C   0  0  0  0  0  0
   21.6317   75.5210   21.9053 C   0  0  0  0  0  0
   22.6398   76.2456   21.4598 F   0  0  0  0  0  0
   21.4349   75.8340   23.1698 F   0  0  0  0  0  0
   21.9940   74.2534   21.8312 F   0  0  0  0  0  0
   18.2411   76.2937   23.3654 C   0  0  0  0  0  0
   17.8658   75.1669   24.3391 C   0  0  0  0  0  0
   16.2411   71.7279   21.0593 H   0  0  0  0  0  0
   20.7202   73.3176   19.7961 H   0  0  0  0  0  0
   19.6700   69.3438   17.0321 H   0  0  0  0  0  0
   16.3809   70.0545   19.3571 H   0  0  0  0  0  0
   15.9599   76.0047   21.9054 H   0  0  0  0  0  0
   16.6391   75.6377   20.3433 H   0  0  0  0  0  0
   18.2936   76.9067   21.3475 H   0  0  0  0  0  0
   20.7683   75.4708   20.0645 H   0  0  0  0  0  0
   20.2749   76.8671   20.9219 H   0  0  0  0  0  0
   17.5876   77.1436   23.5677 H   0  0  0  0  0  0
   19.2311   76.6576   23.6207 H   0  0  0  0  0  0
   18.2135   75.3929   25.3487 H   0  0  0  0  0  0
   18.3004   74.2104   24.0477 H   0  0  0  0  0  0
   16.7822   75.0652   24.3892 H   0  0  0  0  0  0
  1  3  1  0  0  0
  1 10  2  0  0  0
  1 27  1  0  0  0
  2  9  2  0  0  0
  2  4  1  0  0  0
  2 28  1  0  0  0
  3  8  1  0  0  0
  3  4  2  0  0  0
  4  5  1  0  0  0
  5 15  1  0  0  0
  5  6  2  0  0  0
  6  7  1  0  0  0
  6 29  1  0  0  0
  7  8  1  0  0  0
  7 19  2  0  0  0
  8 30  1  0  0  0
  9 14  1  0  0  0
  9 10  1  0  0  0
 10 11  1  0  0  0
 11 12  1  0  0  0
 12 13  1  0  0  0
 12 31  1  0  0  0
 12 32  1  0  0  0
 13 14  1  0  0  0
 13 25  1  0  0  0
 13 33  1  0  0  0
 14 20  1  0  0  0
 15 16  1  0  0  0
 15 17  1  0  0  0
 15 18  1  0  0  0
 20 21  1  0  0  0
 20 34  1  0  0  0
 20 35  1  0  0  0
 21 22  1  0  0  0
 21 23  1  0  0  0
 21 24  1  0  0  0
 25 26  1  0  0  0
 25 36  1  0  0  0
 25 37  1  0  0  0
 26 38  1  0  0  0
 26 39  1  0  0  0
 26 40  1  0  0  0
M  END
> <s_m_entry_id>
9698

> <s_m_entry_name>
dock_pv.138

> <s_m_Source_Path>
/home/csk/Desktop/cluster/DUD-E-result/mcr

> <s_m_Source_File>
dock_pv.maegz

> <i_m_Source_File_Index>
138

> <chembl_id>
CHEMBL388997

> <chembl_pref_name>
None

> <i_lp_mmshare_version>
53161

> <i_f3d_flags>
0

> <r_lp_tautomer_probability>
1

> <s_lp_Force_Field>
OPLS_2005

> <r_lp_Energy>
29.826376

> <b_lp_Chiralities_Consistent>
1

> <s_lp_Variant>
CHEMBL1994_lig1040-1

> <s_i_glide_gridfile>
glide-grid_2aa2

> <i_i_glide_lignum>
1500

> <i_i_glide_rotatable_bonds>
4

> <r_i_docking_score>
-8.07733492007879

> <r_i_glide_ligand_efficiency>
-0.310666727695338

> <r_i_glide_ligand_efficiency_sa>
-0.920348958382894

> <r_i_glide_ligand_efficiency_ln>
-1.89693560208288

> <r_i_glide_gscore>
-8.07733492007879

> <r_i_glide_lipo>
-4.00428867967441

> <r_i_glide_hbond>
-0.247126700447278

> <r_i_glide_metal>
0

> <r_i_glide_rewards>
-2.71472545846985

> <r_i_glide_evdw>
-23.4374389648438

> <r_i_glide_ecoul>
-0.489746749401093

> <r_i_glide_erotb>
0.134139879165096

> <r_i_glide_esite>
0

> <r_i_glide_emodel>
-24.3975387985955

> <r_i_glide_energy>
-23.9271857142448

> <r_i_glide_einternal>
8.96533393859863

> <i_i_glide_confnum>
3

> <i_i_glide_posenum>
207

> <r_i_glide_eff_state_penalty>
0

> <s_user_duplicate_titles>
CHEMBL1994_lig1040

> <s_m_subgroup_title>
dock_pv

> <s_m_subgroupid>
dock_pv

> <b_m_subgroup_collapsed>
1

$$$$
CHEMBL1994_lig789
                    3D
 Schrodinger Suite 2021-1.
 33 34  0  0  1  0            999 V2000
   17.3114   75.1864   20.1273 C   0  0  0  0  0  0
   17.7676   74.6127   21.4814 C   0  0  0  0  0  0
   17.1143   75.4069   22.6460 C   0  0  0  0  0  0
   19.2474   74.5834   21.5354 N   0  0  0  0  0  0
   19.8493   75.4620   22.3565 N   0  0  0  0  0  0
   21.1250   75.2847   22.1976 C   0  0  0  0  0  0
   21.3935   74.2968   21.2703 C   0  0  0  0  0  0
   20.1708   73.8168   20.8168 C   0  0  0  0  0  0
   19.9597   72.7337   19.7881 C   0  0  0  0  0  0
   21.0677   72.2733   19.0578 C   0  0  0  0  0  0
   20.9214   71.2584   18.1156 C   0  0  0  0  0  0
   19.7345   70.6647   17.8699 N   0  0  0  0  0  0
   18.6579   71.0886   18.5870 C   0  0  0  0  0  0
   17.4108   70.4844   18.4781 N   0  0  0  0  0  0
   17.0542   69.4396   17.7282 C   0  0  0  0  0  0
   17.7149   68.8597   16.8702 O   0  0  0  0  0  0
   15.8410   69.0620   18.0700 N   0  0  0  0  0  0
   18.7345   72.1119   19.5323 C   0  0  0  0  0  0
   16.2410   75.0621   20.0001 H   0  0  0  0  0  0
   17.8038   74.7158   19.2757 H   0  0  0  0  0  0
   17.5114   76.2553   20.0701 H   0  0  0  0  0  0
   17.4199   73.5916   21.6156 H   0  0  0  0  0  0
   16.0257   75.3589   22.5988 H   0  0  0  0  0  0
   17.4286   75.0089   23.6127 H   0  0  0  0  0  0
   17.3936   76.4601   22.6305 H   0  0  0  0  0  0
   21.8410   75.8621   22.7543 H   0  0  0  0  0  0
   22.3719   73.9656   20.9725 H   0  0  0  0  0  0
   22.0527   72.6620   19.2248 H   0  0  0  0  0  0
   21.7694   70.8916   17.5567 H   0  0  0  0  0  0
   16.7045   70.8525   19.0943 H   0  0  0  0  0  0
   15.4680   68.2257   17.6506 H   0  0  0  0  0  0
   15.3115   69.5586   18.7762 H   0  0  0  0  0  0
   17.8436   72.3783   20.0669 H   0  0  0  0  0  0
  1  2  1  0  0  0
  1 19  1  0  0  0
  1 20  1  0  0  0
  1 21  1  0  0  0
  2  3  1  0  0  0
  2  4  1  0  0  0
  2 22  1  0  0  0
  3 23  1  0  0  0
  3 24  1  0  0  0
  3 25  1  0  0  0
  4  5  1  0  0  0
  4  8  1  0  0  0
  5  6  2  0  0  0
  6  7  1  0  0  0
  6 26  1  0  0  0
  7  8  2  0  0  0
  7 27  1  0  0  0
  8  9  1  0  0  0
  9 10  2  0  0  0
  9 18  1  0  0  0
 10 11  1  0  0  0
 10 28  1  0  0  0
 11 12  2  0  0  0
 11 29  1  0  0  0
 12 13  1  0  0  0
 13 14  1  0  0  0
 13 18  2  0  0  0
 14 15  1  0  0  0
 14 30  1  0  0  0
 15 16  2  0  0  0
 15 17  1  0  0  0
 17 31  1  0  0  0
 17 32  1  0  0  0
 18 33  1  0  0  0
M  END
> <s_m_entry_id>
9699

> <s_m_entry_name>
dock_pv.139

> <s_m_Source_Path>
/home/csk/Desktop/cluster/DUD-E-result/mcr

> <s_m_Source_File>
dock_pv.maegz

> <i_m_Source_File_Index>
139

> <chembl_id>
CHEMBL3643655

> <chembl_pref_name>
None

> <i_lp_mmshare_version>
53161

> <i_f3d_flags>
0

> <r_lp_tautomer_probability>
1

> <s_lp_Force_Field>
OPLS_2005

> <r_lp_Energy>
11.671335

> <b_lp_Chiralities_Consistent>
1

> <s_lp_Variant>
CHEMBL1994_lig789-1

> <s_i_glide_gridfile>
glide-grid_2aa2

> <i_i_glide_lignum>
1205

> <i_i_glide_rotatable_bonds>
4

> <r_i_docking_score>
-8.07654440985699

> <r_i_glide_ligand_efficiency>
-0.448696911658722

> <r_i_glide_ligand_efficiency_sa>
-1.17591856870476

> <r_i_glide_ligand_efficiency_ln>
-2.07603409454746

> <r_i_glide_gscore>
-8.07654440985699

> <r_i_glide_lipo>
-2.998911447535

> <r_i_glide_hbond>
-0.32

> <r_i_glide_metal>
0

> <r_i_glide_rewards>
-2.89443589166781

> <r_i_glide_evdw>
-37.2182579040527

> <r_i_glide_ecoul>
-3.8724091053009

> <r_i_glide_erotb>
0.578577190343599

> <r_i_glide_esite>
0

> <r_i_glide_emodel>
-57.4797420577436

> <r_i_glide_energy>
-41.0906670093536

> <r_i_glide_einternal>
1.91406047344208

> <i_i_glide_confnum>
4

> <i_i_glide_posenum>
68

> <r_i_glide_eff_state_penalty>
0

> <s_user_duplicate_titles>
CHEMBL1994_lig789

> <s_m_subgroup_title>
dock_pv

> <s_m_subgroupid>
dock_pv

> <b_m_subgroup_collapsed>
1

$$$$
CHEMBL1994_lig261
                    3D
 Schrodinger Suite 2021-1.
 43 45  0  0  1  0            999 V2000
   18.9656   72.8715   19.3326 C   0  0  0  0  0  0
   18.2390   73.5028   20.3032 C   0  0  0  0  0  0
   19.3655   71.3798   19.4233 C   0  0  1  0  0  0
   18.9454   70.8057   20.7509 C   0  0  0  0  0  0
   17.9141   72.8081   21.4265 N   0  0  0  0  0  0
   18.2691   71.5270   21.6539 C   0  0  0  0  0  0
   18.8680   70.4790   18.2788 C   0  0  0  0  0  0
   19.3625   73.4628   18.0724 C   0  0  0  0  0  0
   17.8005   75.5050   21.7331 N   0  0  0  0  0  0
   17.7360   74.9425   20.3932 C   0  0  0  0  0  0
   19.7498   69.8392   17.3906 C   0  0  0  0  0  0
   19.0519   69.4042   20.8691 C   0  0  0  0  0  0
   16.6854   75.5794   22.4723 N   0  0  0  0  0  0
   19.0460   68.2609   20.8687 N   0  0  0  0  0  0
   19.2497   68.9361   16.4602 C   0  0  0  0  0  0
   17.4926   70.2063   18.1978 C   0  0  0  0  0  0
   18.4668   76.2681   23.6575 C   0  0  0  0  0  0
   18.9250   75.8743   22.4188 C   0  0  0  0  0  0
   20.2406   72.9407   17.3883 O   0  0  0  0  0  0
   17.0847   76.0824   23.6183 C   0  0  0  0  0  0
   17.8939   68.6625   16.3992 C   0  0  0  0  0  0
   21.4617   70.0867   17.4275 Cl  0  0  0  0  0  0
   17.0096   69.2846   17.2740 C   0  0  0  0  0  0
   18.6414   74.5335   17.7436 O   0  0  0  0  0  0
   17.4398   67.8647   15.4201 F   0  0  0  0  0  0
   17.6962   71.0247   22.9047 C   0  0  0  0  0  0
   18.6303   75.1341   16.4722 C   0  0  0  0  0  0
   20.4569   71.3457   19.4260 H   0  0  0  0  0  0
   17.3757   73.2834   22.1431 H   0  0  0  0  0  0
   18.3271   75.5968   19.7796 H   0  0  0  0  0  0
   16.7090   75.0022   20.0283 H   0  0  0  0  0  0
   19.9131   68.4353   15.7785 H   0  0  0  0  0  0
   16.7981   70.6725   18.8840 H   0  0  0  0  0  0
   19.0453   76.6615   24.4746 H   0  0  0  0  0  0
   19.9051   75.8331   21.9670 H   0  0  0  0  0  0
   16.3974   76.3001   24.4201 H   0  0  0  0  0  0
   15.9518   69.0726   17.2290 H   0  0  0  0  0  0
   18.1816   71.4659   23.7804 H   0  0  0  0  0  0
   16.6419   71.2749   22.9265 H   0  0  0  0  0  0
   17.8075   69.9444   22.8699 H   0  0  0  0  0  0
   18.3770   76.1934   16.5285 H   0  0  0  0  0  0
   19.5901   75.0621   15.9648 H   0  0  0  0  0  0
   17.8370   74.6701   15.8956 H   0  0  0  0  0  0
  1  2  2  0  0  0
  1  3  1  0  0  0
  1  8  1  0  0  0
  2  5  1  0  0  0
  2 10  1  0  0  0
  3  4  1  0  0  0
  3  7  1  0  0  0
  3 28  1  0  0  0
  4  6  2  0  0  0
  4 12  1  0  0  0
  5  6  1  0  0  0
  5 29  1  0  0  0
  6 26  1  0  0  0
  7 11  2  0  0  0
  7 16  1  0  0  0
  8 19  2  0  0  0
  8 24  1  0  0  0
  9 10  1  0  0  0
  9 13  1  0  0  0
  9 18  1  0  0  0
 10 30  1  0  0  0
 10 31  1  0  0  0
 11 15  1  0  0  0
 11 22  1  0  0  0
 12 14  3  0  0  0
 13 20  2  0  0  0
 15 21  2  0  0  0
 15 32  1  0  0  0
 16 23  2  0  0  0
 16 33  1  0  0  0
 17 18  2  0  0  0
 17 20  1  0  0  0
 17 34  1  0  0  0
 18 35  1  0  0  0
 20 36  1  0  0  0
 21 23  1  0  0  0
 21 25  1  0  0  0
 23 37  1  0  0  0
 24 27  1  0  0  0
 26 38  1  0  0  0
 26 39  1  0  0  0
 26 40  1  0  0  0
 27 41  1  0  0  0
 27 42  1  0  0  0
 27 43  1  0  0  0
M  END
> <s_m_entry_id>
9700

> <s_m_entry_name>
dock_pv.140

> <s_m_Source_Path>
/home/csk/Desktop/cluster/DUD-E-result/mcr

> <s_m_Source_File>
dock_pv.maegz

> <i_m_Source_File_Index>
140

> <chembl_id>
CHEMBL1215620

> <chembl_pref_name>
None

> <i_lp_mmshare_version>
53161

> <i_f3d_flags>
0

> <r_lp_tautomer_probability>
1

> <s_lp_Force_Field>
OPLS_2005

> <r_lp_Energy>
16.467251

> <b_lp_Chiralities_Consistent>
1

> <s_lp_Variant>
CHEMBL1994_lig261-2

> <s_i_glide_gridfile>
glide-grid_2aa2

> <i_i_glide_lignum>
443

> <i_i_glide_rotatable_bonds>
5

> <r_i_docking_score>
-8.05287192923347

> <r_i_glide_ligand_efficiency>
-0.298254515897536

> <r_i_glide_ligand_efficiency_sa>
-0.894763546709609

> <r_i_glide_ligand_efficiency_ln>
-1.87457582315589

> <r_i_glide_gscore>
-8.05287192923347

> <r_i_glide_lipo>
-4.30648319066886

> <r_i_glide_hbond>
-0.128555274726127

> <r_i_glide_metal>
0

> <r_i_glide_rewards>
-2.38349382075752

> <r_i_glide_evdw>
-23.1179027557373

> <r_i_glide_ecoul>
-3.43483209609985

> <r_i_glide_erotb>
0.520445010949035

> <r_i_glide_esite>
-0.083664701828148

> <r_i_glide_emodel>
-41.6854324125921

> <r_i_glide_energy>
-26.5527348518372

> <r_i_glide_einternal>
5.43358707427979

> <i_i_glide_confnum>
3

> <i_i_glide_posenum>
77

> <r_i_glide_eff_state_penalty>
0

> <s_user_duplicate_titles>
CHEMBL1994_lig261,687486

> <s_m_subgroup_title>
dock_pv

> <s_m_subgroupid>
dock_pv

> <b_m_subgroup_collapsed>
1

$$$$
CHEMBL1994_lig538
                    3D
 Schrodinger Suite 2021-1.
 42 44  0  0  1  0            999 V2000
   19.3351   74.5652   20.9398 C   0  0  0  0  0  0
   20.3757   73.9270   20.3127 C   0  0  0  0  0  0
   19.9638   73.4968   19.0944 O   0  0  0  0  0  0
   18.6630   73.9543   18.8923 N   0  0  0  0  0  0
   18.3366   74.6151   19.9835 C   0  0  0  0  0  0
   21.8112   73.6934   20.6551 C   0  0  0  0  0  0
   17.0140   75.3069   20.0700 C   0  0  0  0  0  0
   19.2851   75.2508   22.5978 S   0  0  0  0  0  0
   17.4280   71.3517   20.2339 C   0  0  0  0  0  0
   18.4546   70.4739   19.8988 C   0  0  0  0  0  0
   19.4472   70.2095   20.8374 C   0  0  0  0  0  0
   19.4410   70.8756   22.0531 C   0  0  0  0  0  0
   18.4821   71.8393   22.3428 C   0  0  0  0  0  0
   17.4238   72.0178   21.4542 C   0  0  0  0  0  0
   18.6443   72.6863   23.6024 C   0  0  0  0  0  0
   18.2410   74.1030   23.4288 N   0  0  2  0  0  0
   20.6410   75.1577   23.1345 O   0  0  0  0  0  0
   18.5717   76.5261   22.5169 O   0  0  0  0  0  0
   18.4941   69.8459   18.5621 C   0  0  0  0  0  0
   19.6815   69.8620   17.8254 C   0  0  0  0  0  0
   19.7346   69.2711   16.5715 C   0  0  0  0  0  0
   18.5983   68.6620   16.0499 C   0  0  0  0  0  0
   17.4017   68.6620   16.7631 C   0  0  0  0  0  0
   17.3497   69.2547   18.0184 C   0  0  0  0  0  0
   21.9502   73.4620   21.7026 H   0  0  0  0  0  0
   22.2410   72.8829   20.0699 H   0  0  0  0  0  0
   22.3713   74.6069   20.4701 H   0  0  0  0  0  0
   16.7166   75.5573   21.0866 H   0  0  0  0  0  0
   17.0410   76.2226   19.4840 H   0  0  0  0  0  0
   16.2410   74.6746   19.6701 H   0  0  0  0  0  0
   16.6410   71.5351   19.5230 H   0  0  0  0  0  0
   20.2375   69.5052   20.6207 H   0  0  0  0  0  0
   20.2409   70.6620   22.7428 H   0  0  0  0  0  0
   16.6363   72.7240   21.6699 H   0  0  0  0  0  0
   19.6828   72.6743   23.9278 H   0  0  0  0  0  0
   18.0237   72.2459   24.3835 H   0  0  0  0  0  0
   17.2549   74.1936   23.1647 H   0  0  0  0  0  0
   20.5668   70.3359   18.2254 H   0  0  0  0  0  0
   20.6608   69.2837   16.0185 H   0  0  0  0  0  0
   18.6401   68.2254   15.0658 H   0  0  0  0  0  0
   16.5042   68.2364   16.3447 H   0  0  0  0  0  0
   16.4199   69.2484   18.5699 H   0  0  0  0  0  0
  1  2  2  0  0  0
  1  5  1  0  0  0
  1  8  1  0  0  0
  2  6  1  0  0  0
  2  3  1  0  0  0
  3  4  1  0  0  0
  4  5  2  0  0  0
  5  7  1  0  0  0
  6 25  1  0  0  0
  6 26  1  0  0  0
  6 27  1  0  0  0
  7 28  1  0  0  0
  7 29  1  0  0  0
  7 30  1  0  0  0
  8 16  1  0  0  0
  8 17  2  0  0  0
  8 18  2  0  0  0
  9 14  1  0  0  0
  9 10  2  0  0  0
  9 31  1  0  0  0
 10 11  1  0  0  0
 10 19  1  0  0  0
 11 12  2  0  0  0
 11 32  1  0  0  0
 12 13  1  0  0  0
 12 33  1  0  0  0
 13 14  2  0  0  0
 13 15  1  0  0  0
 14 34  1  0  0  0
 15 16  1  0  0  0
 15 35  1  0  0  0
 15 36  1  0  0  0
 16 37  1  0  0  0
 19 20  2  0  0  0
 19 24  1  0  0  0
 20 21  1  0  0  0
 20 38  1  0  0  0
 21 22  2  0  0  0
 21 39  1  0  0  0
 22 23  1  0  0  0
 22 40  1  0  0  0
 23 24  2  0  0  0
 23 41  1  0  0  0
 24 42  1  0  0  0
M  END
> <s_m_entry_id>
9701

> <s_m_entry_name>
dock_pv.141

> <s_m_Source_Path>
/home/csk/Desktop/cluster/DUD-E-result/mcr

> <s_m_Source_File>
dock_pv.maegz

> <i_m_Source_File_Index>
141

> <chembl_id>
CHEMBL1645393

> <chembl_pref_name>
None

> <i_lp_mmshare_version>
53161

> <i_f3d_flags>
0

> <r_lp_tautomer_probability>
1

> <s_lp_Force_Field>
OPLS_2005

> <r_lp_Energy>
15.574869

> <b_lp_Chiralities_Consistent>
1

> <s_lp_Variant>
CHEMBL1994_lig538-1

> <s_i_glide_gridfile>
glide-grid_2aa2

> <i_i_glide_lignum>
849

> <i_i_glide_rotatable_bonds>
5

> <r_i_docking_score>
-8.05247394454131

> <r_i_glide_ligand_efficiency>
-0.335519747689221

> <r_i_glide_ligand_efficiency_sa>
-0.967806422843612

> <r_i_glide_ligand_efficiency_ln>
-1.92732651888085

> <r_i_glide_gscore>
-8.05247394454131

> <r_i_glide_lipo>
-4.25064722628316

> <r_i_glide_hbond>
-0.181937271573572

> <r_i_glide_metal>
0

> <r_i_glide_rewards>
-2.20287425343665

> <r_i_glide_evdw>
-34.6264419555664

> <r_i_glide_ecoul>
-3.13588571548462

> <r_i_glide_erotb>
0.808644606245558

> <r_i_glide_esite>
-0.0239548443924761

> <r_i_glide_emodel>
-48.3796183711974

> <r_i_glide_energy>
-37.762327671051

> <r_i_glide_einternal>
3.17998957633972

> <i_i_glide_confnum>
91

> <i_i_glide_posenum>
103

> <r_i_glide_eff_state_penalty>
0

> <s_user_duplicate_titles>
CHEMBL1994_lig538

> <s_m_subgroup_title>
dock_pv

> <s_m_subgroupid>
dock_pv

> <b_m_subgroup_collapsed>
1

$$$$
CHEMBL1994_lig34
                    3D
 Schrodinger Suite 2021-1.
 35 37  0  0  1  0            999 V2000
   19.3148   73.9604   21.7191 C   0  0  0  0  0  0
   19.6167   73.0869   20.5531 C   0  0  0  0  0  0
   20.7023   73.4752   19.7796 C   0  0  0  0  0  0
   18.0706   73.6660   22.5214 C   0  0  0  0  0  0
   21.4410   74.6042   20.0701 O   0  0  0  0  0  0
   21.2703   75.3440   21.2089 C   0  0  0  0  0  0
   20.1264   74.9958   22.0315 C   0  0  0  0  0  0
   20.3381   71.6555   18.2542 C   0  0  0  0  0  0
   19.2587   71.1877   19.0312 C   0  0  0  0  0  0
   18.9189   71.9250   20.1830 C   0  0  0  0  0  0
   21.0640   72.7694   18.6463 C   0  0  0  0  0  0
   20.8066   70.9769   17.1194 N   0  0  0  0  0  0
   22.0642   76.2614   21.3809 O   0  0  0  0  0  0
   18.4958   69.9156   18.6289 C   0  0  2  0  0  0
   18.2410   72.5003   23.1523 F   0  0  0  0  0  0
   17.8413   74.6371   23.4160 F   0  0  0  0  0  0
   17.0414   73.6132   21.6699 F   0  0  0  0  0  0
   20.4601   69.5754   16.9576 C   0  0  0  0  0  0
   18.9691   69.3714   17.2576 C   0  0  0  0  0  0
   16.9633   70.1375   18.6268 C   0  0  0  0  0  0
   16.1418   68.8881   18.2759 C   0  0  0  0  0  0
   19.9078   75.6205   22.8843 H   0  0  0  0  0  0
   18.1022   71.5789   20.7970 H   0  0  0  0  0  0
   21.9118   73.0980   18.0697 H   0  0  0  0  0  0
   21.7205   71.2289   16.7686 H   0  0  0  0  0  0
   18.7422   69.1619   19.3794 H   0  0  0  0  0  0
   20.7311   69.2392   15.9591 H   0  0  0  0  0  0
   21.0975   69.0621   17.6697 H   0  0  0  0  0  0
   18.4020   69.8625   16.4693 H   0  0  0  0  0  0
   18.7247   68.3118   17.1709 H   0  0  0  0  0  0
   16.6411   70.4892   19.6044 H   0  0  0  0  0  0
   16.7047   70.9398   17.9339 H   0  0  0  0  0  0
   15.0835   69.0620   18.4694 H   0  0  0  0  0  0
   16.2430   68.6184   17.2247 H   0  0  0  0  0  0
   16.4505   68.0283   18.8691 H   0  0  0  0  0  0
  1  2  1  0  0  0
  1  4  1  0  0  0
  1  7  2  0  0  0
  2  3  2  0  0  0
  2 10  1  0  0  0
  3 11  1  0  0  0
  3  5  1  0  0  0
  4 15  1  0  0  0
  4 16  1  0  0  0
  4 17  1  0  0  0
  5  6  1  0  0  0
  6  7  1  0  0  0
  6 13  2  0  0  0
  7 22  1  0  0  0
  8  9  1  0  0  0
  8 12  1  0  0  0
  8 11  2  0  0  0
  9 10  2  0  0  0
  9 14  1  0  0  0
 10 23  1  0  0  0
 11 24  1  0  0  0
 12 18  1  0  0  0
 12 25  1  0  0  0
 14 19  1  0  0  0
 14 20  1  0  0  0
 14 26  1  0  0  0
 18 19  1  0  0  0
 18 27  1  0  0  0
 18 28  1  0  0  0
 19 29  1  0  0  0
 19 30  1  0  0  0
 20 21  1  0  0  0
 20 31  1  0  0  0
 20 32  1  0  0  0
 21 33  1  0  0  0
 21 34  1  0  0  0
 21 35  1  0  0  0
M  END
> <s_m_entry_id>
9702

> <s_m_entry_name>
dock_pv.142

> <s_m_Source_Path>
/home/csk/Desktop/cluster/DUD-E-result/mcr

> <s_m_Source_File>
dock_pv.maegz

> <i_m_Source_File_Index>
142

> <chembl_id>
CHEMBL6843

> <chembl_pref_name>
None

> <i_lp_mmshare_version>
53161

> <i_f3d_flags>
0

> <r_lp_tautomer_probability>
1

> <s_lp_Force_Field>
OPLS_2005

> <r_lp_Energy>
18.48839

> <b_lp_Chiralities_Consistent>
1

> <s_lp_Variant>
CHEMBL1994_lig34-1

> <s_i_glide_gridfile>
glide-grid_2aa2

> <i_i_glide_lignum>
36

> <i_i_glide_rotatable_bonds>
2

> <r_i_docking_score>
-8.05024984441901

> <r_i_glide_ligand_efficiency>
-0.383345230686619

> <r_i_glide_ligand_efficiency_sa>
-1.0576204237684

> <r_i_glide_ligand_efficiency_ln>
-1.99040800697111

> <r_i_glide_gscore>
-8.05024984441901

> <r_i_glide_lipo>
-3.97350474427064

> <r_i_glide_hbond>
0

> <r_i_glide_metal>
0

> <r_i_glide_rewards>
-2.28223384772727

> <r_i_glide_evdw>
-31.2793102264404

> <r_i_glide_ecoul>
-1.04312586784363

> <r_i_glide_erotb>
0

> <r_i_glide_esite>
-0.0740768609225255

> <r_i_glide_emodel>
-45.6727094952519

> <r_i_glide_energy>
-32.3224360942841

> <r_i_glide_einternal>
0.177955746650696

> <i_i_glide_confnum>
1

> <i_i_glide_posenum>
285

> <r_i_glide_eff_state_penalty>
0

> <s_user_duplicate_titles>
CHEMBL1994_lig34

> <s_m_subgroup_title>
dock_pv

> <s_m_subgroupid>
dock_pv

> <b_m_subgroup_collapsed>
1

$$$$
CHEMBL1994_lig381
                    3D
 Schrodinger Suite 2021-1.
 38 40  0  0  1  0            999 V2000
   17.0001   73.5637   21.0175 C   0  0  0  0  0  0
   17.6213   74.6686   21.5623 C   0  0  0  0  0  0
   18.9821   74.9141   21.3876 C   0  0  0  0  0  0
   17.7042   72.6533   20.2604 C   0  0  0  0  0  0
   19.0791   72.8440   20.0870 C   0  0  0  0  0  0
   19.7043   73.9688   20.6794 C   0  0  0  0  0  0
   21.0512   73.8933   20.4156 N   0  0  0  0  0  0
   21.2563   72.8246   19.5725 C   0  0  0  0  0  0
   20.0789   72.1343   19.3755 C   0  0  0  0  0  0
   16.8070   75.5078   22.2921 N   0  0  0  0  0  0
   17.3771   76.3867   23.6769 S   0  0  0  0  0  0
   18.6410   77.0404   23.3886 O   0  0  0  0  0  0
   16.2410   77.1921   24.0700 O   0  0  0  0  0  0
   17.6818   75.0360   24.9245 C   0  0  0  0  0  0
   22.0383   74.8650   20.8700 C   0  0  0  0  0  0
   19.8084   70.9260   18.5909 C   0  0  0  0  0  0
   20.4002   70.7595   17.3442 C   0  0  0  0  0  0
   20.0586   69.6532   16.5863 C   0  0  0  0  0  0
   19.1111   68.7561   17.0703 C   0  0  0  0  0  0
   18.4743   68.9461   18.2888 C   0  0  0  0  0  0
   18.8620   70.0156   19.0691 C   0  0  0  0  0  0
   19.0410   67.4620   16.4700 C   0  0  0  0  0  0
   19.0410   66.4038   16.0270 N   0  0  0  0  0  0
   15.9431   73.4052   21.1844 H   0  0  0  0  0  0
   19.4908   75.7816   21.7611 H   0  0  0  0  0  0
   17.1749   71.8300   19.8087 H   0  0  0  0  0  0
   22.2427   72.6101   19.1988 H   0  0  0  0  0  0
   15.8182   75.3078   22.2915 H   0  0  0  0  0  0
   18.2410   75.4619   25.7534 H   0  0  0  0  0  0
   16.7235   74.6620   25.2700 H   0  0  0  0  0  0
   18.2563   74.2404   24.4529 H   0  0  0  0  0  0
   21.8147   75.1624   21.8956 H   0  0  0  0  0  0
   23.0357   74.4383   20.8700 H   0  0  0  0  0  0
   22.0073   75.7453   20.2282 H   0  0  0  0  0  0
   21.1284   71.4670   16.9755 H   0  0  0  0  0  0
   20.5946   69.4620   15.6700 H   0  0  0  0  0  0
   17.7833   68.2155   18.6899 H   0  0  0  0  0  0
   18.4365   70.1136   20.0562 H   0  0  0  0  0  0
  1  2  2  0  0  0
  1  4  1  0  0  0
  1 24  1  0  0  0
  2  3  1  0  0  0
  2 10  1  0  0  0
  3  6  2  0  0  0
  3 25  1  0  0  0
  4  5  2  0  0  0
  4 26  1  0  0  0
  5  9  1  0  0  0
  5  6  1  0  0  0
  6  7  1  0  0  0
  7 15  1  0  0  0
  7  8  1  0  0  0
  8  9  2  0  0  0
  8 27  1  0  0  0
  9 16  1  0  0  0
 10 11  1  0  0  0
 10 28  1  0  0  0
 11 12  2  0  0  0
 11 13  2  0  0  0
 11 14  1  0  0  0
 14 29  1  0  0  0
 14 30  1  0  0  0
 14 31  1  0  0  0
 15 32  1  0  0  0
 15 33  1  0  0  0
 15 34  1  0  0  0
 16 17  2  0  0  0
 16 21  1  0  0  0
 17 18  1  0  0  0
 17 35  1  0  0  0
 18 19  2  0  0  0
 18 36  1  0  0  0
 19 20  1  0  0  0
 19 22  1  0  0  0
 20 21  2  0  0  0
 20 37  1  0  0  0
 21 38  1  0  0  0
 22 23  3  0  0  0
M  END
> <s_m_entry_id>
9703

> <s_m_entry_name>
dock_pv.143

> <s_m_Source_Path>
/home/csk/Desktop/cluster/DUD-E-result/mcr

> <s_m_Source_File>
dock_pv.maegz

> <i_m_Source_File_Index>
143

> <chembl_id>
CHEMBL1672543

> <chembl_pref_name>
None

> <i_lp_mmshare_version>
53161

> <i_f3d_flags>
0

> <r_lp_tautomer_probability>
1

> <s_lp_Force_Field>
OPLS_2005

> <r_lp_Energy>
6.726577

> <b_lp_Chiralities_Consistent>
1

> <s_lp_Variant>
CHEMBL1994_lig381-1

> <s_i_glide_gridfile>
glide-grid_2aa2

> <i_i_glide_lignum>
627

> <i_i_glide_rotatable_bonds>
3

> <r_i_docking_score>
-8.0493811490383

> <r_i_glide_ligand_efficiency>
-0.349973093436448

> <r_i_glide_ligand_efficiency_sa>
-0.995276923220193

> <r_i_glide_ligand_efficiency_ln>
-1.94641334959038

> <r_i_glide_gscore>
-8.0493811490383

> <r_i_glide_lipo>
-3.87434249195065

> <r_i_glide_hbond>
-0.16

> <r_i_glide_metal>
0

> <r_i_glide_rewards>
-2.56047244718761

> <r_i_glide_evdw>
-17.5910663604736

> <r_i_glide_ecoul>
-5.55789470672607

> <r_i_glide_erotb>
0.354008964610489

> <r_i_glide_esite>
-0.0953376504779469

> <r_i_glide_emodel>
-25.7086736590825

> <r_i_glide_energy>
-23.1489610671997

> <r_i_glide_einternal>
2.04004096984863

> <i_i_glide_confnum>
4

> <i_i_glide_posenum>
317

> <r_i_glide_eff_state_penalty>
0

> <s_user_duplicate_titles>
CHEMBL1994_lig381

> <s_m_subgroup_title>
dock_pv

> <s_m_subgroupid>
dock_pv

> <b_m_subgroup_collapsed>
1

$$$$
CHEMBL1994_lig807
                    3D
 Schrodinger Suite 2021-1.
 34 35  0  0  1  0            999 V2000
   16.7926   76.6629   24.0699 N   0  0  0  0  0  0
   17.3102   75.8905   23.1238 C   0  0  0  0  0  0
   16.6242   75.4621   22.2011 O   0  0  0  0  0  0
   18.6342   75.7311   23.2723 N   0  0  0  0  0  0
   19.4914   74.9966   22.4467 C   0  0  0  0  0  0
   19.0879   73.8683   21.7149 C   0  0  0  0  0  0
   20.0269   73.2216   20.9053 C   0  0  0  0  0  0
   19.6554   71.9495   20.1634 C   0  0  0  0  0  0
   19.1687   72.1939   18.7226 C   0  0  1  0  0  0
   20.2448   72.6481   17.9272 O   0  0  0  0  0  0
   18.4710   70.9591   18.1658 C   0  0  0  0  0  0
   17.1433   70.7317   18.5351 C   0  0  0  0  0  0
   16.4590   69.6161   18.0688 C   0  0  0  0  0  0
   17.0998   68.7159   17.2283 C   0  0  0  0  0  0
   18.4311   68.9130   16.8692 C   0  0  0  0  0  0
   19.0410   68.0195   16.0598 F   0  0  0  0  0  0
   19.1200   70.0329   17.3353 C   0  0  0  0  0  0
   21.3211   73.7359   20.8202 C   0  0  0  0  0  0
   21.6500   74.8508   21.5853 C   0  0  0  0  0  0
   20.7642   75.4620   22.4058 N   0  0  0  0  0  0
   17.3528   77.0050   24.8442 H   0  0  0  0  0  0
   15.8380   76.9668   23.9681 H   0  0  0  0  0  0
   19.0860   76.2958   23.9726 H   0  0  0  0  0  0
   18.0800   73.4845   21.7900 H   0  0  0  0  0  0
   18.8840   71.4379   20.7423 H   0  0  0  0  0  0
   20.5033   71.2619   20.1681 H   0  0  0  0  0  0
   18.4347   73.0025   18.7179 H   0  0  0  0  0  0
   20.6962   73.3423   18.4136 H   0  0  0  0  0  0
   16.6408   71.4214   19.1968 H   0  0  0  0  0  0
   15.4352   69.4481   18.3643 H   0  0  0  0  0  0
   16.5558   67.8620   16.8702 H   0  0  0  0  0  0
   20.1508   70.1801   17.0485 H   0  0  0  0  0  0
   22.0690   73.2419   20.2179 H   0  0  0  0  0  0
   22.6474   75.2595   21.5749 H   0  0  0  0  0  0
  1  2  1  0  0  0
  1 21  1  0  0  0
  1 22  1  0  0  0
  2  3  2  0  0  0
  2  4  1  0  0  0
  4  5  1  0  0  0
  4 23  1  0  0  0
  5  6  2  0  0  0
  5 20  1  0  0  0
  6  7  1  0  0  0
  6 24  1  0  0  0
  7  8  1  0  0  0
  7 18  2  0  0  0
  8  9  1  0  0  0
  8 25  1  0  0  0
  8 26  1  0  0  0
  9 10  1  0  0  0
  9 11  1  0  0  0
  9 27  1  0  0  0
 10 28  1  0  0  0
 11 12  2  0  0  0
 11 17  1  0  0  0
 12 13  1  0  0  0
 12 29  1  0  0  0
 13 14  2  0  0  0
 13 30  1  0  0  0
 14 15  1  0  0  0
 14 31  1  0  0  0
 15 16  1  0  0  0
 15 17  2  0  0  0
 17 32  1  0  0  0
 18 19  1  0  0  0
 18 33  1  0  0  0
 19 20  2  0  0  0
 19 34  1  0  0  0
M  END
> <s_m_entry_id>
9704

> <s_m_entry_name>
dock_pv.144

> <s_m_Source_Path>
/home/csk/Desktop/cluster/DUD-E-result/mcr

> <s_m_Source_File>
dock_pv.maegz

> <i_m_Source_File_Index>
144

> <chembl_id>
CHEMBL3643672

> <chembl_pref_name>
None

> <i_lp_mmshare_version>
53161

> <i_f3d_flags>
0

> <r_lp_tautomer_probability>
1

> <s_lp_Force_Field>
OPLS_2005

> <r_lp_Energy>
8.489322

> <b_lp_Chiralities_Consistent>
1

> <s_lp_Variant>
CHEMBL1994_lig807-2

> <s_i_glide_gridfile>
glide-grid_2aa2

> <i_i_glide_lignum>
1225

> <i_i_glide_rotatable_bonds>
6

> <r_i_docking_score>
-8.04303909941813

> <r_i_glide_ligand_efficiency>
-0.402151954970906

> <r_i_glide_ligand_efficiency_sa>
-1.09160835003105

> <r_i_glide_ligand_efficiency_ln>
-2.01290740940065

> <r_i_glide_gscore>
-8.04303909941813

> <r_i_glide_lipo>
-3.7358983458933

> <r_i_glide_hbond>
-0.32

> <r_i_glide_metal>
0

> <r_i_glide_rewards>
-2.54284270988174

> <r_i_glide_evdw>
-39.762264251709

> <r_i_glide_ecoul>
-2.63057589530945

> <r_i_glide_erotb>
0.948638500846392

> <r_i_glide_esite>
-0.0102369476076151

> <r_i_glide_emodel>
-60.2952274744742

> <r_i_glide_energy>
-42.3928401470184

> <r_i_glide_einternal>
4.96279907226562

> <i_i_glide_confnum>
8

> <i_i_glide_posenum>
134

> <r_i_glide_eff_state_penalty>
0

> <s_user_duplicate_titles>
CHEMBL1994_lig807

> <s_m_subgroup_title>
dock_pv

> <s_m_subgroupid>
dock_pv

> <b_m_subgroup_collapsed>
1

$$$$
CHEMBL1994_lig825
                    3D
 Schrodinger Suite 2021-1.
 36 37  0  0  1  0            999 V2000
   21.1245   75.4620   22.6705 C   0  0  0  0  0  0
   19.6562   75.3022   22.3077 C   0  0  0  0  0  0
   18.6778   75.8023   23.1738 C   0  0  0  0  0  0
   17.3282   75.6978   22.8504 C   0  0  0  0  0  0
   16.3949   76.2341   23.6703 F   0  0  0  0  0  0
   16.9434   75.0620   21.6700 C   0  0  0  0  0  0
   17.9108   74.5604   20.7993 C   0  0  0  0  0  0
   19.2716   74.6910   21.1020 C   0  0  0  0  0  0
   20.3151   74.2726   20.0700 C   0  0  0  0  0  0
   21.0243   72.9327   20.3168 C   0  0  0  0  0  0
   20.6707   71.8866   19.2862 C   0  0  0  0  0  0
   21.5707   71.4961   18.2945 C   0  0  0  0  0  0
   21.1519   70.5612   17.3475 C   0  0  0  0  0  0
   19.9179   70.0005   17.3607 N   0  0  0  0  0  0
   19.0649   70.3817   18.3537 C   0  0  0  0  0  0
   17.7747   69.8957   18.4776 N   0  0  0  0  0  0
   17.0730   69.1610   17.6200 C   0  0  0  0  0  0
   17.4456   68.6620   16.5598 O   0  0  0  0  0  0
   15.8410   69.0620   18.0700 N   0  0  0  0  0  0
   19.4079   71.3119   19.3271 C   0  0  0  0  0  0
   21.6290   76.1330   21.9748 H   0  0  0  0  0  0
   21.2525   75.8620   23.6700 H   0  0  0  0  0  0
   21.6370   74.5015   22.6276 H   0  0  0  0  0  0
   18.9561   76.3019   24.0889 H   0  0  0  0  0  0
   15.8940   74.9761   21.4289 H   0  0  0  0  0  0
   17.5995   74.1015   19.8722 H   0  0  0  0  0  0
   19.8506   74.2620   19.0817 H   0  0  0  0  0  0
   21.0660   75.0620   20.0662 H   0  0  0  0  0  0
   22.1060   73.0621   20.3639 H   0  0  0  0  0  0
   20.7291   72.5215   21.2700 H   0  0  0  0  0  0
   22.5616   71.9234   18.2425 H   0  0  0  0  0  0
   21.8090   70.2620   16.5465 H   0  0  0  0  0  0
   17.2819   70.2157   19.2945 H   0  0  0  0  0  0
   15.1837   68.5231   17.5306 H   0  0  0  0  0  0
   15.5224   69.5659   18.8891 H   0  0  0  0  0  0
   18.7075   71.6058   20.0970 H   0  0  0  0  0  0
  1  2  1  0  0  0
  1 21  1  0  0  0
  1 22  1  0  0  0
  1 23  1  0  0  0
  2  3  2  0  0  0
  2  8  1  0  0  0
  3  4  1  0  0  0
  3 24  1  0  0  0
  4  5  1  0  0  0
  4  6  2  0  0  0
  6  7  1  0  0  0
  6 25  1  0  0  0
  7  8  2  0  0  0
  7 26  1  0  0  0
  8  9  1  0  0  0
  9 10  1  0  0  0
  9 27  1  0  0  0
  9 28  1  0  0  0
 10 11  1  0  0  0
 10 29  1  0  0  0
 10 30  1  0  0  0
 11 12  2  0  0  0
 11 20  1  0  0  0
 12 13  1  0  0  0
 12 31  1  0  0  0
 13 14  2  0  0  0
 13 32  1  0  0  0
 14 15  1  0  0  0
 15 16  1  0  0  0
 15 20  2  0  0  0
 16 17  1  0  0  0
 16 33  1  0  0  0
 17 18  2  0  0  0
 17 19  1  0  0  0
 19 34  1  0  0  0
 19 35  1  0  0  0
 20 36  1  0  0  0
M  END
> <s_m_entry_id>
9705

> <s_m_entry_name>
dock_pv.145

> <s_m_Source_Path>
/home/csk/Desktop/cluster/DUD-E-result/mcr

> <s_m_Source_File>
dock_pv.maegz

> <i_m_Source_File_Index>
145

> <chembl_id>
CHEMBL3643690

> <chembl_pref_name>
None

> <i_lp_mmshare_version>
53161

> <i_f3d_flags>
0

> <r_lp_tautomer_probability>
1

> <s_lp_Force_Field>
OPLS_2005

> <r_lp_Energy>
11.036972

> <b_lp_Chiralities_Consistent>
1

> <s_lp_Variant>
CHEMBL1994_lig825-1

> <s_i_glide_gridfile>
glide-grid_2aa2

> <i_i_glide_lignum>
1251

> <i_i_glide_rotatable_bonds>
5

> <r_i_docking_score>
-8.04275240203533

> <r_i_glide_ligand_efficiency>
-0.402137620101767

> <r_i_glide_ligand_efficiency_sa>
-1.09156943920977

> <r_i_glide_ligand_efficiency_ln>
-2.01283565850165

> <r_i_glide_gscore>
-8.04275240203533

> <r_i_glide_lipo>
-3.63145596137619

> <r_i_glide_hbond>
-0.323247931797594

> <r_i_glide_metal>
0

> <r_i_glide_rewards>
-2.57573682935012

> <r_i_glide_evdw>
-39.2577781677246

> <r_i_glide_ecoul>
-3.39972257614136

> <r_i_glide_erotb>
0.960535615296008

> <r_i_glide_esite>
0

> <r_i_glide_emodel>
-59.9364644616672

> <r_i_glide_energy>
-42.657500743866

> <r_i_glide_einternal>
6.18517780303955

> <i_i_glide_confnum>
18

> <i_i_glide_posenum>
256

> <r_i_glide_eff_state_penalty>
0

> <s_user_duplicate_titles>
CHEMBL1994_lig825

> <s_m_subgroup_title>
dock_pv

> <s_m_subgroupid>
dock_pv

> <b_m_subgroup_collapsed>
1

$$$$
CHEMBL1994_lig532
                    3D
 Schrodinger Suite 2021-1.
 41 43  0  0  1  0            999 V2000
   18.4749   71.8112   22.2518 C   0  0  0  0  0  0
   18.6414   72.6425   23.5244 C   0  0  0  0  0  0
   18.2410   74.0623   23.3841 N   0  0  1  0  0  0
   19.2867   75.2311   22.5896 S   0  0  0  0  0  0
   19.3353   74.5722   20.9243 C   0  0  0  0  0  0
   20.6410   75.1249   23.1271 O   0  0  0  0  0  0
   18.5733   76.5077   22.5332 O   0  0  0  0  0  0
   20.3726   73.9345   20.2938 C   0  0  0  0  0  0
   19.9562   73.5132   19.0738 O   0  0  0  0  0  0
   18.6566   73.9794   18.8765 N   0  0  0  0  0  0
   18.3356   74.6361   19.9717 C   0  0  0  0  0  0
   21.8057   73.6915   20.6426 C   0  0  0  0  0  0
   17.0174   75.3362   20.0698 C   0  0  0  0  0  0
   19.4411   70.8584   21.9577 C   0  0  0  0  0  0
   19.4596   70.1971   20.7400 C   0  0  0  0  0  0
   18.4679   70.4541   19.7992 C   0  0  0  0  0  0
   17.4288   71.3164   20.1374 C   0  0  0  0  0  0
   17.4151   71.9828   21.3616 C   0  0  0  0  0  0
   18.5342   69.8416   18.4555 C   0  0  0  0  0  0
   19.7297   69.8624   17.7281 C   0  0  0  0  0  0
   19.7898   69.2731   16.4701 C   0  0  0  0  0  0
   18.6409   68.6658   15.9667 C   0  0  0  0  0  0
   17.4581   68.6620   16.6303 N   0  0  0  0  0  0
   17.4196   69.2398   17.8575 C   0  0  0  0  0  0
   19.6801   72.6251   23.8500 H   0  0  0  0  0  0
   18.0224   72.1881   24.2989 H   0  0  0  0  0  0
   17.2539   74.1638   23.1273 H   0  0  0  0  0  0
   21.9349   73.4620   21.6903 H   0  0  0  0  0  0
   22.2407   72.8765   20.0686 H   0  0  0  0  0  0
   22.3734   74.6024   20.4702 H   0  0  0  0  0  0
   16.7248   75.5768   21.0902 H   0  0  0  0  0  0
   17.0409   76.2592   19.4938 H   0  0  0  0  0  0
   16.2410   74.7097   19.6702 H   0  0  0  0  0  0
   20.2410   70.6620   22.6506 H   0  0  0  0  0  0
   20.2616   69.5063   20.5223 H   0  0  0  0  0  0
   16.6408   71.4855   19.4238 H   0  0  0  0  0  0
   16.6197   72.6788   21.5830 H   0  0  0  0  0  0
   20.6107   70.3371   18.1362 H   0  0  0  0  0  0
   20.7137   69.2886   15.9128 H   0  0  0  0  0  0
   18.6408   68.2303   14.9818 H   0  0  0  0  0  0
   16.4697   69.1979   18.3719 H   0  0  0  0  0  0
  1  2  1  0  0  0
  1 14  2  0  0  0
  1 18  1  0  0  0
  2  3  1  0  0  0
  2 25  1  0  0  0
  2 26  1  0  0  0
  3  4  1  0  0  0
  3 27  1  0  0  0
  4  5  1  0  0  0
  4  6  2  0  0  0
  4  7  2  0  0  0
  5  8  2  0  0  0
  5 11  1  0  0  0
  8  9  1  0  0  0
  8 12  1  0  0  0
  9 10  1  0  0  0
 10 11  2  0  0  0
 11 13  1  0  0  0
 12 28  1  0  0  0
 12 29  1  0  0  0
 12 30  1  0  0  0
 13 31  1  0  0  0
 13 32  1  0  0  0
 13 33  1  0  0  0
 14 15  1  0  0  0
 14 34  1  0  0  0
 15 16  2  0  0  0
 15 35  1  0  0  0
 16 17  1  0  0  0
 16 19  1  0  0  0
 17 18  2  0  0  0
 17 36  1  0  0  0
 18 37  1  0  0  0
 19 20  2  0  0  0
 19 24  1  0  0  0
 20 21  1  0  0  0
 20 38  1  0  0  0
 21 22  2  0  0  0
 21 39  1  0  0  0
 22 23  1  0  0  0
 22 40  1  0  0  0
 23 24  2  0  0  0
 24 41  1  0  0  0
M  END
> <s_m_entry_id>
9706

> <s_m_entry_name>
dock_pv.146

> <s_m_Source_Path>
/home/csk/Desktop/cluster/DUD-E-result/mcr

> <s_m_Source_File>
dock_pv.maegz

> <i_m_Source_File_Index>
146

> <chembl_id>
CHEMBL3086017

> <chembl_pref_name>
None

> <i_lp_mmshare_version>
53161

> <i_f3d_flags>
0

> <r_lp_tautomer_probability>
1

> <s_lp_Force_Field>
OPLS_2005

> <r_lp_Energy>
14.731933

> <b_lp_Chiralities_Consistent>
1

> <s_lp_Variant>
CHEMBL1994_lig532-1

> <s_i_glide_gridfile>
glide-grid_2aa2

> <i_i_glide_lignum>
843

> <i_i_glide_rotatable_bonds>
5

> <r_i_docking_score>
-8.0332721407055

> <r_i_glide_ligand_efficiency>
-0.334719672529396

> <r_i_glide_ligand_efficiency_sa>
-0.965498606735113

> <r_i_glide_ligand_efficiency_ln>
-1.92273064610958

> <r_i_glide_gscore>
-8.0332721407055

> <r_i_glide_lipo>
-4.07295059862089

> <r_i_glide_hbond>
-0.179514000583487

> <r_i_glide_metal>
0

> <r_i_glide_rewards>
-2.22644731782514

> <r_i_glide_evdw>
-35.6489219665527

> <r_i_glide_ecoul>
-3.65765476226807

> <r_i_glide_erotb>
0.804521141251023

> <r_i_glide_esite>
-0.0277870522591516

> <r_i_glide_emodel>
-50.3849647590911

> <r_i_glide_energy>
-39.3065767288208

> <r_i_glide_einternal>
3.24336552619934

> <i_i_glide_confnum>
87

> <i_i_glide_posenum>
106

> <r_i_glide_eff_state_penalty>
0

> <s_user_duplicate_titles>
CHEMBL1994_lig532

> <s_m_subgroup_title>
dock_pv

> <s_m_subgroupid>
dock_pv

> <b_m_subgroup_collapsed>
1

$$$$
CHEMBL1994_lig522
                    3D
 Schrodinger Suite 2021-1.
 36 39  0  0  1  0            999 V2000
   16.8370   68.9156   17.3082 C   0  0  0  0  0  0
   18.2410   68.9246   16.6341 C   0  0  0  0  0  0
   19.0486   69.8558   17.1798 N   0  0  0  0  0  0
   16.8722   69.2394   18.7099 O   0  0  0  0  0  0
   17.6186   70.3510   19.0339 C   0  0  0  0  0  0
   18.7346   70.6703   18.2690 C   0  0  0  0  0  0
   19.5257   71.7499   18.6486 C   0  0  0  0  0  0
   19.2424   72.4551   19.8354 C   0  0  0  0  0  0
   18.1398   72.0972   20.6051 C   0  0  0  0  0  0
   17.3261   71.0620   20.1944 C   0  0  0  0  0  0
   20.1715   73.4873   20.2934 C   0  0  0  0  0  0
   20.0604   74.5481   21.1050 C   0  0  0  0  0  0
   21.3845   75.1339   21.2566 C   0  0  0  0  0  0
   22.2410   74.2315   20.8700 O   0  0  0  0  0  0
   21.5936   73.2649   20.0700 C   0  0  0  0  0  0
   18.8576   75.0978   21.7195 C   0  0  0  0  0  0
   21.7118   76.2384   21.6700 O   0  0  0  0  0  0
   18.9242   75.4844   23.0615 C   0  0  0  0  0  0
   17.7780   75.8799   23.7199 C   0  0  0  0  0  0
   16.5770   75.8622   23.0344 C   0  0  0  0  0  0
   16.4857   75.4620   21.7088 C   0  0  0  0  0  0
   17.6409   75.1094   21.0334 C   0  0  0  0  0  0
   15.4725   76.2620   23.6700 F   0  0  0  0  0  0
   18.5618   68.2037   15.6912 O   0  0  0  0  0  0
   16.3590   67.9506   17.1514 H   0  0  0  0  0  0
   16.2412   69.6787   16.8072 H   0  0  0  0  0  0
   19.9460   69.9486   16.7289 H   0  0  0  0  0  0
   20.3894   71.9977   18.0489 H   0  0  0  0  0  0
   17.9253   72.5767   21.5488 H   0  0  0  0  0  0
   16.4966   70.7932   20.8237 H   0  0  0  0  0  0
   21.8410   73.3714   19.0155 H   0  0  0  0  0  0
   21.8410   72.2620   20.3700 H   0  0  0  0  0  0
   19.8567   75.4568   23.6066 H   0  0  0  0  0  0
   17.8113   76.1837   24.7551 H   0  0  0  0  0  0
   15.5273   75.4528   21.2139 H   0  0  0  0  0  0
   17.5823   74.8071   19.9977 H   0  0  0  0  0  0
  1  2  1  0  0  0
  1  4  1  0  0  0
  1 25  1  0  0  0
  1 26  1  0  0  0
  2  3  1  0  0  0
  2 24  2  0  0  0
  3  6  1  0  0  0
  3 27  1  0  0  0
  4  5  1  0  0  0
  5  6  2  0  0  0
  5 10  1  0  0  0
  6  7  1  0  0  0
  7  8  2  0  0  0
  7 28  1  0  0  0
  8  9  1  0  0  0
  8 11  1  0  0  0
  9 10  2  0  0  0
  9 29  1  0  0  0
 10 30  1  0  0  0
 11 12  2  0  0  0
 11 15  1  0  0  0
 12 13  1  0  0  0
 12 16  1  0  0  0
 13 14  1  0  0  0
 13 17  2  0  0  0
 14 15  1  0  0  0
 15 31  1  0  0  0
 15 32  1  0  0  0
 16 18  2  0  0  0
 16 22  1  0  0  0
 18 19  1  0  0  0
 18 33  1  0  0  0
 19 20  2  0  0  0
 19 34  1  0  0  0
 20 21  1  0  0  0
 20 23  1  0  0  0
 21 22  2  0  0  0
 21 35  1  0  0  0
 22 36  1  0  0  0
M  END
> <s_m_entry_id>
9707

> <s_m_entry_name>
dock_pv.147

> <s_m_Source_Path>
/home/csk/Desktop/cluster/DUD-E-result/mcr

> <s_m_Source_File>
dock_pv.maegz

> <i_m_Source_File_Index>
147

> <chembl_id>
CHEMBL2419302

> <chembl_pref_name>
None

> <i_lp_mmshare_version>
53161

> <i_f3d_flags>
0

> <r_lp_tautomer_probability>
0.999841193423406

> <s_lp_Force_Field>
OPLS_2005

> <r_lp_Energy>
31.133491

> <b_lp_Chiralities_Consistent>
1

> <s_lp_Variant>
CHEMBL1994_lig522-1

> <s_i_glide_gridfile>
glide-grid_2aa2

> <i_i_glide_lignum>
833

> <i_i_glide_rotatable_bonds>
2

> <r_i_docking_score>
-8.02912638041754

> <r_i_glide_ligand_efficiency>
-0.334546932517397

> <r_i_glide_ligand_efficiency_sa>
-0.965000338319482

> <r_i_glide_ligand_efficiency_ln>
-1.92173837543612

> <r_i_glide_gscore>
-8.02912638041754

> <r_i_glide_lipo>
-3.82634072351075

> <r_i_glide_hbond>
-0.0052966226478056

> <r_i_glide_metal>
0

> <r_i_glide_rewards>
-2.82378708769496

> <r_i_glide_evdw>
-23.9635963439941

> <r_i_glide_ecoul>
-3.41825938224792

> <r_i_glide_erotb>
0.354192061167624

> <r_i_glide_esite>
-0.0169752831947493

> <r_i_glide_emodel>
-30.0913153090838

> <r_i_glide_energy>
-27.3818557262421

> <r_i_glide_einternal>
3.0732593536377

> <i_i_glide_confnum>
14

> <i_i_glide_posenum>
341

> <r_i_glide_eff_state_penalty>
0

> <s_user_duplicate_titles>
CHEMBL1994_lig522

> <s_m_subgroup_title>
dock_pv

> <s_m_subgroupid>
dock_pv

> <b_m_subgroup_collapsed>
1

$$$$
CHEMBL1994_lig1117
                    3D
 Schrodinger Suite 2021-1.
 35 36  0  0  1  0            999 V2000
   19.1513   71.9190   19.8282 C   0  0  0  0  0  0
   19.2491   72.9781   20.7553 N   0  0  0  0  0  0
   18.0258   71.0865   19.7823 C   0  0  0  0  0  0
   17.9126   70.0880   18.8192 C   0  0  0  0  0  0
   18.9391   69.8758   17.8983 C   0  0  0  0  0  0
   20.1025   70.6624   17.9616 C   0  0  0  0  0  0
   20.2021   71.6985   18.9119 C   0  0  0  0  0  0
   18.7674   68.8426   16.8806 C   0  0  0  0  0  0
   18.6357   68.0275   16.0699 N   0  0  0  0  0  0
   21.4271   70.3651   16.8701 Cl  0  0  0  0  0  0
   21.4633   72.5682   18.9315 C   0  0  0  0  0  0
   18.2246   73.3429   21.7415 C   0  0  1  0  0  0
   18.6635   74.5161   22.6800 C   0  0  1  0  0  0
   17.9386   75.7511   22.1267 C   0  0  0  0  0  0
   16.5937   75.2183   21.6390 C   0  0  0  0  0  0
   16.9187   73.8360   21.0714 C   0  0  0  0  0  0
   18.2410   74.2506   24.0043 O   0  0  0  0  0  0
   20.1755   74.7559   22.8637 C   0  0  0  0  0  0
   19.9572   73.6731   20.5733 H   0  0  0  0  0  0
   17.2098   71.2143   20.4767 H   0  0  0  0  0  0
   17.0136   69.4853   18.8002 H   0  0  0  0  0  0
   21.5867   73.1520   19.8421 H   0  0  0  0  0  0
   22.3571   71.9466   18.8685 H   0  0  0  0  0  0
   21.4692   73.2391   18.0721 H   0  0  0  0  0  0
   18.0152   72.4627   22.3533 H   0  0  0  0  0  0
   17.8229   76.5369   22.8751 H   0  0  0  0  0  0
   18.5043   76.1911   21.3029 H   0  0  0  0  0  0
   16.1323   75.8619   20.8911 H   0  0  0  0  0  0
   15.8919   75.1347   22.4699 H   0  0  0  0  0  0
   17.0409   73.9130   19.9902 H   0  0  0  0  0  0
   16.0953   73.1475   21.2656 H   0  0  0  0  0  0
   17.3170   73.9630   23.9747 H   0  0  0  0  0  0
   20.6688   75.0027   21.9235 H   0  0  0  0  0  0
   20.3751   75.5755   23.5548 H   0  0  0  0  0  0
   20.6452   73.8620   23.2672 H   0  0  0  0  0  0
  1  2  1  0  0  0
  1  3  2  0  0  0
  1  7  1  0  0  0
  2 12  1  0  0  0
  2 19  1  0  0  0
  3  4  1  0  0  0
  3 20  1  0  0  0
  4  5  2  0  0  0
  4 21  1  0  0  0
  5  6  1  0  0  0
  5  8  1  0  0  0
  6  7  2  0  0  0
  6 10  1  0  0  0
  7 11  1  0  0  0
  8  9  3  0  0  0
 11 22  1  0  0  0
 11 23  1  0  0  0
 11 24  1  0  0  0
 12 13  1  0  0  0
 12 16  1  0  0  0
 12 25  1  0  0  0
 13 14  1  0  0  0
 13 17  1  0  0  0
 13 18  1  0  0  0
 14 15  1  0  0  0
 14 26  1  0  0  0
 14 27  1  0  0  0
 15 16  1  0  0  0
 15 28  1  0  0  0
 15 29  1  0  0  0
 16 30  1  0  0  0
 16 31  1  0  0  0
 17 32  1  0  0  0
 18 33  1  0  0  0
 18 34  1  0  0  0
 18 35  1  0  0  0
M  END
> <s_m_entry_id>
9708

> <s_m_entry_name>
dock_pv.148

> <s_m_Source_Path>
/home/csk/Desktop/cluster/DUD-E-result/mcr

> <s_m_Source_File>
dock_pv.maegz

> <i_m_Source_File_Index>
148

> <chembl_id>
CHEMBL3764185

> <chembl_pref_name>
None

> <i_lp_mmshare_version>
53161

> <i_f3d_flags>
0

> <r_lp_tautomer_probability>
1

> <s_lp_Force_Field>
OPLS_2005

> <r_lp_Energy>
33.566159

> <b_lp_Chiralities_Consistent>
1

> <s_lp_Variant>
CHEMBL1994_lig1117-1

> <s_i_glide_gridfile>
glide-grid_2aa2

> <i_i_glide_lignum>
1603

> <i_i_glide_rotatable_bonds>
3

> <r_i_docking_score>
-8.01700066151528

> <r_i_glide_ligand_efficiency>
-0.445388925639738

> <r_i_glide_ligand_efficiency_sa>
-1.16724919282169

> <r_i_glide_ligand_efficiency_ln>
-2.06072868106844

> <r_i_glide_gscore>
-8.01700066151528

> <r_i_glide_lipo>
-3.17760555768506

> <r_i_glide_hbond>
-0.32

> <r_i_glide_metal>
0

> <r_i_glide_rewards>
-2.35150004310515

> <r_i_glide_evdw>
-37.0688972473145

> <r_i_glide_ecoul>
-5.47910690307617

> <r_i_glide_erotb>
0.507415837102078

> <r_i_glide_esite>
0

> <r_i_glide_emodel>
-61.6751511849182

> <r_i_glide_energy>
-42.5480041503906

> <r_i_glide_einternal>
2.40383744239807

> <i_i_glide_confnum>
1

> <i_i_glide_posenum>
265

> <r_i_glide_eff_state_penalty>
0

> <s_user_duplicate_titles>
CHEMBL1994_lig1117

> <s_m_subgroup_title>
dock_pv

> <s_m_subgroupid>
dock_pv

> <b_m_subgroup_collapsed>
1

$$$$
CHEMBL1994_lig1140
                    3D
 Schrodinger Suite 2021-1.
 40 43  0  0  1  0            999 V2000
   17.6899   68.6614   16.5897 C   0  0  0  0  0  0
   19.0342   68.5671   15.8424 C   0  0  0  0  0  0
   20.2180   69.1057   16.4690 O   0  0  0  0  0  0
   17.7701   69.2429   17.7854 N   0  0  0  0  0  0
   18.8586   69.9321   18.2642 C   0  0  0  0  0  0
   20.0569   69.9139   17.5570 C   0  0  0  0  0  0
   21.1366   70.6936   17.9455 C   0  0  0  0  0  0
   20.9957   71.5094   19.0608 C   0  0  0  0  0  0
   19.8055   71.5206   19.8018 C   0  0  0  0  0  0
   18.7303   70.7289   19.3805 C   0  0  0  0  0  0
   16.6411   68.2632   16.1077 O   0  0  0  0  0  0
   19.6634   72.4144   20.8627 N   0  0  0  0  0  0
   19.6540   73.7941   20.3934 C   0  0  0  0  0  0
   20.1315   74.7961   21.4252 C   0  0  0  0  0  0
   18.6466   72.1025   21.8714 C   0  0  0  0  0  0
   18.8867   72.6694   23.2711 C   0  0  0  0  0  0
   19.1022   75.1108   22.4845 C   0  0  0  0  0  0
   18.6414   74.1626   23.4171 C   0  0  0  0  0  0
   17.8413   74.6043   24.4733 C   0  0  0  0  0  0
   17.2841   75.8618   24.4701 C   0  0  0  0  0  0
   17.6062   76.7368   23.4664 C   0  0  0  0  0  0
   18.5260   76.3734   22.4938 C   0  0  0  0  0  0
   17.0406   77.9458   23.4707 F   0  0  0  0  0  0
   18.8897   69.0387   14.8721 H   0  0  0  0  0  0
   19.2190   67.5106   15.6418 H   0  0  0  0  0  0
   16.8906   69.2995   18.2776 H   0  0  0  0  0  0
   22.0543   70.6856   17.3808 H   0  0  0  0  0  0
   21.8240   72.1377   19.3566 H   0  0  0  0  0  0
   17.7802   70.7587   19.8879 H   0  0  0  0  0  0
   18.7022   74.0606   19.9269 H   0  0  0  0  0  0
   20.3882   73.9046   19.5928 H   0  0  0  0  0  0
   20.3799   75.7172   20.8914 H   0  0  0  0  0  0
   21.0704   74.4862   21.8898 H   0  0  0  0  0  0
   18.7152   71.0253   22.0383 H   0  0  0  0  0  0
   17.6314   72.2708   21.5124 H   0  0  0  0  0  0
   19.8405   72.3732   23.6767 H   0  0  0  0  0  0
   18.1743   72.1572   23.9189 H   0  0  0  0  0  0
   17.5325   73.9107   25.2302 H   0  0  0  0  0  0
   16.6096   76.1693   25.2542 H   0  0  0  0  0  0
   18.7835   77.0613   21.7077 H   0  0  0  0  0  0
  1  2  1  0  0  0
  1  4  1  0  0  0
  1 11  2  0  0  0
  2  3  1  0  0  0
  2 24  1  0  0  0
  2 25  1  0  0  0
  3  6  1  0  0  0
  4  5  1  0  0  0
  4 26  1  0  0  0
  5  6  2  0  0  0
  5 10  1  0  0  0
  6  7  1  0  0  0
  7  8  2  0  0  0
  7 27  1  0  0  0
  8  9  1  0  0  0
  8 28  1  0  0  0
  9 10  2  0  0  0
  9 12  1  0  0  0
 10 29  1  0  0  0
 12 13  1  0  0  0
 12 15  1  0  0  0
 13 14  1  0  0  0
 13 30  1  0  0  0
 13 31  1  0  0  0
 14 17  1  0  0  0
 14 32  1  0  0  0
 14 33  1  0  0  0
 15 16  1  0  0  0
 15 34  1  0  0  0
 15 35  1  0  0  0
 16 18  1  0  0  0
 16 36  1  0  0  0
 16 37  1  0  0  0
 17 18  2  0  0  0
 17 22  1  0  0  0
 18 19  1  0  0  0
 19 20  2  0  0  0
 19 38  1  0  0  0
 20 21  1  0  0  0
 20 39  1  0  0  0
 21 22  2  0  0  0
 21 23  1  0  0  0
 22 40  1  0  0  0
M  END
> <s_m_entry_id>
9709

> <s_m_entry_name>
dock_pv.149

> <s_m_Source_Path>
/home/csk/Desktop/cluster/DUD-E-result/mcr

> <s_m_Source_File>
dock_pv.maegz

> <i_m_Source_File_Index>
149

> <chembl_id>
CHEMBL4081132

> <chembl_pref_name>
None

> <i_lp_mmshare_version>
53161

> <i_f3d_flags>
0

> <r_lp_tautomer_probability>
1

> <s_lp_Force_Field>
OPLS_2005

> <r_lp_Energy>
36.380826

> <b_lp_Chiralities_Consistent>
1

> <s_lp_Variant>
CHEMBL1994_lig1140-1

> <s_i_glide_gridfile>
glide-grid_2aa2

> <i_i_glide_lignum>
1628

> <i_i_glide_rotatable_bonds>
1

> <r_i_docking_score>
-8.01353245634587

> <r_i_glide_ligand_efficiency>
-0.348414454623734

> <r_i_glide_ligand_efficiency_sa>
-0.990844361771832

> <r_i_glide_ligand_efficiency_ln>
-1.93774481063938

> <r_i_glide_gscore>
-8.01353245634587

> <r_i_glide_lipo>
-4.0511592526658

> <r_i_glide_hbond>
-0.203676453389013

> <r_i_glide_metal>
0

> <r_i_glide_rewards>
-2.36462365428212

> <r_i_glide_evdw>
-24.5917816162109

> <r_i_glide_ecoul>
-2.23120021820068

> <r_i_glide_erotb>
0.190233698734081

> <r_i_glide_esite>
-0.0200376812023721

> <r_i_glide_emodel>
-27.7317283031468

> <r_i_glide_energy>
-26.8229818344116

> <r_i_glide_einternal>
1.63200616836548

> <i_i_glide_confnum>
3

> <i_i_glide_posenum>
373

> <r_i_glide_eff_state_penalty>
0

> <s_user_duplicate_titles>
CHEMBL1994_lig1140

> <s_m_subgroup_title>
dock_pv

> <s_m_subgroupid>
dock_pv

> <b_m_subgroup_collapsed>
1

$$$$
CHEMBL1994_lig1048
                    3D
 Schrodinger Suite 2021-1.
 50 53  0  0  1  0            999 V2000
   16.7143   74.0137   21.2466 C   0  0  0  0  0  0
   16.8075   72.6381   21.0312 C   0  0  0  0  0  0
   17.4428   72.1440   19.8877 C   0  0  0  0  0  0
   17.9734   73.0331   18.9712 C   0  0  0  0  0  0
   18.0140   74.3905   19.2703 C   0  0  0  0  0  0
   17.3640   74.8847   20.3884 C   0  0  0  0  0  0
   17.4513   70.6500   19.6413 C   0  0  0  0  0  0
   17.9060   70.0300   18.3008 C   0  0  0  0  0  0
   16.8955   69.1916   17.6718 C   0  0  0  0  0  0
   17.3524   68.4375   16.6446 N   0  0  0  0  0  0
   18.6338   68.2674   16.2166 C   0  0  0  0  0  0
   19.4651   69.2349   16.6561 N   0  0  0  0  0  0
   19.1468   70.0079   17.7262 C   0  0  0  0  0  0
   19.0407   67.2526   15.6696 O   0  0  0  0  0  0
   15.7488   69.0629   18.0695 O   0  0  0  0  0  0
   20.3306   70.5047   18.1792 N   0  0  0  0  0  0
   20.8986   70.0313   19.4282 C   0  0  0  0  0  0
   20.6406   71.1196   20.4349 C   0  0  0  0  0  0
   21.0961   71.5990   17.5826 C   0  0  0  0  0  0
   21.0486   72.8462   18.4849 C   0  0  0  0  0  0
   21.1580   72.5111   19.9970 C   0  0  0  0  0  0
   20.8152   73.6061   20.9912 C   0  0  0  0  0  0
   21.6485   74.7167   21.0858 C   0  0  0  0  0  0
   21.4376   75.6499   22.0704 C   0  0  0  0  0  0
   20.4059   75.4622   22.9816 C   0  0  0  0  0  0
   19.5561   74.3945   22.9213 C   0  0  0  0  0  0
   19.7807   73.4538   21.9370 C   0  0  0  0  0  0
   18.2641   74.2909   24.0649 Cl  0  0  0  0  0  0
   16.1559   74.4185   22.0690 H   0  0  0  0  0  0
   16.3308   71.9564   21.7187 H   0  0  0  0  0  0
   18.3653   72.6688   18.0366 H   0  0  0  0  0  0
   18.4874   75.0613   18.5738 H   0  0  0  0  0  0
   17.3514   75.9448   20.5724 H   0  0  0  0  0  0
   17.9128   70.1066   20.4603 H   0  0  0  0  0  0
   16.4104   70.4372   19.7778 H   0  0  0  0  0  0
   16.6859   67.7375   16.3735 H   0  0  0  0  0  0
   20.4255   69.1710   16.3574 H   0  0  0  0  0  0
   20.3939   69.1260   19.7678 H   0  0  0  0  0  0
   21.9581   69.8247   19.2662 H   0  0  0  0  0  0
   19.6021   71.1644   20.6351 H   0  0  0  0  0  0
   21.0405   70.7629   21.3700 H   0  0  0  0  0  0
   22.0787   71.2464   17.2707 H   0  0  0  0  0  0
   20.5874   71.8624   16.6551 H   0  0  0  0  0  0
   21.8418   73.4917   18.1533 H   0  0  0  0  0  0
   20.2268   73.4929   18.2393 H   0  0  0  0  0  0
   22.2414   72.5229   20.0708 H   0  0  0  0  0  0
   22.5132   74.8466   20.4699 H   0  0  0  0  0  0
   22.0944   76.5022   22.1290 H   0  0  0  0  0  0
   20.2257   76.2158   23.7271 H   0  0  0  0  0  0
   19.1446   72.5909   21.9685 H   0  0  0  0  0  0
  1  2  2  0  0  0
  1  6  1  0  0  0
  1 29  1  0  0  0
  2  3  1  0  0  0
  2 30  1  0  0  0
  3  7  1  0  0  0
  3  4  2  0  0  0
  4  5  1  0  0  0
  4 31  1  0  0  0
  5  6  2  0  0  0
  5 32  1  0  0  0
  6 33  1  0  0  0
  7  8  1  0  0  0
  7 34  1  0  0  0
  7 35  1  0  0  0
  8  9  1  0  0  0
  8 13  2  0  0  0
  9 15  2  0  0  0
  9 10  1  0  0  0
 10 11  1  0  0  0
 10 36  1  0  0  0
 11 14  2  0  0  0
 11 12  1  0  0  0
 12 13  1  0  0  0
 12 37  1  0  0  0
 13 16  1  0  0  0
 16 17  1  0  0  0
 16 19  1  0  0  0
 17 18  1  0  0  0
 17 38  1  0  0  0
 17 39  1  0  0  0
 18 21  1  0  0  0
 18 40  1  0  0  0
 18 41  1  0  0  0
 19 20  1  0  0  0
 19 42  1  0  0  0
 19 43  1  0  0  0
 20 21  1  0  0  0
 20 44  1  0  0  0
 20 45  1  0  0  0
 21 22  1  0  0  0
 21 46  1  0  0  0
 22 23  2  0  0  0
 22 27  1  0  0  0
 23 24  1  0  0  0
 23 47  1  0  0  0
 24 25  2  0  0  0
 24 48  1  0  0  0
 25 26  1  0  0  0
 25 49  1  0  0  0
 26 27  2  0  0  0
 26 28  1  0  0  0
 27 50  1  0  0  0
M  END
> <s_m_entry_id>
9710

> <s_m_entry_name>
dock_pv.150

> <s_m_Source_Path>
/home/csk/Desktop/cluster/DUD-E-result/mcr

> <s_m_Source_File>
dock_pv.maegz

> <i_m_Source_File_Index>
150

> <chembl_id>
CHEMBL231399

> <chembl_pref_name>
None

> <i_lp_mmshare_version>
53161

> <i_f3d_flags>
0

> <r_lp_tautomer_probability>
0.983149644547051

> <s_lp_Force_Field>
OPLS_2005

> <r_lp_Energy>
27.461508

> <b_lp_Chiralities_Consistent>
1

> <s_lp_Variant>
CHEMBL1994_lig1048-1

> <s_i_glide_gridfile>
glide-grid_2aa2

> <i_i_glide_lignum>
1516

> <i_i_glide_rotatable_bonds>
4

> <r_i_docking_score>
-7.99833936871055

> <r_i_glide_ligand_efficiency>
-0.285654977453948

> <r_i_glide_ligand_efficiency_sa>
-0.86741675333458

> <r_i_glide_ligand_efficiency_ln>
-1.84625156774676

> <r_i_glide_gscore>
-7.99833936871055

> <r_i_glide_lipo>
-4.80963988532151

> <r_i_glide_hbond>
-0.15141424330762

> <r_i_glide_metal>
0

> <r_i_glide_rewards>
-2.70754493465828

> <r_i_glide_evdw>
-13.3043212890625

> <r_i_glide_ecoul>
-0.0931380167603493

> <r_i_glide_erotb>
0.349446461544048

> <r_i_glide_esite>
0

> <r_i_glide_emodel>
-10.6019088103445

> <r_i_glide_energy>
-13.3974593058228

> <r_i_glide_einternal>
10.4368362426758

> <i_i_glide_confnum>
90

> <i_i_glide_posenum>
330

> <r_i_glide_eff_state_penalty>
0

> <s_user_duplicate_titles>
CHEMBL1994_lig1048,385748

> <s_m_subgroup_title>
dock_pv

> <s_m_subgroupid>
dock_pv

> <b_m_subgroup_collapsed>
1

$$$$
CHEMBL1994_lig1042
                    3D
 Schrodinger Suite 2021-1.
 44 47  0  0  1  0            999 V2000
   17.4257   71.0622   20.9099 C   0  0  0  0  0  0
   19.8400   71.9888   19.9028 C   0  0  0  0  0  0
   17.8417   70.6618   19.6473 C   0  0  0  0  0  0
   19.1121   71.0281   19.1908 C   0  0  0  0  0  0
   19.5908   70.3463   17.9679 C   0  0  0  0  0  0
   18.7549   69.5141   17.2972 C   0  0  0  0  0  0
   17.3777   69.2766   17.6700 C   0  0  0  0  0  0
   17.0282   69.8612   18.8356 N   0  0  0  0  0  0
   19.3532   72.4564   21.1241 C   0  0  0  0  0  0
   18.2358   71.8469   21.6842 C   0  0  0  0  0  0
   17.8411   72.0065   22.9880 O   0  0  0  0  0  0
   18.6874   72.8436   23.7748 C   0  0  0  0  0  0
   19.1960   74.0638   22.9766 C   0  0  1  0  0  0
   19.9470   73.4620   21.8561 N   0  0  0  0  0  0
   20.9995   70.6439   17.5245 C   0  0  0  0  0  0
   21.3111   69.9168   16.4698 F   0  0  0  0  0  0
   21.0410   71.9292   17.2177 F   0  0  0  0  0  0
   21.8754   70.3677   18.4890 F   0  0  0  0  0  0
   16.5918   68.6619   16.9627 O   0  0  0  0  0  0
   18.0179   74.9921   22.5615 C   0  0  0  0  0  0
   21.3265   73.8769   21.6721 C   0  0  0  0  0  0
   21.3071   75.0025   20.6837 C   0  0  0  0  0  0
   20.7803   76.3121   21.1442 C   0  0  0  0  0  0
   22.2461   76.1233   20.8505 C   0  0  0  0  0  0
   17.5118   75.8859   23.7044 C   0  0  0  0  0  0
   16.4817   70.8231   21.3527 H   0  0  0  0  0  0
   20.7762   72.3669   19.5276 H   0  0  0  0  0  0
   19.0918   69.0106   16.4034 H   0  0  0  0  0  0
   16.0714   69.6973   19.1140 H   0  0  0  0  0  0
   19.5556   72.2616   24.0699 H   0  0  0  0  0  0
   18.1839   73.1462   24.6925 H   0  0  0  0  0  0
   19.8801   74.6264   23.6135 H   0  0  0  0  0  0
   18.3019   75.6294   21.7262 H   0  0  0  0  0  0
   17.1845   74.4034   22.1758 H   0  0  0  0  0  0
   21.9209   73.0623   21.2697 H   0  0  0  0  0  0
   21.8044   74.1738   22.6068 H   0  0  0  0  0  0
   21.1070   74.6619   19.6700 H   0  0  0  0  0  0
   20.3896   76.2620   22.1514 H   0  0  0  0  0  0
   20.2411   76.9755   20.4897 H   0  0  0  0  0  0
   22.6409   76.4119   19.8898 H   0  0  0  0  0  0
   22.9665   76.1340   21.6688 H   0  0  0  0  0  0
   16.6861   76.5134   23.3683 H   0  0  0  0  0  0
   17.1519   75.2971   24.5479 H   0  0  0  0  0  0
   18.2985   76.5466   24.0700 H   0  0  0  0  0  0
  1  3  1  0  0  0
  1 10  2  0  0  0
  1 26  1  0  0  0
  2  9  2  0  0  0
  2  4  1  0  0  0
  2 27  1  0  0  0
  3  4  2  0  0  0
  3  8  1  0  0  0
  4  5  1  0  0  0
  5 15  1  0  0  0
  5  6  2  0  0  0
  6  7  1  0  0  0
  6 28  1  0  0  0
  7  8  1  0  0  0
  7 19  2  0  0  0
  8 29  1  0  0  0
  9 14  1  0  0  0
  9 10  1  0  0  0
 10 11  1  0  0  0
 11 12  1  0  0  0
 12 13  1  0  0  0
 12 30  1  0  0  0
 12 31  1  0  0  0
 13 14  1  0  0  0
 13 20  1  0  0  0
 13 32  1  0  0  0
 14 21  1  0  0  0
 15 16  1  0  0  0
 15 17  1  0  0  0
 15 18  1  0  0  0
 20 25  1  0  0  0
 20 33  1  0  0  0
 20 34  1  0  0  0
 21 22  1  0  0  0
 21 35  1  0  0  0
 21 36  1  0  0  0
 22 23  1  0  0  0
 22 24  1  0  0  0
 22 37  1  0  0  0
 23 24  1  0  0  0
 23 38  1  0  0  0
 23 39  1  0  0  0
 24 40  1  0  0  0
 24 41  1  0  0  0
 25 42  1  0  0  0
 25 43  1  0  0  0
 25 44  1  0  0  0
M  END
> <s_m_entry_id>
9711

> <s_m_entry_name>
dock_pv.151

> <s_m_Source_Path>
/home/csk/Desktop/cluster/DUD-E-result/mcr

> <s_m_Source_File>
dock_pv.maegz

> <i_m_Source_File_Index>
151

> <chembl_id>
CHEMBL389481

> <chembl_pref_name>
None

> <i_lp_mmshare_version>
53161

> <i_f3d_flags>
0

> <r_lp_tautomer_probability>
1

> <s_lp_Force_Field>
OPLS_2005

> <r_lp_Energy>
39.651541

> <b_lp_Chiralities_Consistent>
1

> <s_lp_Variant>
CHEMBL1994_lig1042-2

> <s_i_glide_gridfile>
glide-grid_2aa2

> <i_i_glide_lignum>
1505

> <i_i_glide_rotatable_bonds>
4

> <r_i_docking_score>
-7.99054368505476

> <r_i_glide_ligand_efficiency>
-0.31962174740219

> <r_i_glide_ligand_efficiency_sa>
-0.934579657919831

> <r_i_glide_ligand_efficiency_ln>
-1.8939983106292

> <r_i_glide_gscore>
-7.99054368505476

> <r_i_glide_lipo>
-4.29425518366429

> <r_i_glide_hbond>
-0.243363633179246

> <r_i_glide_metal>
0

> <r_i_glide_rewards>
-2.41740986619746

> <r_i_glide_evdw>
-20.5153007507324

> <r_i_glide_ecoul>
-2.11452865600586

> <r_i_glide_erotb>
0.307429333923733

> <r_i_glide_esite>
0

> <r_i_glide_emodel>
-28.5166831079191

> <r_i_glide_energy>
-22.6298294067383

> <r_i_glide_einternal>
3.08952593803406

> <i_i_glide_confnum>
8

> <i_i_glide_posenum>
19

> <r_i_glide_eff_state_penalty>
0

> <s_user_duplicate_titles>
CHEMBL1994_lig1042

> <s_m_subgroup_title>
dock_pv

> <s_m_subgroupid>
dock_pv

> <b_m_subgroup_collapsed>
1

$$$$
CHEMBL1994_lig1102
                    3D
 Schrodinger Suite 2021-1.
 37 39  0  0  1  0            999 V2000
   21.1421   72.3326   18.5517 C   0  0  0  0  0  0
   20.6846   71.0767   18.1993 C   0  0  0  0  0  0
   19.4128   70.6164   18.5776 C   0  0  0  0  0  0
   20.3888   73.1545   19.3793 C   0  0  0  0  0  0
   19.1732   72.6836   19.9021 C   0  0  0  0  0  0
   18.6885   71.4203   19.4542 C   0  0  0  0  0  0
   17.4495   71.2323   20.0255 N   0  0  0  0  0  0
   17.1868   72.2567   20.8835 C   0  0  0  0  0  0
   18.2165   73.1780   20.8540 C   0  0  0  0  0  0
   18.2876   74.3698   21.7314 C   0  0  0  0  0  0
   19.4829   74.8584   22.2938 C   0  0  0  0  0  0
   19.4047   75.8611   23.2587 C   0  0  0  0  0  0
   18.1811   76.3559   23.6698 C   0  0  0  0  0  0
   17.0132   75.8768   23.1161 C   0  0  0  0  0  0
   17.0634   74.9547   22.0784 C   0  0  0  0  0  0
   20.7037   74.2980   21.9915 O   0  0  0  0  0  0
   21.7684   75.2091   21.7143 C   0  0  0  0  0  0
   15.8409   76.2621   23.6549 F   0  0  0  0  0  0
   18.8185   69.4541   18.0770 N   0  0  0  0  0  0
   19.0061   68.9989   16.8325 C   0  0  0  0  0  0
   19.8386   69.4586   16.0696 O   0  0  0  0  0  0
   18.1159   67.8748   16.3498 C   0  0  0  0  0  0
   22.1029   72.6587   18.1820 H   0  0  0  0  0  0
   21.3298   70.4842   17.5696 H   0  0  0  0  0  0
   20.7570   74.1289   19.6423 H   0  0  0  0  0  0
   16.8122   70.4592   19.8987 H   0  0  0  0  0  0
   16.2804   72.2407   21.4745 H   0  0  0  0  0  0
   20.2981   76.2231   23.7313 H   0  0  0  0  0  0
   18.1212   77.0697   24.4673 H   0  0  0  0  0  0
   16.1306   74.5922   21.6718 H   0  0  0  0  0  0
   22.6379   74.6448   21.3847 H   0  0  0  0  0  0
   21.5041   75.9002   20.9129 H   0  0  0  0  0  0
   22.0622   75.8038   22.5760 H   0  0  0  0  0  0
   18.1135   69.0104   18.6455 H   0  0  0  0  0  0
   17.1792   67.8647   16.9060 H   0  0  0  0  0  0
   18.6399   66.9276   16.4709 H   0  0  0  0  0  0
   17.8795   68.0212   15.2981 H   0  0  0  0  0  0
  1  2  2  0  0  0
  1  4  1  0  0  0
  1 23  1  0  0  0
  2  3  1  0  0  0
  2 24  1  0  0  0
  3  6  2  0  0  0
  3 19  1  0  0  0
  4  5  2  0  0  0
  4 25  1  0  0  0
  5  6  1  0  0  0
  5  9  1  0  0  0
  6  7  1  0  0  0
  7  8  1  0  0  0
  7 26  1  0  0  0
  8  9  2  0  0  0
  8 27  1  0  0  0
  9 10  1  0  0  0
 10 11  2  0  0  0
 10 15  1  0  0  0
 11 12  1  0  0  0
 11 16  1  0  0  0
 12 13  2  0  0  0
 12 28  1  0  0  0
 13 14  1  0  0  0
 13 29  1  0  0  0
 14 15  2  0  0  0
 14 18  1  0  0  0
 15 30  1  0  0  0
 16 17  1  0  0  0
 17 31  1  0  0  0
 17 32  1  0  0  0
 17 33  1  0  0  0
 19 20  1  0  0  0
 19 34  1  0  0  0
 20 21  2  0  0  0
 20 22  1  0  0  0
 22 35  1  0  0  0
 22 36  1  0  0  0
 22 37  1  0  0  0
M  END
> <s_m_entry_id>
9712

> <s_m_entry_name>
dock_pv.152

> <s_m_Source_Path>
/home/csk/Desktop/cluster/DUD-E-result/mcr

> <s_m_Source_File>
dock_pv.maegz

> <i_m_Source_File_Index>
152

> <chembl_id>
CHEMBL3605922

> <chembl_pref_name>
None

> <i_lp_mmshare_version>
53161

> <i_f3d_flags>
0

> <r_lp_tautomer_probability>
1

> <s_lp_Force_Field>
OPLS_2005

> <r_lp_Energy>
20.872047

> <b_lp_Chiralities_Consistent>
1

> <s_lp_Variant>
CHEMBL1994_lig1102-1

> <s_i_glide_gridfile>
glide-grid_2aa2

> <i_i_glide_lignum>
1588

> <i_i_glide_rotatable_bonds>
4

> <r_i_docking_score>
-7.9881717089266

> <r_i_glide_ligand_efficiency>
-0.363098714042118

> <r_i_glide_ligand_efficiency_sa>
-1.01741687660812

> <r_i_glide_ligand_efficiency_ln>
-1.95260054130437

> <r_i_glide_gscore>
-7.9881717089266

> <r_i_glide_lipo>
-3.45941189373288

> <r_i_glide_hbond>
-0.0291681398381204

> <r_i_glide_metal>
0

> <r_i_glide_rewards>
-2.52137532025831

> <r_i_glide_evdw>
-34.5668525695801

> <r_i_glide_ecoul>
-4.20740699768066

> <r_i_glide_erotb>
0.412385110572171

> <r_i_glide_esite>
-0.0311477875383595

> <r_i_glide_emodel>
-53.1854047868566

> <r_i_glide_energy>
-38.7742595672607

> <r_i_glide_einternal>
6.35215616226196

> <i_i_glide_confnum>
15

> <i_i_glide_posenum>
317

> <r_i_glide_eff_state_penalty>
0

> <s_user_duplicate_titles>
CHEMBL1994_lig1102

> <s_m_subgroup_title>
dock_pv

> <s_m_subgroupid>
dock_pv

> <b_m_subgroup_collapsed>
1

$$$$
CHEMBL1994_lig819
                    3D
 Schrodinger Suite 2021-1.
 37 38  0  0  1  0            999 V2000
   17.3234   71.5697   21.0642 C   0  0  0  0  0  0
   18.5007   71.4037   20.2811 O   0  0  0  0  0  0
   18.4880   70.6460   19.1242 C   0  0  0  0  0  0
   17.3961   69.8683   18.7099 C   0  0  0  0  0  0
   17.4752   69.0693   17.5706 C   0  0  0  0  0  0
   18.6410   69.0593   16.8095 C   0  0  0  0  0  0
   19.7166   69.8620   17.1780 C   0  0  0  0  0  0
   19.6455   70.6575   18.3274 C   0  0  0  0  0  0
   20.8296   71.5509   18.6784 C   0  0  0  0  0  0
   20.5101   73.0620   18.5780 C   0  0  0  0  0  0
   20.3448   73.7629   19.9219 C   0  0  0  0  0  0
   21.4633   73.9290   20.7339 C   0  0  0  0  0  0
   21.3531   74.6620   21.9029 C   0  0  0  0  0  0
   20.1754   75.1502   22.3418 N   0  0  0  0  0  0
   19.0554   74.9459   21.5886 C   0  0  0  0  0  0
   17.7829   75.3730   22.0285 N   0  0  0  0  0  0
   17.4056   75.9683   23.1829 C   0  0  0  0  0  0
   16.2410   76.2620   23.4086 O   0  0  0  0  0  0
   18.3434   76.2620   24.0700 N   0  0  0  0  0  0
   19.1175   74.2855   20.3525 C   0  0  0  0  0  0
   17.5113   72.3201   21.8318 H   0  0  0  0  0  0
   16.4853   71.9256   20.4699 H   0  0  0  0  0  0
   17.0411   70.6620   21.5870 H   0  0  0  0  0  0
   16.4765   69.8620   19.2700 H   0  0  0  0  0  0
   16.6333   68.4560   17.2839 H   0  0  0  0  0  0
   18.7093   68.4405   15.9279 H   0  0  0  0  0  0
   20.6068   69.8599   16.5652 H   0  0  0  0  0  0
   21.1956   71.2840   19.6700 H   0  0  0  0  0  0
   21.6603   71.3250   18.0074 H   0  0  0  0  0  0
   21.3416   73.5525   18.0701 H   0  0  0  0  0  0
   19.6493   73.2504   17.9339 H   0  0  0  0  0  0
   22.4178   73.5050   20.4700 H   0  0  0  0  0  0
   22.2247   74.8346   22.5093 H   0  0  0  0  0  0
   17.0273   75.1749   21.3926 H   0  0  0  0  0  0
   18.1147   76.7612   24.9289 H   0  0  0  0  0  0
   19.2932   75.9843   23.8746 H   0  0  0  0  0  0
   18.2318   74.1552   19.7476 H   0  0  0  0  0  0
  1  2  1  0  0  0
  1 21  1  0  0  0
  1 22  1  0  0  0
  1 23  1  0  0  0
  2  3  1  0  0  0
  3  4  2  0  0  0
  3  8  1  0  0  0
  4  5  1  0  0  0
  4 24  1  0  0  0
  5  6  2  0  0  0
  5 25  1  0  0  0
  6  7  1  0  0  0
  6 26  1  0  0  0
  7  8  2  0  0  0
  7 27  1  0  0  0
  8  9  1  0  0  0
  9 10  1  0  0  0
  9 28  1  0  0  0
  9 29  1  0  0  0
 10 11  1  0  0  0
 10 30  1  0  0  0
 10 31  1  0  0  0
 11 12  2  0  0  0
 11 20  1  0  0  0
 12 13  1  0  0  0
 12 32  1  0  0  0
 13 14  2  0  0  0
 13 33  1  0  0  0
 14 15  1  0  0  0
 15 16  1  0  0  0
 15 20  2  0  0  0
 16 17  1  0  0  0
 16 34  1  0  0  0
 17 18  2  0  0  0
 17 19  1  0  0  0
 19 35  1  0  0  0
 19 36  1  0  0  0
 20 37  1  0  0  0
M  END
> <s_m_entry_id>
9713

> <s_m_entry_name>
dock_pv.153

> <s_m_Source_Path>
/home/csk/Desktop/cluster/DUD-E-result/mcr

> <s_m_Source_File>
dock_pv.maegz

> <i_m_Source_File_Index>
153

> <chembl_id>
CHEMBL3643684

> <chembl_pref_name>
None

> <i_lp_mmshare_version>
53161

> <i_f3d_flags>
0

> <r_lp_tautomer_probability>
1

> <s_lp_Force_Field>
OPLS_2005

> <r_lp_Energy>
10.069291

> <b_lp_Chiralities_Consistent>
1

> <s_lp_Variant>
CHEMBL1994_lig819-1

> <s_i_glide_gridfile>
glide-grid_2aa2

> <i_i_glide_lignum>
1245

> <i_i_glide_rotatable_bonds>
6

> <r_i_docking_score>
-7.97627907454449

> <r_i_glide_ligand_efficiency>
-0.398813953727225

> <r_i_glide_ligand_efficiency_sa>
-1.08254762066004

> <r_i_glide_ligand_efficiency_ln>
-1.99619957706776

> <r_i_glide_gscore>
-7.97627907454449

> <r_i_glide_lipo>
-3.95412687455145

> <r_i_glide_hbond>
-0.417773873636179

> <r_i_glide_metal>
0

> <r_i_glide_rewards>
-1.8880668618898

> <r_i_glide_evdw>
-38.2005805969238

> <r_i_glide_ecoul>
-5.19370269775391

> <r_i_glide_erotb>
0.972772970042217

> <r_i_glide_esite>
0

> <r_i_glide_emodel>
-58.9989313499486

> <r_i_glide_energy>
-43.3942832946777

> <r_i_glide_einternal>
4.58789920806885

> <i_i_glide_confnum>
7

> <i_i_glide_posenum>
215

> <r_i_glide_eff_state_penalty>
0

> <s_user_duplicate_titles>
CHEMBL1994_lig819

> <s_m_subgroup_title>
dock_pv

> <s_m_subgroupid>
dock_pv

> <b_m_subgroup_collapsed>
1

$$$$
CHEMBL1994_lig44
                    3D
 Schrodinger Suite 2021-1.
 38 40  0  0  1  0            999 V2000
   18.7159   74.4095   20.8817 C   0  0  0  0  0  0
   19.2700   73.4421   19.8903 C   0  0  0  0  0  0
   20.6630   73.3704   19.7839 C   0  0  0  0  0  0
   17.2040   74.4924   21.1113 C   0  0  0  0  0  0
   21.4978   74.1811   20.5313 O   0  0  0  0  0  0
   21.0134   75.1363   21.3929 C   0  0  0  0  0  0
   19.5686   75.1946   21.5760 C   0  0  0  0  0  0
   20.5026   71.5907   18.1615 C   0  0  0  0  0  0
   19.1009   71.6098   18.2754 C   0  0  0  0  0  0
   18.5078   72.5805   19.0951 C   0  0  0  0  0  0
   21.2732   72.4583   18.9269 C   0  0  0  0  0  0
   21.1829   70.6732   17.3391 N   0  0  0  0  0  0
   21.8410   75.8599   21.9273 O   0  0  0  0  0  0
   18.2450   70.5393   17.6156 C   0  0  1  0  0  0
   16.9134   75.2142   22.1953 F   0  0  0  0  0  0
   16.6414   75.0861   20.0701 F   0  0  0  0  0  0
   16.6817   73.2772   21.2695 F   0  0  0  0  0  0
   20.5029   69.5567   16.6920 C   0  0  0  0  0  0
   19.0176   69.8337   16.4680 C   0  0  0  0  0  0
   17.5954   69.5866   18.6595 C   0  0  0  0  0  0
   18.5301   68.9594   19.7194 C   0  0  0  0  0  0
   18.8987   69.8434   20.9306 C   0  0  0  0  0  0
   19.1814   75.9011   22.2946 H   0  0  0  0  0  0
   17.4370   72.5906   19.1611 H   0  0  0  0  0  0
   22.3486   72.4023   18.8762 H   0  0  0  0  0  0
   22.1858   70.5844   17.4107 H   0  0  0  0  0  0
   17.4179   71.0615   17.1334 H   0  0  0  0  0  0
   20.6393   68.6661   17.2700 H   0  0  0  0  0  0
   21.0222   69.4045   15.7458 H   0  0  0  0  0  0
   18.5069   68.9238   16.1504 H   0  0  0  0  0  0
   19.0410   70.4739   15.5990 H   0  0  0  0  0  0
   17.0874   68.7827   18.1241 H   0  0  0  0  0  0
   16.7962   70.1185   19.1787 H   0  0  0  0  0  0
   19.4401   68.6662   19.2359 H   0  0  0  0  0  0
   18.0946   68.0239   20.0703 H   0  0  0  0  0  0
   19.4662   69.2829   21.6697 H   0  0  0  0  0  0
   18.0218   70.2623   21.4240 H   0  0  0  0  0  0
   19.5527   70.6673   20.6632 H   0  0  0  0  0  0
  1  2  1  0  0  0
  1  4  1  0  0  0
  1  7  2  0  0  0
  2  3  2  0  0  0
  2 10  1  0  0  0
  3 11  1  0  0  0
  3  5  1  0  0  0
  4 15  1  0  0  0
  4 16  1  0  0  0
  4 17  1  0  0  0
  5  6  1  0  0  0
  6  7  1  0  0  0
  6 13  2  0  0  0
  7 23  1  0  0  0
  8  9  1  0  0  0
  8 12  1  0  0  0
  8 11  2  0  0  0
  9 10  2  0  0  0
  9 14  1  0  0  0
 10 24  1  0  0  0
 11 25  1  0  0  0
 12 18  1  0  0  0
 12 26  1  0  0  0
 14 19  1  0  0  0
 14 20  1  0  0  0
 14 27  1  0  0  0
 18 19  1  0  0  0
 18 28  1  0  0  0
 18 29  1  0  0  0
 19 30  1  0  0  0
 19 31  1  0  0  0
 20 21  1  0  0  0
 20 32  1  0  0  0
 20 33  1  0  0  0
 21 22  1  0  0  0
 21 34  1  0  0  0
 21 35  1  0  0  0
 22 36  1  0  0  0
 22 37  1  0  0  0
 22 38  1  0  0  0
M  END
> <s_m_entry_id>
9714

> <s_m_entry_name>
dock_pv.154

> <s_m_Source_Path>
/home/csk/Desktop/cluster/DUD-E-result/mcr

> <s_m_Source_File>
dock_pv.maegz

> <i_m_Source_File_Index>
154

> <chembl_id>
CHEMBL6855

> <chembl_pref_name>
None

> <i_lp_mmshare_version>
53161

> <i_f3d_flags>
0

> <r_lp_tautomer_probability>
1

> <s_lp_Force_Field>
OPLS_2005

> <r_lp_Energy>
18.351256

> <b_lp_Chiralities_Consistent>
1

> <s_lp_Variant>
CHEMBL1994_lig44-2

> <s_i_glide_gridfile>
glide-grid_2aa2

> <i_i_glide_lignum>
53

> <i_i_glide_rotatable_bonds>
3

> <r_i_docking_score>
-7.96386459623873

> <r_i_glide_ligand_efficiency>
-0.361993845283578

> <r_i_glide_ligand_efficiency_sa>
-1.01432099089467

> <r_i_glide_ligand_efficiency_ln>
-1.94665899633997

> <r_i_glide_gscore>
-7.96386459623873

> <r_i_glide_lipo>
-4.29102439065772

> <r_i_glide_hbond>
0

> <r_i_glide_metal>
0

> <r_i_glide_rewards>
-2.38110506630878

> <r_i_glide_evdw>
-31.2904968261719

> <r_i_glide_ecoul>
0.542924404144287

> <r_i_glide_erotb>
0.191351041414716

> <r_i_glide_esite>
0

> <r_i_glide_emodel>
-38.3171802183267

> <r_i_glide_energy>
-30.7475724220276

> <r_i_glide_einternal>
4.90500259399414

> <i_i_glide_confnum>
6

> <i_i_glide_posenum>
168

> <r_i_glide_eff_state_penalty>
0

> <s_user_duplicate_titles>
CHEMBL1994_lig44

> <s_m_subgroup_title>
dock_pv

> <s_m_subgroupid>
dock_pv

> <b_m_subgroup_collapsed>
1

$$$$
CHEMBL1994_lig263
                    3D
 Schrodinger Suite 2021-1.
 41 43  0  0  1  0            999 V2000
   18.9022   72.9376   19.4889 C   0  0  0  0  0  0
   18.1237   73.5225   20.4505 C   0  0  0  0  0  0
   19.3558   71.4565   19.5548 C   0  0  1  0  0  0
   18.8885   70.8172   20.8306 C   0  0  0  0  0  0
   17.7442   72.7652   21.5280 N   0  0  0  0  0  0
   18.1039   71.4670   21.7010 C   0  0  0  0  0  0
   18.6410   76.2620   23.6700 N   0  0  0  0  0  0
   18.9153   75.7742   22.4108 N   0  0  0  0  0  0
   17.7119   75.5250   21.8917 N   0  0  0  0  0  0
   17.2675   76.2905   23.9018 N   0  0  0  0  0  0
   18.9388   70.5712   18.3680 C   0  0  0  0  0  0
   19.3310   73.5532   18.2492 C   0  0  0  0  0  0
   17.5902   74.9562   20.5575 C   0  0  0  0  0  0
   16.7323   75.8550   22.7958 C   0  0  0  0  0  0
   19.8792   69.9313   17.5430 C   0  0  0  0  0  0
   19.0410   69.4103   20.8972 C   0  0  0  0  0  0
   19.0410   68.2620   20.8699 N   0  0  0  0  0  0
   19.4410   69.0169   16.5945 C   0  0  0  0  0  0
   17.5721   70.2959   18.2014 C   0  0  0  0  0  0
   20.2410   73.0620   17.5990 O   0  0  0  0  0  0
   18.0907   68.7179   16.4700 C   0  0  0  0  0  0
   21.5855   70.1945   17.6815 Cl  0  0  0  0  0  0
   17.1511   69.3547   17.2707 C   0  0  0  0  0  0
   18.6410   74.6249   17.8875 O   0  0  0  0  0  0
   17.6819   67.8620   15.5196 F   0  0  0  0  0  0
   17.4874   70.8230   22.8695 C   0  0  0  0  0  0
   18.6410   75.1564   16.5740 C   0  0  0  0  0  0
   20.4448   71.4618   19.6090 H   0  0  0  0  0  0
   17.2020   73.2013   22.2652 H   0  0  0  0  0  0
   18.1068   75.6467   19.9064 H   0  0  0  0  0  0
   16.5395   74.9735   20.2679 H   0  0  0  0  0  0
   15.6855   75.7068   22.5721 H   0  0  0  0  0  0
   20.1637   68.5164   15.9773 H   0  0  0  0  0  0
   16.8377   70.7695   18.8384 H   0  0  0  0  0  0
   16.1023   69.1219   17.1703 H   0  0  0  0  0  0
   18.2410   70.1703   23.2700 H   0  0  0  0  0  0
   17.1697   71.4620   23.6799 H   0  0  0  0  0  0
   16.6433   70.2630   22.4700 H   0  0  0  0  0  0
   18.3788   76.2135   16.5800 H   0  0  0  0  0  0
   19.5981   75.0620   16.0700 H   0  0  0  0  0  0
   17.8504   74.6620   16.0218 H   0  0  0  0  0  0
  1  2  2  0  0  0
  1  3  1  0  0  0
  1 12  1  0  0  0
  2  5  1  0  0  0
  2 13  1  0  0  0
  3  4  1  0  0  0
  3 11  1  0  0  0
  3 28  1  0  0  0
  4  6  2  0  0  0
  4 16  1  0  0  0
  5  6  1  0  0  0
  5 29  1  0  0  0
  6 26  1  0  0  0
  7  8  2  0  0  0
  7 10  1  0  0  0
  8  9  1  0  0  0
  9 13  1  0  0  0
  9 14  1  0  0  0
 10 14  2  0  0  0
 11 15  2  0  0  0
 11 19  1  0  0  0
 12 20  2  0  0  0
 12 24  1  0  0  0
 13 30  1  0  0  0
 13 31  1  0  0  0
 14 32  1  0  0  0
 15 18  1  0  0  0
 15 22  1  0  0  0
 16 17  3  0  0  0
 18 21  2  0  0  0
 18 33  1  0  0  0
 19 23  2  0  0  0
 19 34  1  0  0  0
 21 23  1  0  0  0
 21 25  1  0  0  0
 23 35  1  0  0  0
 24 27  1  0  0  0
 26 36  1  0  0  0
 26 37  1  0  0  0
 26 38  1  0  0  0
 27 39  1  0  0  0
 27 40  1  0  0  0
 27 41  1  0  0  0
M  END
> <s_m_entry_id>
9715

> <s_m_entry_name>
dock_pv.155

> <s_m_Source_Path>
/home/csk/Desktop/cluster/DUD-E-result/mcr

> <s_m_Source_File>
dock_pv.maegz

> <i_m_Source_File_Index>
155

> <chembl_id>
CHEMBL1215622

> <chembl_pref_name>
None

> <i_lp_mmshare_version>
53161

> <i_f3d_flags>
0

> <r_lp_tautomer_probability>
1

> <s_lp_Force_Field>
OPLS_2005

> <r_lp_Energy>
19.602465

> <b_lp_Chiralities_Consistent>
1

> <s_lp_Variant>
CHEMBL1994_lig263-2

> <s_i_glide_gridfile>
glide-grid_2aa2

> <i_i_glide_lignum>
447

> <i_i_glide_rotatable_bonds>
5

> <r_i_docking_score>
-7.92990377772784

> <r_i_glide_ligand_efficiency>
-0.293700139915846

> <r_i_glide_ligand_efficiency_sa>
-0.88110041877955

> <r_i_glide_ligand_efficiency_ln>
-1.84595086477379

> <r_i_glide_gscore>
-7.92990377772784

> <r_i_glide_lipo>
-3.50894472790377

> <r_i_glide_hbond>
-0.308863891247537

> <r_i_glide_metal>
0

> <r_i_glide_rewards>
-2.58323795049647

> <r_i_glide_evdw>
-23.2755641937256

> <r_i_glide_ecoul>
-5.37949419021606

> <r_i_glide_erotb>
0.515706243765901

> <r_i_glide_esite>
-0.0738611136272715

> <r_i_glide_emodel>
-42.4586323797282

> <r_i_glide_energy>
-28.6550583839417

> <r_i_glide_einternal>
5.48422908782959

> <i_i_glide_confnum>
12

> <i_i_glide_posenum>
197

> <r_i_glide_eff_state_penalty>
0

> <s_user_duplicate_titles>
CHEMBL1994_lig263,CHEMBL1994_lig264,687489,687488

> <s_m_subgroup_title>
dock_pv

> <s_m_subgroupid>
dock_pv

> <b_m_subgroup_collapsed>
1

$$$$
CHEMBL1994_lig111
                    3D
 Schrodinger Suite 2021-1.
 51 52  0  0  1  0            999 V2000
   19.0689   73.8003   21.9726 C   0  0  0  0  0  0
   18.1538   72.9618   21.0227 C   0  0  2  0  0  0
   16.7546   72.9978   21.2700 O   0  0  0  0  0  0
   18.5497   71.4623   21.2030 C   0  0  0  0  0  0
   18.1565   73.6224   19.6200 C   0  0  0  0  0  0
   19.8356   71.2141   20.9559 F   0  0  0  0  0  0
   18.3251   71.0620   22.4584 F   0  0  0  0  0  0
   17.8410   70.6522   20.4429 F   0  0  0  0  0  0
   19.2978   73.3864   18.6262 C   0  0  0  0  0  0
   19.4234   71.9388   18.1172 C   0  0  0  0  0  0
   18.9725   74.2746   17.4148 C   0  0  0  0  0  0
   20.6241   73.8620   19.2831 C   0  0  0  0  0  0
   19.9603   69.3855   17.1010 C   0  0  0  0  0  0
   20.9749   70.2170   17.5369 C   0  0  0  0  0  0
   20.7180   71.4663   17.9646 C   0  0  0  0  0  0
   18.6465   69.7949   17.2604 C   0  0  0  0  0  0
   18.3516   71.0620   17.8016 C   0  0  0  0  0  0
   17.0542   71.4444   18.0679 O   0  0  0  0  0  0
   16.0027   70.5060   17.8718 C   0  0  0  0  0  0
   22.2410   69.8620   17.6700 F   0  0  0  0  0  0
   18.4851   74.8223   22.8103 N   0  0  0  0  0  0
   17.4606   75.7429   22.2918 C   0  0  0  0  0  0
   17.0572   76.7612   23.3699 C   0  0  0  0  0  0
   16.7005   76.0571   24.5559 O   0  0  0  0  0  0
   17.8800   75.4461   25.0690 C   0  0  0  0  0  0
   18.3980   74.3471   24.1750 C   0  0  0  0  0  0
   19.6819   73.1359   22.5851 H   0  0  0  0  0  0
   19.8027   74.3922   21.4587 H   0  0  0  0  0  0
   16.5966   73.0620   22.2256 H   0  0  0  0  0  0
   18.1008   74.6981   19.7960 H   0  0  0  0  0  0
   17.2394   73.4883   19.0744 H   0  0  0  0  0  0
   18.6410   75.2700   17.6877 H   0  0  0  0  0  0
   19.8410   74.4269   16.8019 H   0  0  0  0  0  0
   18.1623   73.8620   16.8222 H   0  0  0  0  0  0
   20.5214   74.8572   19.6988 H   0  0  0  0  0  0
   20.9725   73.2055   20.0800 H   0  0  0  0  0  0
   21.4410   73.9365   18.5694 H   0  0  0  0  0  0
   20.1825   68.3933   16.7418 H   0  0  0  0  0  0
   21.6165   71.9995   18.2130 H   0  0  0  0  0  0
   17.8768   69.0894   16.9921 H   0  0  0  0  0  0
   15.0492   70.9801   18.0700 H   0  0  0  0  0  0
   15.9618   70.1646   16.8428 H   0  0  0  0  0  0
   16.0998   69.6413   18.5296 H   0  0  0  0  0  0
   17.8542   76.2508   21.4118 H   0  0  0  0  0  0
   16.5601   75.2253   21.9727 H   0  0  0  0  0  0
   16.2410   77.3826   23.0535 H   0  0  0  0  0  0
   17.8688   77.4700   23.5450 H   0  0  0  0  0  0
   17.8410   75.0620   26.0700 H   0  0  0  0  0  0
   18.6410   76.2012   25.0871 H   0  0  0  0  0  0
   17.8410   73.4208   24.2672 H   0  0  0  0  0  0
   19.4142   74.1026   24.4700 H   0  0  0  0  0  0
  1 21  1  0  0  0
  1  2  1  0  0  0
  1 27  1  0  0  0
  1 28  1  0  0  0
  2  4  1  0  0  0
  2  5  1  0  0  0
  2  3  1  0  0  0
  3 29  1  0  0  0
  4  7  1  0  0  0
  4  8  1  0  0  0
  4  6  1  0  0  0
  5  9  1  0  0  0
  5 30  1  0  0  0
  5 31  1  0  0  0
  9 10  1  0  0  0
  9 11  1  0  0  0
  9 12  1  0  0  0
 10 15  1  0  0  0
 10 17  2  0  0  0
 11 32  1  0  0  0
 11 33  1  0  0  0
 11 34  1  0  0  0
 12 35  1  0  0  0
 12 36  1  0  0  0
 12 37  1  0  0  0
 13 16  2  0  0  0
 13 14  1  0  0  0
 13 38  1  0  0  0
 14 15  2  0  0  0
 14 20  1  0  0  0
 15 39  1  0  0  0
 16 17  1  0  0  0
 16 40  1  0  0  0
 17 18  1  0  0  0
 18 19  1  0  0  0
 19 41  1  0  0  0
 19 42  1  0  0  0
 19 43  1  0  0  0
 21 22  1  0  0  0
 21 26  1  0  0  0
 22 23  1  0  0  0
 22 44  1  0  0  0
 22 45  1  0  0  0
 23 24  1  0  0  0
 23 46  1  0  0  0
 23 47  1  0  0  0
 24 25  1  0  0  0
 25 26  1  0  0  0
 25 48  1  0  0  0
 25 49  1  0  0  0
 26 50  1  0  0  0
 26 51  1  0  0  0
M  END
> <s_m_entry_id>
9717

> <s_m_entry_name>
dock_pv.157

> <s_m_Source_Path>
/home/csk/Desktop/cluster/DUD-E-result/mcr

> <s_m_Source_File>
dock_pv.maegz

> <i_m_Source_File_Index>
157

> <chembl_id>
CHEMBL219205

> <chembl_pref_name>
None

> <i_lp_mmshare_version>
53161

> <i_f3d_flags>
0

> <r_lp_tautomer_probability>
1

> <s_lp_Force_Field>
OPLS_2005

> <r_lp_Energy>
56.01355

> <b_lp_Chiralities_Consistent>
1

> <s_lp_Variant>
CHEMBL1994_lig111-2

> <s_i_glide_gridfile>
glide-grid_2aa2

> <i_i_glide_lignum>
175

> <i_i_glide_rotatable_bonds>
8

> <r_i_docking_score>
-7.90361011394498

> <r_i_glide_ligand_efficiency>
-0.303985004382499

> <r_i_glide_ligand_efficiency_sa>
-0.90055437935992

> <r_i_glide_ligand_efficiency_ln>
-1.85613690139993

> <r_i_glide_gscore>
-7.90361011394498

> <r_i_glide_lipo>
-3.90473705060006

> <r_i_glide_hbond>
-0.608

> <r_i_glide_metal>
0

> <r_i_glide_rewards>
-2.33295755336749

> <r_i_glide_evdw>
-11.9876327514648

> <r_i_glide_ecoul>
-6.649094581604

> <r_i_glide_erotb>
0.538830314836407

> <r_i_glide_esite>
0

> <r_i_glide_emodel>
-35.6754376723412

> <r_i_glide_energy>
-18.6367273330688

> <r_i_glide_einternal>
12.8565464019775

> <i_i_glide_confnum>
113

> <i_i_glide_posenum>
235

> <r_i_glide_eff_state_penalty>
0

> <s_user_duplicate_titles>
CHEMBL1994_lig111

> <s_m_subgroup_title>
dock_pv

> <s_m_subgroupid>
dock_pv

> <b_m_subgroup_collapsed>
1

$$$$
CHEMBL1994_lig827
                    3D
 Schrodinger Suite 2021-1.
 37 39  0  0  1  0            999 V2000
   21.7118   73.9708   20.4700 C   0  0  0  0  0  0
   21.2628   72.8254   19.6706 N   0  0  0  0  0  0
   22.0217   72.0301   18.8707 C   0  0  0  0  0  0
   21.3998   71.0340   18.3355 N   0  0  0  0  0  0
   20.1438   71.1884   18.7071 C   0  0  0  0  0  0
   19.1047   70.3028   18.1377 C   0  0  0  0  0  0
   19.4587   69.4408   17.0929 C   0  0  0  0  0  0
   18.4945   68.6812   16.4710 C   0  0  0  0  0  0
   17.1792   68.8291   16.8690 C   0  0  0  0  0  0
   16.2425   68.2628   16.1189 F   0  0  0  0  0  0
   16.8081   69.6227   17.9443 C   0  0  0  0  0  0
   17.7847   70.3585   18.5932 C   0  0  0  0  0  0
   20.0066   72.3037   19.5366 C   0  0  0  0  0  0
   18.8854   73.0354   20.1098 C   0  0  0  0  0  0
   18.1738   73.8825   19.2695 C   0  0  0  0  0  0
   17.4150   74.8860   19.8643 C   0  0  0  0  0  0
   17.3433   75.0654   21.1984 N   0  0  0  0  0  0
   18.0587   74.2228   21.9939 C   0  0  0  0  0  0
   18.2408   74.4693   23.3477 N   0  0  0  0  0  0
   17.8403   75.5458   24.0263 C   0  0  0  0  0  0
   17.2283   76.5246   23.6069 O   0  0  0  0  0  0
   18.2409   75.4620   25.2701 N   0  0  0  0  0  0
   18.7709   73.1416   21.4913 C   0  0  0  0  0  0
   22.6410   73.7244   20.9688 H   0  0  0  0  0  0
   21.8399   74.8366   19.8226 H   0  0  0  0  0  0
   20.9967   74.2458   21.2383 H   0  0  0  0  0  0
   23.0425   72.2620   18.7258 H   0  0  0  0  0  0
   20.4733   69.3688   16.7282 H   0  0  0  0  0  0
   18.7550   68.0499   15.6369 H   0  0  0  0  0  0
   15.7727   69.7021   18.2390 H   0  0  0  0  0  0
   17.4921   70.9951   19.4132 H   0  0  0  0  0  0
   18.2844   73.8339   18.1950 H   0  0  0  0  0  0
   16.8858   75.6146   19.2709 H   0  0  0  0  0  0
   18.7601   73.7730   23.8556 H   0  0  0  0  0  0
   18.2166   76.3375   25.8089 H   0  0  0  0  0  0
   18.5597   74.6011   25.6860 H   0  0  0  0  0  0
   19.3830   72.5242   22.1349 H   0  0  0  0  0  0
  1  2  1  0  0  0
  1 24  1  0  0  0
  1 25  1  0  0  0
  1 26  1  0  0  0
  2  3  1  0  0  0
  2 13  1  0  0  0
  3  4  2  0  0  0
  3 27  1  0  0  0
  4  5  1  0  0  0
  5  6  1  0  0  0
  5 13  2  0  0  0
  6  7  2  0  0  0
  6 12  1  0  0  0
  7  8  1  0  0  0
  7 28  1  0  0  0
  8  9  2  0  0  0
  8 29  1  0  0  0
  9 10  1  0  0  0
  9 11  1  0  0  0
 11 12  2  0  0  0
 11 30  1  0  0  0
 12 31  1  0  0  0
 13 14  1  0  0  0
 14 15  2  0  0  0
 14 23  1  0  0  0
 15 16  1  0  0  0
 15 32  1  0  0  0
 16 17  2  0  0  0
 16 33  1  0  0  0
 17 18  1  0  0  0
 18 19  1  0  0  0
 18 23  2  0  0  0
 19 20  1  0  0  0
 19 34  1  0  0  0
 20 21  2  0  0  0
 20 22  1  0  0  0
 22 35  1  0  0  0
 22 36  1  0  0  0
 23 37  1  0  0  0
M  END
> <s_m_entry_id>
9718

> <s_m_entry_name>
dock_pv.158

> <s_m_Source_Path>
/home/csk/Desktop/cluster/DUD-E-result/mcr

> <s_m_Source_File>
dock_pv.maegz

> <i_m_Source_File_Index>
158

> <chembl_id>
CHEMBL3643692

> <chembl_pref_name>
None

> <i_lp_mmshare_version>
53161

> <i_f3d_flags>
0

> <r_lp_tautomer_probability>
1

> <s_lp_Force_Field>
OPLS_2005

> <r_lp_Energy>
10.14471

> <b_lp_Chiralities_Consistent>
1

> <s_lp_Variant>
CHEMBL1994_lig827-1

> <s_i_glide_gridfile>
glide-grid_2aa2

> <i_i_glide_lignum>
1253

> <i_i_glide_rotatable_bonds>
4

> <r_i_docking_score>
-7.90206998962096

> <r_i_glide_ligand_efficiency>
-0.343568260418303

> <r_i_glide_ligand_efficiency_sa>
-0.977062430107464

> <r_i_glide_ligand_efficiency_ln>
-1.91079217549953

> <r_i_glide_gscore>
-7.90206998962096

> <r_i_glide_lipo>
-3.3971309584653

> <r_i_glide_hbond>
-0.280538854811494

> <r_i_glide_metal>
0

> <r_i_glide_rewards>
-2.65095064919394

> <r_i_glide_evdw>
-21.838472366333

> <r_i_glide_ecoul>
-6.83982610702515

> <r_i_glide_erotb>
0.574005457327957

> <r_i_glide_esite>
-0.0295574501077657

> <r_i_glide_emodel>
-27.8543340195283

> <r_i_glide_energy>
-28.6782984733582

> <r_i_glide_einternal>
8.08114910125732

> <i_i_glide_confnum>
6

> <i_i_glide_posenum>
215

> <r_i_glide_eff_state_penalty>
0

> <s_user_duplicate_titles>
CHEMBL1994_lig827

> <s_m_subgroup_title>
dock_pv

> <s_m_subgroupid>
dock_pv

> <b_m_subgroup_collapsed>
1

$$$$
CHEMBL1994_lig1050
                    3D
 Schrodinger Suite 2021-1.
 50 53  0  0  1  0            999 V2000
   18.9825   74.2621   19.2264 C   0  0  0  0  0  0
   19.4954   73.0816   18.7115 C   0  0  0  0  0  0
   20.6891   72.5699   19.2240 C   0  0  0  0  0  0
   21.4404   73.3535   20.1104 C   0  0  0  0  0  0
   20.9248   74.5394   20.6107 C   0  0  0  0  0  0
   19.6637   74.9492   20.2265 C   0  0  0  0  0  0
   21.1153   71.1370   18.9486 C   0  0  0  0  0  0
   20.1002   70.2442   18.2060 C   0  0  0  0  0  0
   20.4375   69.8621   16.8700 C   0  0  0  0  0  0
   19.5220   69.1031   16.2096 N   0  0  0  0  0  0
   18.2935   68.6985   16.6193 C   0  0  0  0  0  0
   18.0512   69.0122   17.9168 N   0  0  0  0  0  0
   18.9021   69.8101   18.6458 C   0  0  0  0  0  0
   17.4558   68.2615   15.8369 O   0  0  0  0  0  0
   21.4410   70.2619   16.3486 O   0  0  0  0  0  0
   18.3254   70.2278   19.7906 N   0  0  0  0  0  0
   17.0473   70.9145   19.7206 C   0  0  0  0  0  0
   16.9266   72.1279   20.6185 C   0  0  0  0  0  0
   18.8575   69.9327   21.1107 C   0  0  0  0  0  0
   19.0411   71.2418   21.8680 C   0  0  0  0  0  0
   17.7866   72.1400   21.8706 C   0  0  0  0  0  0
   17.9648   73.5264   22.4708 C   0  0  0  0  0  0
   18.6440   73.5877   23.6704 C   0  0  0  0  0  0
   18.6045   74.7324   24.4300 C   0  0  0  0  0  0
   17.9624   75.8638   23.9471 C   0  0  0  0  0  0
   17.2720   75.8214   22.7576 C   0  0  0  0  0  0
   17.2737   74.6617   22.0057 C   0  0  0  0  0  0
   21.8407   75.5261   21.6699 Cl  0  0  0  0  0  0
   18.0387   74.6487   18.8749 H   0  0  0  0  0  0
   18.9113   72.5387   17.9855 H   0  0  0  0  0  0
   22.4074   73.0468   20.4702 H   0  0  0  0  0  0
   19.2558   75.8644   20.6264 H   0  0  0  0  0  0
   22.0964   71.1677   18.4712 H   0  0  0  0  0  0
   21.2976   70.6462   19.8993 H   0  0  0  0  0  0
   19.7506   68.9063   15.2494 H   0  0  0  0  0  0
   17.2131   68.6379   18.3328 H   0  0  0  0  0  0
   16.9703   71.3191   18.7085 H   0  0  0  0  0  0
   16.2411   70.2355   19.6696 H   0  0  0  0  0  0
   17.0738   72.9924   20.0019 H   0  0  0  0  0  0
   15.8985   72.2585   20.9426 H   0  0  0  0  0  0
   18.2413   69.1760   21.5782 H   0  0  0  0  0  0
   19.8295   69.4524   20.9937 H   0  0  0  0  0  0
   19.2996   70.9356   22.8701 H   0  0  0  0  0  0
   19.8962   71.7903   21.5030 H   0  0  0  0  0  0
   17.1907   71.6581   22.6490 H   0  0  0  0  0  0
   19.1248   72.7123   24.0705 H   0  0  0  0  0  0
   19.0408   74.6687   25.4094 H   0  0  0  0  0  0
   17.9403   76.7961   24.4702 H   0  0  0  0  0  0
   16.6783   76.6619   22.4700 H   0  0  0  0  0  0
   16.6527   74.6561   21.1258 H   0  0  0  0  0  0
  1  2  2  0  0  0
  1  6  1  0  0  0
  1 29  1  0  0  0
  2  3  1  0  0  0
  2 30  1  0  0  0
  3  7  1  0  0  0
  3  4  2  0  0  0
  4  5  1  0  0  0
  4 31  1  0  0  0
  5  6  2  0  0  0
  5 28  1  0  0  0
  6 32  1  0  0  0
  7  8  1  0  0  0
  7 33  1  0  0  0
  7 34  1  0  0  0
  8  9  1  0  0  0
  8 13  2  0  0  0
  9 15  2  0  0  0
  9 10  1  0  0  0
 10 11  1  0  0  0
 10 35  1  0  0  0
 11 14  2  0  0  0
 11 12  1  0  0  0
 12 13  1  0  0  0
 12 36  1  0  0  0
 13 16  1  0  0  0
 16 17  1  0  0  0
 16 19  1  0  0  0
 17 18  1  0  0  0
 17 37  1  0  0  0
 17 38  1  0  0  0
 18 21  1  0  0  0
 18 39  1  0  0  0
 18 40  1  0  0  0
 19 20  1  0  0  0
 19 41  1  0  0  0
 19 42  1  0  0  0
 20 21  1  0  0  0
 20 43  1  0  0  0
 20 44  1  0  0  0
 21 22  1  0  0  0
 21 45  1  0  0  0
 22 23  2  0  0  0
 22 27  1  0  0  0
 23 24  1  0  0  0
 23 46  1  0  0  0
 24 25  2  0  0  0
 24 47  1  0  0  0
 25 26  1  0  0  0
 25 48  1  0  0  0
 26 27  2  0  0  0
 26 49  1  0  0  0
 27 50  1  0  0  0
M  END
> <s_m_entry_id>
9719

> <s_m_entry_name>
dock_pv.159

> <s_m_Source_Path>
/home/csk/Desktop/cluster/DUD-E-result/mcr

> <s_m_Source_File>
dock_pv.maegz

> <i_m_Source_File_Index>
159

> <chembl_id>
CHEMBL230989

> <chembl_pref_name>
None

> <i_lp_mmshare_version>
53161

> <i_f3d_flags>
0

> <r_lp_tautomer_probability>
0.983149644547051

> <s_lp_Force_Field>
OPLS_2005

> <r_lp_Energy>
28.223006

> <b_lp_Chiralities_Consistent>
1

> <s_lp_Variant>
CHEMBL1994_lig1050-1

> <s_i_glide_gridfile>
glide-grid_2aa2

> <i_i_glide_lignum>
1522

> <i_i_glide_rotatable_bonds>
4

> <r_i_docking_score>
-7.90201568012002

> <r_i_glide_ligand_efficiency>
-0.282214845718572

> <r_i_glide_ligand_efficiency_sa>
-0.856970487256741

> <r_i_glide_ligand_efficiency_ln>
-1.82401723223368

> <r_i_glide_gscore>
-7.90201568012002

> <r_i_glide_lipo>
-4.417006032388

> <r_i_glide_hbond>
-0.32

> <r_i_glide_metal>
0

> <r_i_glide_rewards>
-2.32265281653566

> <r_i_glide_evdw>
-13.3583850860596

> <r_i_glide_ecoul>
-4.49097871780396

> <r_i_glide_erotb>
0.499209230777211

> <r_i_glide_esite>
0

> <r_i_glide_emodel>
-40.7747534023868

> <r_i_glide_energy>
-17.8493638038635

> <r_i_glide_einternal>
5.90070867538452

> <i_i_glide_confnum>
119

> <i_i_glide_posenum>
135

> <r_i_glide_eff_state_penalty>
0

> <s_user_duplicate_titles>
CHEMBL1994_lig1050,385732

> <s_m_subgroup_title>
dock_pv

> <s_m_subgroupid>
dock_pv

> <b_m_subgroup_collapsed>
1

$$$$
CHEMBL1994_lig40
                    3D
 Schrodinger Suite 2021-1.
 41 43  0  0  1  0            999 V2000
   20.0794   70.2834   18.2651 C   0  0  0  0  0  0
   19.3982   71.0341   19.3268 C   0  0  0  0  0  0
   18.0175   70.9011   19.3792 C   0  0  0  0  0  0
   21.5535   70.5729   18.0348 C   0  0  0  0  0  0
   19.2888   72.9226   20.8753 C   0  0  0  0  0  0
   17.8931   72.8620   20.7595 C   0  0  0  0  0  0
   17.3144   69.9706   18.6302 O   0  0  0  0  0  0
   17.9078   69.3144   17.5767 C   0  0  0  0  0  0
   20.0195   71.9568   20.1765 C   0  0  0  0  0  0
   19.3556   69.4905   17.4325 C   0  0  0  0  0  0
   17.0412   73.8409   21.2700 N   0  0  0  0  0  0
   17.2920   71.7807   20.1448 C   0  0  0  0  0  0
   19.9904   74.0337   21.6592 C   0  0  2  0  0  0
   17.5358   74.6639   22.3475 C   0  0  0  0  0  0
   17.1648   68.6626   16.8471 O   0  0  0  0  0  0
   18.9915   75.1233   22.1452 C   0  0  1  0  0  0
   21.8406   71.8674   18.1463 F   0  0  0  0  0  0
   22.3022   69.8627   18.8696 F   0  0  0  0  0  0
   21.8393   70.2622   16.7978 F   0  0  0  0  0  0
   21.2111   74.5805   20.8501 C   0  0  0  0  0  0
   19.4299   75.6874   23.5060 C   0  0  0  0  0  0
   21.8279   75.9213   21.2665 C   0  0  0  0  0  0
   18.6387   76.9371   23.8824 C   0  0  0  0  0  0
   21.0913   71.9923   20.2453 H   0  0  0  0  0  0
   19.8481   68.9796   16.6184 H   0  0  0  0  0  0
   16.0660   73.6046   21.3870 H   0  0  0  0  0  0
   16.2410   71.6883   20.1530 H   0  0  0  0  0  0
   20.3642   73.5405   22.5541 H   0  0  0  0  0  0
   17.4459   74.1362   23.2932 H   0  0  0  0  0  0
   16.8611   75.5136   22.4575 H   0  0  0  0  0  0
   18.9675   75.9295   21.4091 H   0  0  0  0  0  0
   22.0161   73.8450   20.8719 H   0  0  0  0  0  0
   20.9246   74.6614   19.8016 H   0  0  0  0  0  0
   20.4979   75.8741   23.5382 H   0  0  0  0  0  0
   19.2844   74.9283   24.2786 H   0  0  0  0  0  0
   22.6426   76.1813   20.5958 H   0  0  0  0  0  0
   21.1072   76.7349   21.2140 H   0  0  0  0  0  0
   22.2411   75.8810   22.2695 H   0  0  0  0  0  0
   19.2647   77.6266   24.4458 H   0  0  0  0  0  0
   17.7625   76.6616   24.4687 H   0  0  0  0  0  0
   18.2534   77.4619   23.0137 H   0  0  0  0  0  0
  1  2  1  0  0  0
  1  4  1  0  0  0
  1 10  2  0  0  0
  2  3  2  0  0  0
  2  9  1  0  0  0
  3 12  1  0  0  0
  3  7  1  0  0  0
  4 17  1  0  0  0
  4 18  1  0  0  0
  4 19  1  0  0  0
  5  9  2  0  0  0
  5  6  1  0  0  0
  5 13  1  0  0  0
  6 11  1  0  0  0
  6 12  2  0  0  0
  7  8  1  0  0  0
  8 10  1  0  0  0
  8 15  2  0  0  0
  9 24  1  0  0  0
 10 25  1  0  0  0
 11 14  1  0  0  0
 11 26  1  0  0  0
 12 27  1  0  0  0
 13 16  1  0  0  0
 13 20  1  0  0  0
 13 28  1  0  0  0
 14 16  1  0  0  0
 14 29  1  0  0  0
 14 30  1  0  0  0
 16 21  1  0  0  0
 16 31  1  0  0  0
 20 22  1  0  0  0
 20 32  1  0  0  0
 20 33  1  0  0  0
 21 23  1  0  0  0
 21 34  1  0  0  0
 21 35  1  0  0  0
 22 36  1  0  0  0
 22 37  1  0  0  0
 22 38  1  0  0  0
 23 39  1  0  0  0
 23 40  1  0  0  0
 23 41  1  0  0  0
M  END
> <s_m_entry_id>
9720

> <s_m_entry_name>
dock_pv.160

> <s_m_Source_Path>
/home/csk/Desktop/cluster/DUD-E-result/mcr

> <s_m_Source_File>
dock_pv.maegz

> <i_m_Source_File_Index>
160

> <chembl_id>
CHEMBL2112310

> <chembl_pref_name>
None

> <i_lp_mmshare_version>
53161

> <i_f3d_flags>
0

> <r_lp_tautomer_probability>
1

> <s_lp_Force_Field>
OPLS_2005

> <r_lp_Energy>
23.136476

> <b_lp_Chiralities_Consistent>
1

> <s_lp_Variant>
CHEMBL1994_lig40-1

> <s_i_glide_gridfile>
glide-grid_2aa2

> <i_i_glide_lignum>
44

> <i_i_glide_rotatable_bonds>
3

> <r_i_docking_score>
-7.8976987376266

> <r_i_glide_ligand_efficiency>
-0.343378205983765

> <r_i_glide_ligand_efficiency_sa>
-0.976521940577273

> <r_i_glide_ligand_efficiency_ln>
-1.90973516713097

> <r_i_glide_gscore>
-7.8976987376266

> <r_i_glide_lipo>
-3.97321997805679

> <r_i_glide_hbond>
-0.00512728957439427

> <r_i_glide_metal>
0

> <r_i_glide_rewards>
-2.28363927744001

> <r_i_glide_evdw>
-26.6075630187988

> <r_i_glide_ecoul>
-1.91944098472595

> <r_i_glide_erotb>
0

> <r_i_glide_esite>
-0.0174178939065722

> <r_i_glide_emodel>
-21.8148275951445

> <r_i_glide_energy>
-28.5270040035248

> <r_i_glide_einternal>
13.9986114501953

> <i_i_glide_confnum>
1

> <i_i_glide_posenum>
204

> <r_i_glide_eff_state_penalty>
0

> <s_user_duplicate_titles>
CHEMBL1994_lig40

> <s_m_subgroup_title>
dock_pv

> <s_m_subgroupid>
dock_pv

> <b_m_subgroup_collapsed>
1

$$$$
CHEMBL1994_lig820
                    3D
 Schrodinger Suite 2021-1.
 33 34  0  0  1  0            999 V2000
   15.8410   69.0620   18.0701 N   0  0  0  0  0  0
   17.0965   69.2967   17.7365 C   0  0  0  0  0  0
   17.6553   68.6903   16.8253 O   0  0  0  0  0  0
   17.6100   70.2453   18.5303 N   0  0  0  0  0  0
   18.9109   70.7552   18.5519 C   0  0  0  0  0  0
   19.1609   71.7122   19.5376 C   0  0  0  0  0  0
   20.4339   72.2756   19.6281 C   0  0  0  0  0  0
   20.7132   73.3310   20.6849 C   0  0  0  0  0  0
   20.0025   74.6706   20.3971 C   0  0  0  0  0  0
   18.9420   75.0558   21.4191 C   0  0  0  0  0  0
   17.5861   75.0532   21.0708 C   0  0  0  0  0  0
   16.6264   75.4607   21.9964 C   0  0  0  0  0  0
   17.0124   75.8699   23.2706 C   0  0  0  0  0  0
   18.3562   75.8597   23.6272 C   0  0  0  0  0  0
   19.3208   75.4540   22.7064 C   0  0  0  0  0  0
   20.6262   75.4613   23.0590 F   0  0  0  0  0  0
   21.4260   71.8595   18.7332 C   0  0  0  0  0  0
   21.1039   70.8962   17.7770 C   0  0  0  0  0  0
   19.8706   70.3459   17.6734 N   0  0  0  0  0  0
   15.3745   69.5946   18.7949 H   0  0  0  0  0  0
   15.3513   68.3273   17.5874 H   0  0  0  0  0  0
   16.9909   70.6301   19.2242 H   0  0  0  0  0  0
   18.3853   72.0254   20.2230 H   0  0  0  0  0  0
   21.7905   73.4887   20.7685 H   0  0  0  0  0  0
   20.4048   72.9410   21.6550 H   0  0  0  0  0  0
   19.5505   74.6614   19.4037 H   0  0  0  0  0  0
   20.7387   75.4758   20.3845 H   0  0  0  0  0  0
   17.2745   74.7515   20.0820 H   0  0  0  0  0  0
   15.5802   75.4599   21.7287 H   0  0  0  0  0  0
   16.2711   76.1925   23.9839 H   0  0  0  0  0  0
   18.6411   76.1719   24.6181 H   0  0  0  0  0  0
   22.4261   72.2619   18.7784 H   0  0  0  0  0  0
   21.8414   70.5538   17.0664 H   0  0  0  0  0  0
  1  2  1  0  0  0
  1 20  1  0  0  0
  1 21  1  0  0  0
  2  3  2  0  0  0
  2  4  1  0  0  0
  4  5  1  0  0  0
  4 22  1  0  0  0
  5  6  2  0  0  0
  5 19  1  0  0  0
  6  7  1  0  0  0
  6 23  1  0  0  0
  7  8  1  0  0  0
  7 17  2  0  0  0
  8  9  1  0  0  0
  8 24  1  0  0  0
  8 25  1  0  0  0
  9 10  1  0  0  0
  9 26  1  0  0  0
  9 27  1  0  0  0
 10 11  2  0  0  0
 10 15  1  0  0  0
 11 12  1  0  0  0
 11 28  1  0  0  0
 12 13  2  0  0  0
 12 29  1  0  0  0
 13 14  1  0  0  0
 13 30  1  0  0  0
 14 15  2  0  0  0
 14 31  1  0  0  0
 15 16  1  0  0  0
 17 18  1  0  0  0
 17 32  1  0  0  0
 18 19  2  0  0  0
 18 33  1  0  0  0
M  END
> <s_m_entry_id>
9721

> <s_m_entry_name>
dock_pv.161

> <s_m_Source_Path>
/home/csk/Desktop/cluster/DUD-E-result/mcr

> <s_m_Source_File>
dock_pv.maegz

> <i_m_Source_File_Index>
161

> <chembl_id>
CHEMBL3643685

> <chembl_pref_name>
None

> <i_lp_mmshare_version>
53161

> <i_f3d_flags>
0

> <r_lp_tautomer_probability>
1

> <s_lp_Force_Field>
OPLS_2005

> <r_lp_Energy>
8.319478

> <b_lp_Chiralities_Consistent>
1

> <s_lp_Variant>
CHEMBL1994_lig820-1

> <s_i_glide_gridfile>
glide-grid_2aa2

> <i_i_glide_lignum>
1246

> <i_i_glide_rotatable_bonds>
5

> <r_i_docking_score>
-7.89191334080401

> <r_i_glide_ligand_efficiency>
-0.415363860042316

> <r_i_glide_ligand_efficiency_sa>
-1.1083576078686

> <r_i_glide_ligand_efficiency_ln>
-2.00076953465047

> <r_i_glide_gscore>
-7.89191334080401

> <r_i_glide_lipo>
-3.37095980952695

> <r_i_glide_hbond>
-0.32

> <r_i_glide_metal>
0

> <r_i_glide_rewards>
-2.98628857242269

> <r_i_glide_evdw>
-37.0842895507812

> <r_i_glide_ecoul>
-2.74985647201538

> <r_i_glide_erotb>
1.05202798948701

> <r_i_glide_esite>
0

> <r_i_glide_emodel>
-56.5292587330374

> <r_i_glide_energy>
-39.8341460227966

> <r_i_glide_einternal>
5.0000958442688

> <i_i_glide_confnum>
6

> <i_i_glide_posenum>
8

> <r_i_glide_eff_state_penalty>
0

> <s_user_duplicate_titles>
CHEMBL1994_lig820

> <s_m_subgroup_title>
dock_pv

> <s_m_subgroupid>
dock_pv

> <b_m_subgroup_collapsed>
1

$$$$
CHEMBL1994_lig804
                    3D
 Schrodinger Suite 2021-1.
 37 38  0  0  1  0            999 V2000
   15.8602   68.7536   18.1435 C   0  0  0  0  0  0
   16.4906   70.0129   18.0706 O   0  0  0  0  0  0
   17.8006   70.0356   17.6700 C   0  0  0  0  0  0
   18.4402   68.9924   16.9834 C   0  0  0  0  0  0
   19.7704   69.1172   16.6085 C   0  0  0  0  0  0
   20.4923   70.2558   16.9479 C   0  0  0  0  0  0
   19.8645   71.2928   17.6374 C   0  0  0  0  0  0
   20.6502   72.5233   18.0309 C   0  0  0  0  0  0
   21.2736   72.3767   19.4196 C   0  0  0  0  0  0
   20.2410   72.1322   20.5047 C   0  0  0  0  0  0
   19.7418   70.8466   20.7447 C   0  0  0  0  0  0
   18.7146   70.6971   21.6703 C   0  0  0  0  0  0
   18.2409   71.7259   22.4116 N   0  0  0  0  0  0
   18.7785   72.9569   22.2195 C   0  0  0  0  0  0
   18.2410   73.9539   23.0265 N   0  0  0  0  0  0
   18.7904   75.1158   23.3948 C   0  0  0  0  0  0
   19.9483   75.4620   23.1897 O   0  0  0  0  0  0
   17.9265   75.8620   24.0700 N   0  0  0  0  0  0
   19.7641   73.2037   21.2566 C   0  0  0  0  0  0
   18.5138   71.1879   17.9735 C   0  0  0  0  0  0
   14.8434   68.9199   18.4700 H   0  0  0  0  0  0
   15.8410   68.2620   17.1717 H   0  0  0  0  0  0
   16.3509   68.1042   18.8697 H   0  0  0  0  0  0
   17.9281   68.0787   16.7291 H   0  0  0  0  0  0
   20.2409   68.3149   16.0703 H   0  0  0  0  0  0
   21.5340   70.3320   16.6734 H   0  0  0  0  0  0
   21.4399   72.6621   17.2984 H   0  0  0  0  0  0
   20.0188   73.4118   17.9734 H   0  0  0  0  0  0
   21.9926   71.5597   19.3907 H   0  0  0  0  0  0
   21.8410   73.2691   19.6743 H   0  0  0  0  0  0
   20.0944   69.9971   20.1778 H   0  0  0  0  0  0
   18.2410   69.7417   21.8252 H   0  0  0  0  0  0
   17.3338   73.7225   23.4159 H   0  0  0  0  0  0
   18.2410   76.6821   24.5737 H   0  0  0  0  0  0
   16.9535   75.6091   24.0925 H   0  0  0  0  0  0
   20.1443   74.1986   21.0784 H   0  0  0  0  0  0
   18.0220   71.9899   18.5055 H   0  0  0  0  0  0
  1  2  1  0  0  0
  1 21  1  0  0  0
  1 22  1  0  0  0
  1 23  1  0  0  0
  2  3  1  0  0  0
  3  4  2  0  0  0
  3 20  1  0  0  0
  4  5  1  0  0  0
  4 24  1  0  0  0
  5  6  2  0  0  0
  5 25  1  0  0  0
  6  7  1  0  0  0
  6 26  1  0  0  0
  7  8  1  0  0  0
  7 20  2  0  0  0
  8  9  1  0  0  0
  8 27  1  0  0  0
  8 28  1  0  0  0
  9 10  1  0  0  0
  9 29  1  0  0  0
  9 30  1  0  0  0
 10 11  2  0  0  0
 10 19  1  0  0  0
 11 12  1  0  0  0
 11 31  1  0  0  0
 12 13  2  0  0  0
 12 32  1  0  0  0
 13 14  1  0  0  0
 14 15  1  0  0  0
 14 19  2  0  0  0
 15 16  1  0  0  0
 15 33  1  0  0  0
 16 17  2  0  0  0
 16 18  1  0  0  0
 18 34  1  0  0  0
 18 35  1  0  0  0
 19 36  1  0  0  0
 20 37  1  0  0  0
M  END
> <s_m_entry_id>
9722

> <s_m_entry_name>
dock_pv.162

> <s_m_Source_Path>
/home/csk/Desktop/cluster/DUD-E-result/mcr

> <s_m_Source_File>
dock_pv.maegz

> <i_m_Source_File_Index>
162

> <chembl_id>
CHEMBL3639425

> <chembl_pref_name>
None

> <i_lp_mmshare_version>
53161

> <i_f3d_flags>
0

> <r_lp_tautomer_probability>
1

> <s_lp_Force_Field>
OPLS_2005

> <r_lp_Energy>
10.004936

> <b_lp_Chiralities_Consistent>
1

> <s_lp_Variant>
CHEMBL1994_lig804-1

> <s_i_glide_gridfile>
glide-grid_2aa2

> <i_i_glide_lignum>
1220

> <i_i_glide_rotatable_bonds>
6

> <r_i_docking_score>
-7.88712358558641

> <r_i_glide_ligand_efficiency>
-0.394356179279321

> <r_i_glide_ligand_efficiency_sa>
-1.07044735917992

> <r_i_glide_ligand_efficiency_ln>
-1.97388689872638

> <r_i_glide_gscore>
-7.88712358558641

> <r_i_glide_lipo>
-3.58998966385544

> <r_i_glide_hbond>
-0.60235005744543

> <r_i_glide_metal>
0

> <r_i_glide_rewards>
-2.19267001281369

> <r_i_glide_evdw>
-31.7658843994141

> <r_i_glide_ecoul>
-5.67015933990479

> <r_i_glide_erotb>
0.972772970042217

> <r_i_glide_esite>
-0.0360687005576368

> <r_i_glide_emodel>
-54.1569038507753

> <r_i_glide_energy>
-37.4360437393188

> <r_i_glide_einternal>
5.64238739013672

> <i_i_glide_confnum>
53

> <i_i_glide_posenum>
46

> <r_i_glide_eff_state_penalty>
0

> <s_user_duplicate_titles>
CHEMBL1994_lig804

> <s_m_subgroup_title>
dock_pv

> <s_m_subgroupid>
dock_pv

> <b_m_subgroup_collapsed>
1

$$$$
CHEMBL1994_lig937 
                    3D
 Schrodinger Suite 2021-1.
 48 50  0  0  1  0            999 V2000
   18.0701   77.4137   23.6700 O   0  0  0  0  0  0
   17.2506   76.2089   23.7254 S   0  0  0  0  0  0
   15.8410   76.2627   24.0702 O   0  0  0  0  0  0
   20.8097   75.3592   21.1145 C   0  0  0  0  0  0
   19.5781   75.8626   21.5035 C   0  0  0  0  0  0
   18.4880   75.0211   21.6802 C   0  0  0  0  0  0
   20.9693   74.0142   20.7942 C   0  0  0  0  0  0
   19.5056   71.8662   20.5136 N   0  0  0  0  0  0
   19.8356   73.1759   20.8906 C   0  0  0  0  0  0
   18.6271   73.6674   21.4262 C   0  0  0  0  0  0
   17.8009   72.5364   21.6083 C   0  0  0  0  0  0
   18.3687   71.4851   21.1338 N   0  0  0  0  0  0
   17.2728   75.4620   22.1657 N   0  0  0  0  0  0
   18.0984   74.9376   24.8049 C   0  0  0  0  0  0
   20.1766   70.8717   19.6226 C   0  0  0  0  0  0
   19.3050   70.3047   18.4726 C   0  0  0  0  0  0
   21.4118   71.5449   18.9379 C   0  0  0  0  0  0
   20.5651   69.6629   20.5279 C   0  0  0  0  0  0
   19.9510   69.5381   17.4892 C   0  0  0  0  0  0
   19.2440   68.8641   16.5297 C   0  0  0  0  0  0
   17.8746   68.9660   16.5460 C   0  0  0  0  0  0
   17.1849   69.7309   17.4743 C   0  0  0  0  0  0
   17.9070   70.4370   18.4153 C   0  0  0  0  0  0
   17.0408   68.2620   15.2701 Cl  0  0  0  0  0  0
   19.4448   68.6605   20.8696 C   0  0  0  0  0  0
   21.0123   72.6619   17.9678 C   0  0  0  0  0  0
   21.6480   76.0349   21.0168 H   0  0  0  0  0  0
   19.4626   76.9225   21.6696 H   0  0  0  0  0  0
   21.9420   73.6982   20.4703 H   0  0  0  0  0  0
   16.8215   72.4755   22.0547 H   0  0  0  0  0  0
   16.4967   74.8287   22.0423 H   0  0  0  0  0  0
   18.2408   75.3720   25.7908 H   0  0  0  0  0  0
   17.4623   74.0579   24.8691 H   0  0  0  0  0  0
   19.0573   74.6740   24.3687 H   0  0  0  0  0  0
   22.1118   71.9096   19.6682 H   0  0  0  0  0  0
   22.0550   70.8389   18.4184 H   0  0  0  0  0  0
   21.3903   69.1284   20.0730 H   0  0  0  0  0  0
   20.9576   70.0040   21.4826 H   0  0  0  0  0  0
   21.0166   69.3878   17.4785 H   0  0  0  0  0  0
   19.7608   68.2698   15.7922 H   0  0  0  0  0  0
   16.1088   69.8195   17.4337 H   0  0  0  0  0  0
   17.3294   71.0480   19.0854 H   0  0  0  0  0  0
   19.8439   67.8581   21.4870 H   0  0  0  0  0  0
   18.6115   69.0974   21.4013 H   0  0  0  0  0  0
   19.0392   68.1734   19.9842 H   0  0  0  0  0  0
   21.8421   73.3418   17.7931 H   0  0  0  0  0  0
   20.7223   72.2541   16.9987 H   0  0  0  0  0  0
   20.1713   73.2689   18.3016 H   0  0  0  0  0  0
  1  2  2  0  0  0
  2  3  2  0  0  0
  2 13  1  0  0  0
  2 14  1  0  0  0
  4  5  2  0  0  0
  4  7  1  0  0  0
  4 27  1  0  0  0
  5  6  1  0  0  0
  5 28  1  0  0  0
  6 10  2  0  0  0
  6 13  1  0  0  0
  7  9  2  0  0  0
  7 29  1  0  0  0
  8  9  1  0  0  0
  8 12  1  0  0  0
  8 15  1  0  0  0
  9 10  1  0  0  0
 10 11  1  0  0  0
 11 12  2  0  0  0
 11 30  1  0  0  0
 13 31  1  0  0  0
 14 32  1  0  0  0
 14 33  1  0  0  0
 14 34  1  0  0  0
 15 16  1  0  0  0
 15 17  1  0  0  0
 15 18  1  0  0  0
 16 19  2  0  0  0
 16 23  1  0  0  0
 17 26  1  0  0  0
 17 35  1  0  0  0
 17 36  1  0  0  0
 18 25  1  0  0  0
 18 37  1  0  0  0
 18 38  1  0  0  0
 19 20  1  0  0  0
 19 39  1  0  0  0
 20 21  2  0  0  0
 20 40  1  0  0  0
 21 22  1  0  0  0
 21 24  1  0  0  0
 22 23  2  0  0  0
 22 41  1  0  0  0
 23 42  1  0  0  0
 25 43  1  0  0  0
 25 44  1  0  0  0
 25 45  1  0  0  0
 26 46  1  0  0  0
 26 47  1  0  0  0
 26 48  1  0  0  0
M  END
> <s_m_entry_id>
9723

> <s_m_entry_name>
dock_pv.163

> <s_m_Source_Path>
/home/csk/Desktop/cluster/DUD-E-result/mcr

> <s_m_Source_File>
dock_pv.maegz

> <i_m_Source_File_Index>
163

> <chembl_id>
CHEMBL4435726

> <chembl_pref_name>
None

> <i_lp_mmshare_version>
53161

> <i_f3d_flags>
0

> <r_lp_tautomer_probability>
1

> <s_lp_Force_Field>
OPLS_2005

> <r_lp_Energy>
22.390423

> <b_lp_Chiralities_Consistent>
1

> <s_lp_Variant>
CHEMBL1994_lig937 -1

> <s_i_glide_gridfile>
glide-grid_2aa2

> <i_i_glide_lignum>
1373

> <i_i_glide_rotatable_bonds>
6

> <r_i_docking_score>
-7.88702879068962

> <r_i_glide_ligand_efficiency>
-0.30334726118037

> <r_i_glide_ligand_efficiency_sa>
-0.898665067633011

> <r_i_glide_ligand_efficiency_ln>
-1.85224283204117

> <r_i_glide_gscore>
-7.88702879068962

> <r_i_glide_lipo>
-4.38365595522145

> <r_i_glide_hbond>
0

> <r_i_glide_metal>
0

> <r_i_glide_rewards>
-1.99471292390857

> <r_i_glide_evdw>
-12.4074764251709

> <r_i_glide_ecoul>
-7.99896907806396

> <r_i_glide_erotb>
0.381245066810376

> <r_i_glide_esite>
-0.069685795401839

> <r_i_glide_emodel>
-22.7059444037306

> <r_i_glide_energy>
-20.4064455032349

> <r_i_glide_einternal>
21.9396800994873

> <i_i_glide_confnum>
10

> <i_i_glide_posenum>
282

> <r_i_glide_eff_state_penalty>
0

> <s_user_duplicate_titles>
CHEMBL1994_lig937 

> <s_m_subgroup_title>
dock_pv

> <s_m_subgroupid>
dock_pv

> <b_m_subgroup_collapsed>
1

$$$$
CHEMBL1994_lig118
                    3D
 Schrodinger Suite 2021-1.
 45 46  0  0  1  0            999 V2000
   18.9122   69.5625   19.6580 C   0  0  0  0  0  0
   19.5306   70.9852   19.6316 C   0  0  1  0  0  0
   20.2409   70.9429   20.8342 O   0  0  0  0  0  0
   20.5848   71.1273   18.4562 C   0  0  0  0  0  0
   18.4534   72.1489   19.7235 C   0  0  0  0  0  0
   20.0066   71.3164   17.2716 F   0  0  0  0  0  0
   21.4406   72.1347   18.5982 F   0  0  0  0  0  0
   21.3612   70.0477   18.3432 F   0  0  0  0  0  0
   18.0826   72.8507   21.1125 C   0  0  0  0  0  0
   19.1864   73.8112   21.6607 C   0  0  0  0  0  0
   16.7928   73.6893   20.8724 C   0  0  0  0  0  0
   17.7321   71.7613   22.1706 C   0  0  0  0  0  0
   21.2469   75.4617   22.6002 C   0  0  0  0  0  0
   21.4365   74.7205   21.4704 C   0  0  0  0  0  0
   20.4022   73.9497   20.9731 C   0  0  0  0  0  0
   20.0274   75.4606   23.2378 C   0  0  0  0  0  0
   19.0094   74.6083   22.8243 C   0  0  0  0  0  0
   17.8410   74.5645   23.5393 O   0  0  0  0  0  0
   17.5954   75.4473   24.6313 C   0  0  0  0  0  0
   22.6266   74.7827   20.8702 F   0  0  0  0  0  0
   18.2410   69.2111   18.4179 N   0  0  0  0  0  0
   18.8030   68.7150   17.2688 C   0  0  0  0  0  0
   17.7841   68.6568   16.3493 C   0  0  0  0  0  0
   16.6405   69.0459   16.8707 N   0  0  0  0  0  0
   16.9209   69.3813   18.1023 C   0  0  0  0  0  0
   19.6536   68.7971   19.8694 H   0  0  0  0  0  0
   18.2406   69.4609   20.4982 H   0  0  0  0  0  0
   20.7968   71.7235   20.9064 H   0  0  0  0  0  0
   17.5258   71.7738   19.2933 H   0  0  0  0  0  0
   18.7332   72.9349   19.0206 H   0  0  0  0  0  0
   15.9076   73.0564   20.8701 H   0  0  0  0  0  0
   16.5718   74.4214   21.6422 H   0  0  0  0  0  0
   16.8472   74.2666   19.9484 H   0  0  0  0  0  0
   16.9073   71.1293   21.8398 H   0  0  0  0  0  0
   18.5482   71.1008   22.4443 H   0  0  0  0  0  0
   17.4438   72.1904   23.1198 H   0  0  0  0  0  0
   22.0336   76.1114   22.9478 H   0  0  0  0  0  0
   20.5786   73.4731   20.0403 H   0  0  0  0  0  0
   19.8891   76.1417   24.0587 H   0  0  0  0  0  0
   16.5967   75.2707   25.0154 H   0  0  0  0  0  0
   18.2833   75.2708   25.4575 H   0  0  0  0  0  0
   17.6422   76.4927   24.3240 H   0  0  0  0  0  0
   19.8539   68.4951   17.1898 H   0  0  0  0  0  0
   17.8695   68.3462   15.3196 H   0  0  0  0  0  0
   16.2398   69.7765   18.8404 H   0  0  0  0  0  0
  1  2  1  0  0  0
  1 21  1  0  0  0
  1 26  1  0  0  0
  1 27  1  0  0  0
  2  4  1  0  0  0
  2  5  1  0  0  0
  2  3  1  0  0  0
  3 28  1  0  0  0
  4  7  1  0  0  0
  4  8  1  0  0  0
  4  6  1  0  0  0
  5  9  1  0  0  0
  5 29  1  0  0  0
  5 30  1  0  0  0
  9 10  1  0  0  0
  9 11  1  0  0  0
  9 12  1  0  0  0
 10 15  1  0  0  0
 10 17  2  0  0  0
 11 31  1  0  0  0
 11 32  1  0  0  0
 11 33  1  0  0  0
 12 34  1  0  0  0
 12 35  1  0  0  0
 12 36  1  0  0  0
 13 16  2  0  0  0
 13 14  1  0  0  0
 13 37  1  0  0  0
 14 15  2  0  0  0
 14 20  1  0  0  0
 15 38  1  0  0  0
 16 17  1  0  0  0
 16 39  1  0  0  0
 17 18  1  0  0  0
 18 19  1  0  0  0
 19 40  1  0  0  0
 19 41  1  0  0  0
 19 42  1  0  0  0
 21 22  1  0  0  0
 21 25  1  0  0  0
 22 23  2  0  0  0
 22 43  1  0  0  0
 23 24  1  0  0  0
 23 44  1  0  0  0
 24 25  2  0  0  0
 25 45  1  0  0  0
M  END
> <s_m_entry_id>
9724

> <s_m_entry_name>
dock_pv.164

> <s_m_Source_Path>
/home/csk/Desktop/cluster/DUD-E-result/mcr

> <s_m_Source_File>
dock_pv.maegz

> <i_m_Source_File_Index>
164

> <chembl_id>
CHEMBL435753

> <chembl_pref_name>
None

> <i_lp_mmshare_version>
53161

> <i_f3d_flags>
0

> <r_lp_tautomer_probability>
1

> <s_lp_Force_Field>
OPLS_2005

> <r_lp_Energy>
31.532693

> <b_lp_Chiralities_Consistent>
1

> <s_lp_Variant>
CHEMBL1994_lig118-1

> <s_i_glide_gridfile>
glide-grid_2aa2

> <i_i_glide_lignum>
188

> <i_i_glide_rotatable_bonds>
8

> <r_i_docking_score>
-7.87717457613358

> <r_i_glide_ligand_efficiency>
-0.315086983045343

> <r_i_glide_ligand_efficiency_sa>
-0.921319926516022

> <r_i_glide_ligand_efficiency_ln>
-1.86712643441684

> <r_i_glide_gscore>
-7.87717457613358

> <r_i_glide_lipo>
-3.71052960028768

> <r_i_glide_hbond>
0

> <r_i_glide_metal>
0

> <r_i_glide_rewards>
-3.52180207438351

> <r_i_glide_evdw>
-25.9980449676514

> <r_i_glide_ecoul>
0.428573310375214

> <r_i_glide_erotb>
0.590773350363893

> <r_i_glide_esite>
0

> <r_i_glide_emodel>
-29.0658568670998

> <r_i_glide_energy>
-25.5694716572762

> <r_i_glide_einternal>
6.63902568817139

> <i_i_glide_confnum>
81

> <i_i_glide_posenum>
11

> <r_i_glide_eff_state_penalty>
0

> <s_user_duplicate_titles>
CHEMBL1994_lig118

> <s_m_subgroup_title>
dock_pv

> <s_m_subgroupid>
dock_pv

> <b_m_subgroup_collapsed>
1

$$$$
CHEMBL1994_lig801
                    3D
 Schrodinger Suite 2021-1.
 34 36  0  0  1  0            999 V2000
   19.0410   67.9777   16.2458 N   0  0  0  0  0  0
   19.2919   69.1707   16.7740 C   0  0  0  0  0  0
   20.3654   69.7409   16.6164 O   0  0  0  0  0  0
   18.2682   69.5862   17.5251 N   0  0  0  0  0  0
   18.2366   70.5969   18.4884 C   0  0  0  0  0  0
   19.2350   71.5566   18.7354 C   0  0  0  0  0  0
   19.1125   72.3600   19.8812 C   0  0  0  0  0  0
   18.0653   72.1248   20.7704 C   0  0  0  0  0  0
   17.0861   71.2288   20.4058 C   0  0  0  0  0  0
   17.1437   70.4945   19.2700 N   0  0  0  0  0  0
   20.0736   73.4428   20.1832 C   0  0  0  0  0  0
   21.4410   73.4620   20.0700 C   0  0  0  0  0  0
   21.8410   74.6776   20.6207 C   0  0  0  0  0  0
   20.8541   75.4647   20.8700 N   0  0  0  0  0  0
   19.7902   74.6659   20.7629 N   0  0  0  0  0  0
   18.6535   75.0708   21.4591 C   0  0  0  0  0  0
   17.4033   75.1117   20.8447 C   0  0  0  0  0  0
   16.3012   75.4620   21.6146 C   0  0  0  0  0  0
   16.4752   75.8620   22.9378 C   0  0  0  0  0  0
   15.4410   76.2620   23.6700 F   0  0  0  0  0  0
   17.7043   75.8019   23.5550 C   0  0  0  0  0  0
   18.7819   75.3515   22.8274 C   0  0  0  0  0  0
   20.2410   75.0620   23.6700 Cl  0  0  0  0  0  0
   18.3711   67.3754   16.7062 H   0  0  0  0  0  0
   19.8138   67.5628   15.7426 H   0  0  0  0  0  0
   17.4336   69.0233   17.4969 H   0  0  0  0  0  0
   20.0860   71.6767   18.0822 H   0  0  0  0  0  0
   17.9733   72.6415   21.7137 H   0  0  0  0  0  0
   16.2445   71.0633   21.0632 H   0  0  0  0  0  0
   22.0756   72.6620   19.7172 H   0  0  0  0  0  0
   22.8507   75.0077   20.8150 H   0  0  0  0  0  0
   17.2826   74.8503   19.8026 H   0  0  0  0  0  0
   15.3217   75.4620   21.1802 H   0  0  0  0  0  0
   17.8023   76.0488   24.6020 H   0  0  0  0  0  0
  1  2  1  0  0  0
  1 24  1  0  0  0
  1 25  1  0  0  0
  2  3  2  0  0  0
  2  4  1  0  0  0
  4  5  1  0  0  0
  4 26  1  0  0  0
  5  6  2  0  0  0
  5 10  1  0  0  0
  6  7  1  0  0  0
  6 27  1  0  0  0
  7  8  2  0  0  0
  7 11  1  0  0  0
  8  9  1  0  0  0
  8 28  1  0  0  0
  9 10  2  0  0  0
  9 29  1  0  0  0
 11 12  2  0  0  0
 11 15  1  0  0  0
 12 13  1  0  0  0
 12 30  1  0  0  0
 13 14  2  0  0  0
 13 31  1  0  0  0
 14 15  1  0  0  0
 15 16  1  0  0  0
 16 17  2  0  0  0
 16 22  1  0  0  0
 17 18  1  0  0  0
 17 32  1  0  0  0
 18 19  2  0  0  0
 18 33  1  0  0  0
 19 20  1  0  0  0
 19 21  1  0  0  0
 21 22  2  0  0  0
 21 34  1  0  0  0
 22 23  1  0  0  0
M  END
> <s_m_entry_id>
9725

> <s_m_entry_name>
dock_pv.165

> <s_m_Source_Path>
/home/csk/Desktop/cluster/DUD-E-result/mcr

> <s_m_Source_File>
dock_pv.maegz

> <i_m_Source_File_Index>
165

> <chembl_id>
CHEMBL3643667

> <chembl_pref_name>
None

> <i_lp_mmshare_version>
53161

> <i_f3d_flags>
0

> <r_lp_tautomer_probability>
1

> <s_lp_Force_Field>
OPLS_2005

> <r_lp_Energy>
14.394644

> <b_lp_Chiralities_Consistent>
1

> <s_lp_Variant>
CHEMBL1994_lig801-1

> <s_i_glide_gridfile>
glide-grid_2aa2

> <i_i_glide_lignum>
1217

> <i_i_glide_rotatable_bonds>
4

> <r_i_docking_score>
-7.86934940542954

> <r_i_glide_ligand_efficiency>
-0.342145626323024

> <r_i_glide_ligand_efficiency_sa>
-0.973016647983717

> <r_i_glide_ligand_efficiency_ln>
-1.90288004154819

> <r_i_glide_gscore>
-7.86934940542954

> <r_i_glide_lipo>
-3.48553580865829

> <r_i_glide_hbond>
-0.477692868854628

> <r_i_glide_metal>
0

> <r_i_glide_rewards>
-2.45260623718461

> <r_i_glide_evdw>
-19.8142528533936

> <r_i_glide_ecoul>
-6.2964072227478

> <r_i_glide_erotb>
0.513199347716209

> <r_i_glide_esite>
-0.0315401123663789

> <r_i_glide_emodel>
-25.316007054235

> <r_i_glide_energy>
-26.1106600761414

> <r_i_glide_einternal>
7.72012329101562

> <i_i_glide_confnum>
17

> <i_i_glide_posenum>
251

> <r_i_glide_eff_state_penalty>
0

> <s_user_duplicate_titles>
CHEMBL1994_lig801

> <s_m_subgroup_title>
dock_pv

> <s_m_subgroupid>
dock_pv

> <b_m_subgroup_collapsed>
1

$$$$
CHEMBL1994_lig805
                    3D
 Schrodinger Suite 2021-1.
 36 37  0  0  1  0            999 V2000
   16.2742   68.6620   17.7283 C   0  0  0  0  0  0
   17.5591   69.4201   17.9447 C   0  0  0  0  0  0
   17.6361   70.3128   19.0082 C   0  0  0  0  0  0
   18.7995   71.0329   19.2213 C   0  0  0  0  0  0
   19.8683   70.9078   18.3334 C   0  0  0  0  0  0
   21.0882   71.7972   18.4939 C   0  0  0  0  0  0
   20.7345   73.3006   18.5583 C   0  0  0  0  0  0
   20.4914   73.8491   19.9626 C   0  0  0  0  0  0
   21.5682   73.9580   20.8403 C   0  0  0  0  0  0
   21.3791   74.5650   22.0700 C   0  0  0  0  0  0
   20.1756   75.0052   22.4850 N   0  0  0  0  0  0
   19.1015   74.8720   21.6546 C   0  0  0  0  0  0
   17.8130   75.2944   22.0489 N   0  0  0  0  0  0
   17.4064   75.9421   23.1642 C   0  0  0  0  0  0
   16.2410   76.2620   23.3391 O   0  0  0  0  0  0
   18.3171   76.2620   24.0700 N   0  0  0  0  0  0
   19.2319   74.3061   20.3781 C   0  0  0  0  0  0
   19.7966   70.0019   17.2701 C   0  0  0  0  0  0
   18.6413   69.2491   17.0807 C   0  0  0  0  0  0
   15.4329   69.3384   17.8638 H   0  0  0  0  0  0
   16.2210   68.2620   16.7171 H   0  0  0  0  0  0
   16.1773   67.8620   18.4626 H   0  0  0  0  0  0
   16.7943   70.4526   19.6700 H   0  0  0  0  0  0
   18.8485   71.7059   20.0620 H   0  0  0  0  0  0
   21.6611   71.4834   19.3649 H   0  0  0  0  0  0
   21.7567   71.6352   17.6488 H   0  0  0  0  0  0
   21.5623   73.8620   18.1277 H   0  0  0  0  0  0
   19.8911   73.5288   17.9036 H   0  0  0  0  0  0
   22.5429   73.5837   20.5712 H   0  0  0  0  0  0
   22.2003   74.6619   22.7564 H   0  0  0  0  0  0
   17.0796   75.0959   21.3875 H   0  0  0  0  0  0
   18.0632   76.7746   24.9136 H   0  0  0  0  0  0
   19.2690   75.9652   23.9187 H   0  0  0  0  0  0
   18.3808   74.2316   19.7164 H   0  0  0  0  0  0
   20.6226   69.8906   16.5824 H   0  0  0  0  0  0
   18.5849   68.5543   16.2568 H   0  0  0  0  0  0
  1  2  1  0  0  0
  1 20  1  0  0  0
  1 21  1  0  0  0
  1 22  1  0  0  0
  2  3  2  0  0  0
  2 19  1  0  0  0
  3  4  1  0  0  0
  3 23  1  0  0  0
  4  5  2  0  0  0
  4 24  1  0  0  0
  5  6  1  0  0  0
  5 18  1  0  0  0
  6  7  1  0  0  0
  6 25  1  0  0  0
  6 26  1  0  0  0
  7  8  1  0  0  0
  7 27  1  0  0  0
  7 28  1  0  0  0
  8  9  2  0  0  0
  8 17  1  0  0  0
  9 10  1  0  0  0
  9 29  1  0  0  0
 10 11  2  0  0  0
 10 30  1  0  0  0
 11 12  1  0  0  0
 12 13  1  0  0  0
 12 17  2  0  0  0
 13 14  1  0  0  0
 13 31  1  0  0  0
 14 15  2  0  0  0
 14 16  1  0  0  0
 16 32  1  0  0  0
 16 33  1  0  0  0
 17 34  1  0  0  0
 18 19  2  0  0  0
 18 35  1  0  0  0
 19 36  1  0  0  0
M  END
> <s_m_entry_id>
9726

> <s_m_entry_name>
dock_pv.166

> <s_m_Source_Path>
/home/csk/Desktop/cluster/DUD-E-result/mcr

> <s_m_Source_File>
dock_pv.maegz

> <i_m_Source_File_Index>
166

> <chembl_id>
CHEMBL3643670

> <chembl_pref_name>
None

> <i_lp_mmshare_version>
53161

> <i_f3d_flags>
0

> <r_lp_tautomer_probability>
1

> <s_lp_Force_Field>
OPLS_2005

> <r_lp_Energy>
7.392839

> <b_lp_Chiralities_Consistent>
1

> <s_lp_Variant>
CHEMBL1994_lig805-1

> <s_i_glide_gridfile>
glide-grid_2aa2

> <i_i_glide_lignum>
1221

> <i_i_glide_rotatable_bonds>
5

> <r_i_docking_score>
-7.84100871810227

> <r_i_glide_ligand_efficiency>
-0.412684669373804

> <r_i_glide_ligand_efficiency_sa>
-1.10120845107852

> <r_i_glide_ligand_efficiency_ln>
-1.98786411946453

> <r_i_glide_gscore>
-7.84100871810227

> <r_i_glide_lipo>
-3.89632908818706

> <r_i_glide_hbond>
-0.392263185267917

> <r_i_glide_metal>
0

> <r_i_glide_rewards>
-2.19149664684167

> <r_i_glide_evdw>
-35.1399955749512

> <r_i_glide_ecoul>
-4.56133222579956

> <r_i_glide_erotb>
1.08027981481187

> <r_i_glide_esite>
0

> <r_i_glide_emodel>
-53.4759042364297

> <r_i_glide_energy>
-39.7013278007507

> <r_i_glide_einternal>
3.51431322097778

> <i_i_glide_confnum>
20

> <i_i_glide_posenum>
81

> <r_i_glide_eff_state_penalty>
0

> <s_user_duplicate_titles>
CHEMBL1994_lig805

> <s_m_subgroup_title>
dock_pv

> <s_m_subgroupid>
dock_pv

> <b_m_subgroup_collapsed>
1

$$$$
CHEMBL1994_lig44
                    3D
 Schrodinger Suite 2021-1.
 38 40  0  0  1  0            999 V2000
   19.9760   74.9077   21.5253 C   0  0  0  0  0  0
   19.3897   73.8748   20.6226 C   0  0  0  0  0  0
   18.0409   73.5861   20.8429 C   0  0  0  0  0  0
   21.4844   75.1596   21.5232 C   0  0  0  0  0  0
   17.2266   74.3407   21.6700 O   0  0  0  0  0  0
   17.7343   75.3114   22.4957 C   0  0  0  0  0  0
   19.1687   75.5491   22.4059 C   0  0  0  0  0  0
   18.1023   71.7755   19.2532 C   0  0  0  0  0  0
   19.4671   72.0136   19.0157 C   0  0  0  0  0  0
   20.0833   73.1054   19.6678 C   0  0  0  0  0  0
   17.4410   72.5128   20.2188 C   0  0  0  0  0  0
   17.3826   70.7267   18.6467 N   0  0  0  0  0  0
   16.9336   75.8906   23.2265 O   0  0  0  0  0  0
   20.2763   70.9982   18.2136 C   0  0  2  0  0  0
   22.1618   74.0181   21.5358 F   0  0  0  0  0  0
   21.8410   75.8620   20.4700 F   0  0  0  0  0  0
   21.8410   75.8620   22.5865 F   0  0  0  0  0  0
   18.0954   69.6059   18.0412 C   0  0  0  0  0  0
   19.3732   70.0957   17.3394 C   0  0  0  0  0  0
   21.2158   70.1902   19.1407 C   0  0  0  0  0  0
   20.6281   69.4620   20.3920 C   0  0  0  0  0  0
   19.9906   70.3135   21.4974 C   0  0  0  0  0  0
   19.5803   76.2620   23.0995 H   0  0  0  0  0  0
   21.1357   73.2755   19.4966 H   0  0  0  0  0  0
   16.4168   72.2793   20.4700 H   0  0  0  0  0  0
   16.4763   70.4822   19.0246 H   0  0  0  0  0  0
   20.9037   71.5584   17.5166 H   0  0  0  0  0  0
   17.4285   69.0778   17.3589 H   0  0  0  0  0  0
   18.3169   68.9318   18.8636 H   0  0  0  0  0  0
   19.0539   70.6620   16.4699 H   0  0  0  0  0  0
   19.9331   69.2488   16.9403 H   0  0  0  0  0  0
   21.9797   70.8888   19.4608 H   0  0  0  0  0  0
   21.7611   69.4624   18.5381 H   0  0  0  0  0  0
   21.4410   68.9239   20.8699 H   0  0  0  0  0  0
   19.9152   68.6884   20.1177 H   0  0  0  0  0  0
   20.2929   69.9494   22.4700 H   0  0  0  0  0  0
   18.9019   70.2934   21.4546 H   0  0  0  0  0  0
   20.3144   71.3454   21.4761 H   0  0  0  0  0  0
  1  2  1  0  0  0
  1  4  1  0  0  0
  1  7  2  0  0  0
  2  3  2  0  0  0
  2 10  1  0  0  0
  3 11  1  0  0  0
  3  5  1  0  0  0
  4 15  1  0  0  0
  4 16  1  0  0  0
  4 17  1  0  0  0
  5  6  1  0  0  0
  6  7  1  0  0  0
  6 13  2  0  0  0
  7 23  1  0  0  0
  8  9  1  0  0  0
  8 12  1  0  0  0
  8 11  2  0  0  0
  9 10  2  0  0  0
  9 14  1  0  0  0
 10 24  1  0  0  0
 11 25  1  0  0  0
 12 18  1  0  0  0
 12 26  1  0  0  0
 14 19  1  0  0  0
 14 20  1  0  0  0
 14 27  1  0  0  0
 18 19  1  0  0  0
 18 28  1  0  0  0
 18 29  1  0  0  0
 19 30  1  0  0  0
 19 31  1  0  0  0
 20 21  1  0  0  0
 20 32  1  0  0  0
 20 33  1  0  0  0
 21 22  1  0  0  0
 21 34  1  0  0  0
 21 35  1  0  0  0
 22 36  1  0  0  0
 22 37  1  0  0  0
 22 38  1  0  0  0
M  END
> <s_m_entry_id>
9727

> <s_m_entry_name>
dock_pv.167

> <s_m_Source_Path>
/home/csk/Desktop/cluster/DUD-E-result/mcr

> <s_m_Source_File>
dock_pv.maegz

> <i_m_Source_File_Index>
167

> <chembl_id>
CHEMBL6855

> <chembl_pref_name>
None

> <i_lp_mmshare_version>
53161

> <i_f3d_flags>
0

> <r_lp_tautomer_probability>
1

> <s_lp_Force_Field>
OPLS_2005

> <r_lp_Energy>
18.351256

> <b_lp_Chiralities_Consistent>
1

> <s_lp_Variant>
CHEMBL1994_lig44-1

> <s_i_glide_gridfile>
glide-grid_2aa2

> <i_i_glide_lignum>
52

> <i_i_glide_rotatable_bonds>
3

> <r_i_docking_score>
-7.83576150938883

> <r_i_glide_ligand_efficiency>
-0.356170977699492

> <r_i_glide_ligand_efficiency_sa>
-0.998005086923668

> <r_i_glide_ligand_efficiency_ln>
-1.91534592924023

> <r_i_glide_gscore>
-7.83576150938883

> <r_i_glide_lipo>
-3.81057123315194

> <r_i_glide_hbond>
-0.118477326149773

> <r_i_glide_metal>
0

> <r_i_glide_rewards>
-2.67133955622531

> <r_i_glide_evdw>
-28.3558006286621

> <r_i_glide_ecoul>
-0.0459932200610638

> <r_i_glide_erotb>
0.191351041414716

> <r_i_glide_esite>
-0.00203542083425115

> <r_i_glide_emodel>
-32.6768406393063

> <r_i_glide_energy>
-28.4017938487232

> <r_i_glide_einternal>
3.53535556793213

> <i_i_glide_confnum>
5

> <i_i_glide_posenum>
68

> <r_i_glide_eff_state_penalty>
0

> <s_user_duplicate_titles>
CHEMBL1994_lig44

> <s_m_subgroup_title>
dock_pv

> <s_m_subgroupid>
dock_pv

> <b_m_subgroup_collapsed>
1

$$$$
CHEMBL1994_lig747
                    3D
 Schrodinger Suite 2021-1.
 30 32  0  0  1  0            999 V2000
   19.2349   68.0842   16.4012 C   0  0  0  0  0  0
   17.8147   68.6620   16.5092 C   0  0  0  0  0  0
   17.7696   69.6744   17.3971 N   0  0  0  0  0  0
   20.2410   69.1169   16.3850 O   0  0  0  0  0  0
   20.1459   70.0082   17.4222 C   0  0  0  0  0  0
   18.8871   70.3000   17.9530 C   0  0  0  0  0  0
   18.7776   71.2463   18.9623 C   0  0  0  0  0  0
   19.9316   71.8896   19.4215 C   0  0  0  0  0  0
   21.1844   71.6092   18.8701 C   0  0  0  0  0  0
   21.2941   70.6581   17.8600 C   0  0  0  0  0  0
   16.8750   68.2620   15.8344 O   0  0  0  0  0  0
   19.7863   72.8849   20.4501 C   0  0  0  0  0  0
   19.4038   73.7287   21.2361 C   0  0  0  0  0  0
   18.6793   74.7013   22.0160 C   0  0  0  0  0  0
   19.3453   75.4620   22.9711 C   0  0  0  0  0  0
   18.6410   76.4372   23.6700 C   0  0  0  0  0  0
   17.2863   76.6374   23.4423 C   0  0  0  0  0  0
   16.6125   75.8407   22.5269 C   0  0  0  0  0  0
   17.3095   74.8881   21.7922 C   0  0  0  0  0  0
   16.6410   74.1562   20.8700 F   0  0  0  0  0  0
   16.6410   77.6362   24.0700 F   0  0  0  0  0  0
   19.3174   67.4617   15.5126 H   0  0  0  0  0  0
   19.3689   67.4412   17.2700 H   0  0  0  0  0  0
   16.8488   70.0419   17.5847 H   0  0  0  0  0  0
   17.8069   71.4886   19.3749 H   0  0  0  0  0  0
   22.0696   72.1240   19.2175 H   0  0  0  0  0  0
   22.2494   70.4376   17.4118 H   0  0  0  0  0  0
   20.4026   75.3282   23.1536 H   0  0  0  0  0  0
   19.1534   77.0620   24.3848 H   0  0  0  0  0  0
   15.5538   75.9547   22.3589 H   0  0  0  0  0  0
  1  2  1  0  0  0
  1  4  1  0  0  0
  1 22  1  0  0  0
  1 23  1  0  0  0
  2  3  1  0  0  0
  2 11  2  0  0  0
  3  6  1  0  0  0
  3 24  1  0  0  0
  4  5  1  0  0  0
  5  6  2  0  0  0
  5 10  1  0  0  0
  6  7  1  0  0  0
  7  8  2  0  0  0
  7 25  1  0  0  0
  8  9  1  0  0  0
  8 12  1  0  0  0
  9 10  2  0  0  0
  9 26  1  0  0  0
 10 27  1  0  0  0
 12 13  3  0  0  0
 13 14  1  0  0  0
 14 15  2  0  0  0
 14 19  1  0  0  0
 15 16  1  0  0  0
 15 28  1  0  0  0
 16 17  2  0  0  0
 16 29  1  0  0  0
 17 18  1  0  0  0
 17 21  1  0  0  0
 18 19  2  0  0  0
 18 30  1  0  0  0
 19 20  1  0  0  0
M  END
> <s_m_entry_id>
9728

> <s_m_entry_name>
dock_pv.168

> <s_m_Source_Path>
/home/csk/Desktop/cluster/DUD-E-result/mcr

> <s_m_Source_File>
dock_pv.maegz

> <i_m_Source_File_Index>
168

> <chembl_id>
CHEMBL3775577

> <chembl_pref_name>
None

> <i_lp_mmshare_version>
53161

> <i_f3d_flags>
0

> <r_lp_tautomer_probability>
1

> <s_lp_Force_Field>
OPLS_2005

> <r_lp_Energy>
18.355779

> <b_lp_Chiralities_Consistent>
1

> <s_lp_Variant>
CHEMBL1994_lig747-1

> <s_i_glide_gridfile>
glide-grid_2aa2

> <i_i_glide_lignum>
1161

> <i_i_glide_rotatable_bonds>
2

> <r_i_docking_score>
-7.82987361221765

> <r_i_glide_ligand_efficiency>
-0.372851124391317

> <r_i_glide_ligand_efficiency_sa>
-1.02866798023015

> <r_i_glide_ligand_efficiency_ln>
-1.93592042887143

> <r_i_glide_gscore>
-7.82987361221765

> <r_i_glide_lipo>
-3.31366892848474

> <r_i_glide_hbond>
-0.277339875840512

> <r_i_glide_metal>
0

> <r_i_glide_rewards>
-2.73062699646035

> <r_i_glide_evdw>
-27.2749786376953

> <r_i_glide_ecoul>
-3.67190480232239

> <r_i_glide_erotb>
0.445903743906867

> <r_i_glide_esite>
-0.0396069031057937

> <r_i_glide_emodel>
-37.3709609350067

> <r_i_glide_energy>
-30.9468834400177

> <r_i_glide_einternal>
0.367591857910156

> <i_i_glide_confnum>
1

> <i_i_glide_posenum>
89

> <r_i_glide_eff_state_penalty>
0

> <s_user_duplicate_titles>
CHEMBL1994_lig747

> <s_m_subgroup_title>
dock_pv

> <s_m_subgroupid>
dock_pv

> <b_m_subgroup_collapsed>
1

$$$$
CHEMBL1994_lig975 
                    3D
 Schrodinger Suite 2021-1.
 47 50  0  0  1  0            999 V2000
   17.9934   73.8757   19.6701 C   0  0  0  0  0  0
   18.0236   75.5337   24.0115 C   0  0  0  0  0  0
   18.2410   74.2257   24.3967 C   0  0  0  0  0  0
   18.9808   73.3720   23.5805 C   0  0  0  0  0  0
   18.7762   76.0578   22.9764 C   0  0  0  0  0  0
   19.6118   75.2364   22.2259 C   0  0  0  0  0  0
   19.6072   73.8355   22.4050 C   0  0  0  0  0  0
   20.1274   73.0029   21.3335 N   0  0  0  0  0  0
   20.5355   73.7117   20.0794 C   0  0  2  0  0  0
   21.2273   75.0170   20.5543 C   0  0  0  0  0  0
   20.2768   75.8605   21.1922 O   0  0  0  0  0  0
   19.3735   73.8521   19.0259 C   0  0  0  0  0  0
   17.5413   75.0620   20.0671 N   0  0  0  0  0  0
   19.8410   71.6443   21.2568 C   0  0  0  0  0  0
   19.9478   70.9141   19.9455 C   0  0  0  0  0  0
   19.4019   70.9620   22.1767 O   0  0  0  0  0  0
   21.1160   70.9251   19.1761 C   0  0  0  0  0  0
   21.1491   70.3782   17.9098 C   0  0  0  0  0  0
   18.8266   70.2319   19.4683 C   0  0  0  0  0  0
   18.8609   69.6714   18.2038 C   0  0  0  0  0  0
   20.0164   69.7511   17.4240 C   0  0  0  0  0  0
   19.9866   69.0618   16.0931 C   0  0  0  0  0  0
   18.6817   68.9406   15.5322 O   0  0  0  0  0  0
   17.6426   68.6620   16.3506 C   0  0  0  0  0  0
   17.7502   69.0396   17.6769 N   0  0  0  0  0  0
   16.6410   68.2620   15.8032 O   0  0  0  0  0  0
   17.0419   76.2618   24.5872 F   0  0  0  0  0  0
   17.4410   72.8119   19.9189 O   0  0  0  0  0  0
   16.3217   75.2719   20.8050 C   0  0  0  0  0  0
   17.7359   73.8379   25.2676 H   0  0  0  0  0  0
   18.9975   72.3457   23.8995 H   0  0  0  0  0  0
   18.6412   77.0803   22.6950 H   0  0  0  0  0  0
   21.3681   73.2232   19.5957 H   0  0  0  0  0  0
   21.7880   75.5147   19.7649 H   0  0  0  0  0  0
   22.0065   74.7631   21.2792 H   0  0  0  0  0  0
   19.4409   74.6620   18.3236 H   0  0  0  0  0  0
   19.3847   72.9831   18.3693 H   0  0  0  0  0  0
   18.1163   75.8757   19.8950 H   0  0  0  0  0  0
   22.0214   71.3831   19.5302 H   0  0  0  0  0  0
   22.0567   70.4201   17.3252 H   0  0  0  0  0  0
   17.9152   70.1994   20.0502 H   0  0  0  0  0  0
   20.7675   69.4620   15.4541 H   0  0  0  0  0  0
   20.2410   68.0402   16.3318 H   0  0  0  0  0  0
   16.9249   68.8918   18.2377 H   0  0  0  0  0  0
   16.4664   75.8616   21.7062 H   0  0  0  0  0  0
   15.7635   75.8618   20.1061 H   0  0  0  0  0  0
   15.7900   74.3559   21.0647 H   0  0  0  0  0  0
  1 12  1  0  0  0
  1 13  1  0  0  0
  1 28  2  0  0  0
  2  3  2  0  0  0
  2  5  1  0  0  0
  2 27  1  0  0  0
  3  4  1  0  0  0
  3 30  1  0  0  0
  4  7  2  0  0  0
  4 31  1  0  0  0
  5  6  2  0  0  0
  5 32  1  0  0  0
  6  7  1  0  0  0
  6 11  1  0  0  0
  7  8  1  0  0  0
  8  9  1  0  0  0
  8 14  1  0  0  0
  9 10  1  0  0  0
  9 12  1  0  0  0
  9 33  1  0  0  0
 10 11  1  0  0  0
 10 34  1  0  0  0
 10 35  1  0  0  0
 12 36  1  0  0  0
 12 37  1  0  0  0
 13 29  1  0  0  0
 13 38  1  0  0  0
 14 15  1  0  0  0
 14 16  2  0  0  0
 15 17  2  0  0  0
 15 19  1  0  0  0
 17 18  1  0  0  0
 17 39  1  0  0  0
 18 21  2  0  0  0
 18 40  1  0  0  0
 19 20  2  0  0  0
 19 41  1  0  0  0
 20 21  1  0  0  0
 20 25  1  0  0  0
 21 22  1  0  0  0
 22 23  1  0  0  0
 22 42  1  0  0  0
 22 43  1  0  0  0
 23 24  1  0  0  0
 24 25  1  0  0  0
 24 26  2  0  0  0
 25 44  1  0  0  0
 29 45  1  0  0  0
 29 46  1  0  0  0
 29 47  1  0  0  0
M  END
> <s_m_entry_id>
9729

> <s_m_entry_name>
dock_pv.169

> <s_m_Source_Path>
/home/csk/Desktop/cluster/DUD-E-result/mcr

> <s_m_Source_File>
dock_pv.maegz

> <i_m_Source_File_Index>
169

> <chembl_id>
CHEMBL4585636

> <chembl_pref_name>
None

> <i_lp_mmshare_version>
53161

> <i_f3d_flags>
0

> <r_lp_tautomer_probability>
1

> <s_lp_Force_Field>
OPLS_2005

> <r_lp_Energy>
43.28345

> <b_lp_Chiralities_Consistent>
1

> <s_lp_Variant>
CHEMBL1994_lig975 -1

> <s_i_glide_gridfile>
glide-grid_2aa2

> <i_i_glide_lignum>
1417

> <i_i_glide_rotatable_bonds>
5

> <r_i_docking_score>
-7.82669782515341

> <r_i_glide_ligand_efficiency>
-0.269886131901842

> <r_i_glide_ligand_efficiency_sa>
-0.829175703130605

> <r_i_glide_ligand_efficiency_ln>
-1.79211533402757

> <r_i_glide_gscore>
-7.82669782515341

> <r_i_glide_lipo>
-4.07156377132578

> <r_i_glide_hbond>
-0.250142020122831

> <r_i_glide_metal>
0

> <r_i_glide_rewards>
-2.62135051320846

> <r_i_glide_evdw>
-13.4067602157593

> <r_i_glide_ecoul>
-4.69793510437012

> <r_i_glide_erotb>
0.491386755947144

> <r_i_glide_esite>
0

> <r_i_glide_emodel>
-34.2987032693405

> <r_i_glide_energy>
-18.1046953201294

> <r_i_glide_einternal>
24.4297332763672

> <i_i_glide_confnum>
112

> <i_i_glide_posenum>
149

> <r_i_glide_eff_state_penalty>
0

> <s_user_duplicate_titles>
CHEMBL1994_lig975 

> <s_m_subgroup_title>
dock_pv

> <s_m_subgroupid>
dock_pv

> <b_m_subgroup_collapsed>
1

$$$$
CHEMBL1994_lig812
                    3D
 Schrodinger Suite 2021-1.
 36 37  0  0  1  0            999 V2000
   21.2989   75.8654   20.9409 C   0  0  0  0  0  0
   20.1484   74.8553   20.7152 C   0  0  1  0  0  0
   20.6238   73.3965   20.9080 C   0  0  0  0  0  0
   20.2949   72.4624   19.7512 C   0  0  0  0  0  0
   21.2640   72.1722   18.7870 C   0  0  0  0  0  0
   20.9561   71.2693   17.7705 C   0  0  0  0  0  0
   19.7486   70.6675   17.6692 N   0  0  0  0  0  0
   18.7987   70.9592   18.6058 C   0  0  0  0  0  0
   17.5272   70.3711   18.5728 N   0  0  0  0  0  0
   17.0841   69.3923   17.7684 C   0  0  0  0  0  0
   17.6989   68.8221   16.8700 O   0  0  0  0  0  0
   15.8411   69.0621   18.0701 N   0  0  0  0  0  0
   19.0406   71.8534   19.6570 C   0  0  0  0  0  0
   18.9072   75.1702   21.5547 C   0  0  0  0  0  0
   17.6395   75.0619   20.9732 C   0  0  0  0  0  0
   16.5066   75.4007   21.7079 C   0  0  0  0  0  0
   16.6449   75.8621   23.0139 C   0  0  0  0  0  0
   17.8974   75.9311   23.6140 C   0  0  0  0  0  0
   19.0302   75.5811   22.8867 C   0  0  0  0  0  0
   20.9428   76.8951   20.8689 H   0  0  0  0  0  0
   21.7633   75.7439   21.9208 H   0  0  0  0  0  0
   22.0840   75.7372   20.1959 H   0  0  0  0  0  0
   19.8408   74.9862   19.6755 H   0  0  0  0  0  0
   21.7014   73.3631   21.0811 H   0  0  0  0  0  0
   20.1963   72.9781   21.8186 H   0  0  0  0  0  0
   22.2405   72.6232   18.8348 H   0  0  0  0  0  0
   21.6848   71.0127   17.0157 H   0  0  0  0  0  0
   16.8840   70.6926   19.2786 H   0  0  0  0  0  0
   15.4288   68.2810   17.5877 H   0  0  0  0  0  0
   15.3191   69.5574   18.7821 H   0  0  0  0  0  0
   18.2796   72.0659   20.3974 H   0  0  0  0  0  0
   17.5308   74.7306   19.9494 H   0  0  0  0  0  0
   15.5243   75.3233   21.2673 H   0  0  0  0  0  0
   15.7689   76.1455   23.5754 H   0  0  0  0  0  0
   17.9898   76.2614   24.6365 H   0  0  0  0  0  0
   19.9984   75.6458   23.3583 H   0  0  0  0  0  0
  1  2  1  0  0  0
  1 20  1  0  0  0
  1 21  1  0  0  0
  1 22  1  0  0  0
  2  3  1  0  0  0
  2 14  1  0  0  0
  2 23  1  0  0  0
  3  4  1  0  0  0
  3 24  1  0  0  0
  3 25  1  0  0  0
  4  5  2  0  0  0
  4 13  1  0  0  0
  5  6  1  0  0  0
  5 26  1  0  0  0
  6  7  2  0  0  0
  6 27  1  0  0  0
  7  8  1  0  0  0
  8  9  1  0  0  0
  8 13  2  0  0  0
  9 10  1  0  0  0
  9 28  1  0  0  0
 10 11  2  0  0  0
 10 12  1  0  0  0
 12 29  1  0  0  0
 12 30  1  0  0  0
 13 31  1  0  0  0
 14 15  2  0  0  0
 14 19  1  0  0  0
 15 16  1  0  0  0
 15 32  1  0  0  0
 16 17  2  0  0  0
 16 33  1  0  0  0
 17 18  1  0  0  0
 17 34  1  0  0  0
 18 19  2  0  0  0
 18 35  1  0  0  0
 19 36  1  0  0  0
M  END
> <s_m_entry_id>
9730

> <s_m_entry_name>
dock_pv.170

> <s_m_Source_Path>
/home/csk/Desktop/cluster/DUD-E-result/mcr

> <s_m_Source_File>
dock_pv.maegz

> <i_m_Source_File_Index>
170

> <chembl_id>
CHEMBL3643677

> <chembl_pref_name>
None

> <i_lp_mmshare_version>
53161

> <i_f3d_flags>
0

> <r_lp_tautomer_probability>
1

> <s_lp_Force_Field>
OPLS_2005

> <r_lp_Energy>
9.867937

> <b_lp_Chiralities_Consistent>
1

> <s_lp_Variant>
CHEMBL1994_lig812-2

> <s_i_glide_gridfile>
glide-grid_2aa2

> <i_i_glide_lignum>
1234

> <i_i_glide_rotatable_bonds>
5

> <r_i_docking_score>
-7.81899678183605

> <r_i_glide_ligand_efficiency>
-0.411526146412424

> <r_i_glide_ligand_efficiency_sa>
-1.09811704650132

> <r_i_glide_ligand_efficiency_ln>
-1.982283620848

> <r_i_glide_gscore>
-7.81899678183605

> <r_i_glide_lipo>
-3.67331961960176

> <r_i_glide_hbond>
-0.32

> <r_i_glide_metal>
0

> <r_i_glide_rewards>
-2.66078351084056

> <r_i_glide_evdw>
-37.3739700317383

> <r_i_glide_ecoul>
-2.50983309745789

> <r_i_glide_erotb>
1.08027981481187

> <r_i_glide_esite>
0

> <r_i_glide_emodel>
-55.9943211593588

> <r_i_glide_energy>
-39.8838031291962

> <r_i_glide_einternal>
4.99752950668335

> <i_i_glide_confnum>
2

> <i_i_glide_posenum>
271

> <r_i_glide_eff_state_penalty>
0

> <s_user_duplicate_titles>
CHEMBL1994_lig812

> <s_m_subgroup_title>
dock_pv

> <s_m_subgroupid>
dock_pv

> <b_m_subgroup_collapsed>
1

$$$$
CHEMBL1994_lig817
                    3D
 Schrodinger Suite 2021-1.
 36 37  0  0  1  0            999 V2000
   16.5157   68.6642   17.4873 C   0  0  0  0  0  0
   17.9371   69.1849   17.5062 C   0  0  0  0  0  0
   18.8212   68.9122   16.4592 C   0  0  0  0  0  0
   20.1042   69.4619   16.4701 C   0  0  0  0  0  0
   20.5228   70.2616   17.5212 C   0  0  0  0  0  0
   19.6474   70.5203   18.5706 C   0  0  0  0  0  0
   20.0830   71.4410   19.6737 C   0  0  0  0  0  0
   20.1822   72.8835   19.1592 C   0  0  0  0  0  0
   20.1177   73.8307   20.3214 C   0  0  0  0  0  0
   21.2791   74.3475   20.8901 C   0  0  0  0  0  0
   21.1601   75.1316   22.0312 C   0  0  0  0  0  0
   19.9651   75.3956   22.6104 N   0  0  0  0  0  0
   18.8309   74.9074   22.0258 C   0  0  0  0  0  0
   17.5509   75.1441   22.5491 N   0  0  0  0  0  0
   17.1219   76.1596   23.3149 C   0  0  0  0  0  0
   15.9612   76.2627   23.6701 O   0  0  0  0  0  0
   18.0118   77.0659   23.6700 N   0  0  0  0  0  0
   18.8761   74.1177   20.8845 C   0  0  0  0  0  0
   18.3557   69.9887   18.5648 C   0  0  0  0  0  0
   16.3664   67.9045   18.2555 H   0  0  0  0  0  0
   15.8319   69.4838   17.7064 H   0  0  0  0  0  0
   16.2421   68.2621   16.5126 H   0  0  0  0  0  0
   18.5145   68.2935   15.6304 H   0  0  0  0  0  0
   20.7985   69.2657   15.6707 H   0  0  0  0  0  0
   21.5181   70.6833   17.5138 H   0  0  0  0  0  0
   19.3729   71.3576   20.4994 H   0  0  0  0  0  0
   21.0405   71.1061   20.0700 H   0  0  0  0  0  0
   21.0939   73.0388   18.5794 H   0  0  0  0  0  0
   19.3545   73.1220   18.4876 H   0  0  0  0  0  0
   22.2437   74.1212   20.4730 H   0  0  0  0  0  0
   22.0332   75.5574   22.5002 H   0  0  0  0  0  0
   16.8306   74.5039   22.2502 H   0  0  0  0  0  0
   17.7890   77.7136   24.4130 H   0  0  0  0  0  0
   18.9678   76.9441   23.3729 H   0  0  0  0  0  0
   17.9719   73.7135   20.4510 H   0  0  0  0  0  0
   17.6701   70.2169   19.3687 H   0  0  0  0  0  0
  1  2  1  0  0  0
  1 20  1  0  0  0
  1 21  1  0  0  0
  1 22  1  0  0  0
  2  3  2  0  0  0
  2 19  1  0  0  0
  3  4  1  0  0  0
  3 23  1  0  0  0
  4  5  2  0  0  0
  4 24  1  0  0  0
  5  6  1  0  0  0
  5 25  1  0  0  0
  6  7  1  0  0  0
  6 19  2  0  0  0
  7  8  1  0  0  0
  7 26  1  0  0  0
  7 27  1  0  0  0
  8  9  1  0  0  0
  8 28  1  0  0  0
  8 29  1  0  0  0
  9 10  2  0  0  0
  9 18  1  0  0  0
 10 11  1  0  0  0
 10 30  1  0  0  0
 11 12  2  0  0  0
 11 31  1  0  0  0
 12 13  1  0  0  0
 13 14  1  0  0  0
 13 18  2  0  0  0
 14 15  1  0  0  0
 14 32  1  0  0  0
 15 16  2  0  0  0
 15 17  1  0  0  0
 17 33  1  0  0  0
 17 34  1  0  0  0
 18 35  1  0  0  0
 19 36  1  0  0  0
M  END
> <s_m_entry_id>
9731

> <s_m_entry_name>
dock_pv.171

> <s_m_Source_Path>
/home/csk/Desktop/cluster/DUD-E-result/mcr

> <s_m_Source_File>
dock_pv.maegz

> <i_m_Source_File_Index>
171

> <chembl_id>
CHEMBL3643682

> <chembl_pref_name>
None

> <i_lp_mmshare_version>
53161

> <i_f3d_flags>
0

> <r_lp_tautomer_probability>
1

> <s_lp_Force_Field>
OPLS_2005

> <r_lp_Energy>
6.698117

> <b_lp_Chiralities_Consistent>
1

> <s_lp_Variant>
CHEMBL1994_lig817-1

> <s_i_glide_gridfile>
glide-grid_2aa2

> <i_i_glide_lignum>
1242

> <i_i_glide_rotatable_bonds>
5

> <r_i_docking_score>
-7.81414952549235

> <r_i_glide_ligand_efficiency>
-0.411271027657492

> <r_i_glide_ligand_efficiency_sa>
-1.09743628719571

> <r_i_glide_ligand_efficiency_ln>
-1.98105473725536

> <r_i_glide_gscore>
-7.81414952549235

> <r_i_glide_lipo>
-3.90592965353596

> <r_i_glide_hbond>
-0.471195522956196

> <r_i_glide_metal>
0

> <r_i_glide_rewards>
-2.01894835655359

> <r_i_glide_evdw>
-35.3023834228516

> <r_i_glide_ecoul>
-4.83939456939697

> <r_i_glide_erotb>
1.08027981481187

> <r_i_glide_esite>
-0.0073274507063552

> <r_i_glide_emodel>
-55.8139051019985

> <r_i_glide_energy>
-40.1417779922485

> <r_i_glide_einternal>
4.39211463928223

> <i_i_glide_confnum>
94

> <i_i_glide_posenum>
11

> <r_i_glide_eff_state_penalty>
0

> <s_user_duplicate_titles>
CHEMBL1994_lig817

> <s_m_subgroup_title>
dock_pv

> <s_m_subgroupid>
dock_pv

> <b_m_subgroup_collapsed>
1

$$$$
CHEMBL1994_lig70
                    3D
 Schrodinger Suite 2021-1.
 55 58  0  0  1  0            999 V2000
   18.8830   74.2044   21.1071 C   0  0  1  0  0  0
   20.0040   73.9716   20.0661 C   0  0  2  0  0  0
   19.1352   70.1859   19.1652 C   0  0  1  0  0  0
   20.2194   70.0429   18.0590 C   0  0  0  0  0  0
   18.9296   71.7393   19.2783 C   0  0  2  0  0  0
   20.2383   72.4675   19.7462 C   0  0  1  0  0  0
   18.9494   75.7495   21.3677 C   0  0  2  0  0  0
   18.2414   72.2624   24.2170 N   0  3  0  0  0  0
   19.9880   69.4441   16.8693 C   0  0  0  0  0  0
   17.5755   73.6756   20.4088 C   0  0  0  0  0  0
   19.2587   73.4999   22.4637 C   0  0  0  0  0  0
   18.2410   71.8621   25.2703 N   0  5  0  0  0  0
   21.1765   74.8587   20.5193 C   0  0  0  0  0  0
   17.6317   72.1733   19.9953 C   0  0  0  0  0  0
   17.8414   69.3873   18.7634 C   0  0  0  0  0  0
   20.4945   76.0387   21.2699 C   0  0  0  0  0  0
   21.3144   72.2172   18.6715 C   0  0  0  0  0  0
   18.2452   72.7035   23.0099 C   0  0  0  0  0  0
   18.2560   76.2619   22.7019 C   0  0  0  0  0  0
   21.5521   70.7231   18.3684 C   0  0  0  0  0  0
   18.7328   68.8042   16.5273 C   0  0  0  0  0  0
   20.2405   73.8620   23.1117 O   0  0  0  0  0  0
   18.9034   76.6470   23.6697 O   0  0  0  0  0  0
   18.6382   67.9340   15.6700 O   0  0  0  0  0  0
   17.5207   69.3421   17.2735 C   0  0  0  0  0  0
   19.6172   69.5638   20.5132 C   0  0  0  0  0  0
   16.7370   76.2074   22.8701 C   0  0  0  0  0  0
   20.5911   72.0025   20.6635 H   0  0  0  0  0  0
   19.6515   74.3898   19.1252 H   0  0  0  0  0  0
   18.7541   72.1295   18.2720 H   0  0  0  0  0  0
   18.4346   76.2602   20.5555 H   0  0  0  0  0  0
   20.7970   69.3880   16.1566 H   0  0  0  0  0  0
   16.6655   73.9182   20.9554 H   0  0  0  0  0  0
   17.4319   74.2584   19.4976 H   0  0  0  0  0  0
   21.8014   75.1901   19.6855 H   0  0  0  0  0  0
   21.8466   74.3072   21.1814 H   0  0  0  0  0  0
   16.7627   71.8613   19.4223 H   0  0  0  0  0  0
   17.5397   71.5732   20.8926 H   0  0  0  0  0  0
   17.9201   68.3480   19.0944 H   0  0  0  0  0  0
   16.9556   69.7522   19.2702 H   0  0  0  0  0  0
   20.6723   76.9826   20.7565 H   0  0  0  0  0  0
   20.9768   76.1296   22.2401 H   0  0  0  0  0  0
   21.0447   72.7404   17.7524 H   0  0  0  0  0  0
   22.2441   72.6619   18.9989 H   0  0  0  0  0  0
   17.4407   73.3458   22.8679 H   0  0  0  0  0  0
   22.0591   70.2334   19.1987 H   0  0  0  0  0  0
   22.2403   70.6375   17.5263 H   0  0  0  0  0  0
   17.3077   70.3499   16.9246 H   0  0  0  0  0  0
   16.6515   68.7190   17.0612 H   0  0  0  0  0  0
   18.9255   69.7999   21.3223 H   0  0  0  0  0  0
   19.6731   68.4763   20.4716 H   0  0  0  0  0  0
   20.6029   69.8905   20.8364 H   0  0  0  0  0  0
   16.2747   75.7182   22.0165 H   0  0  0  0  0  0
   16.2812   77.1943   22.9494 H   0  0  0  0  0  0
   16.4879   75.6328   23.7619 H   0  0  0  0  0  0
  1  2  1  0  0  0
  1  7  1  0  0  0
  1 10  1  0  0  0
  1 11  1  0  0  0
  2  6  1  0  0  0
  2 13  1  0  0  0
  2 29  1  0  0  0
  3  5  1  0  0  0
  3  4  1  0  0  0
  3 15  1  0  0  0
  3 26  1  0  0  0
  4  9  2  0  0  0
  4 20  1  0  0  0
  5 14  1  0  0  0
  5  6  1  0  0  0
  5 30  1  0  0  0
  6 17  1  0  0  0
  6 28  1  0  0  0
  7 16  1  0  0  0
  7 19  1  0  0  0
  7 31  1  0  0  0
  8 18  2  0  0  0
  8 12  2  0  0  0
  9 21  1  0  0  0
  9 32  1  0  0  0
 10 14  1  0  0  0
 10 33  1  0  0  0
 10 34  1  0  0  0
 11 18  1  0  0  0
 11 22  2  0  0  0
 13 16  1  0  0  0
 13 35  1  0  0  0
 13 36  1  0  0  0
 14 37  1  0  0  0
 14 38  1  0  0  0
 15 25  1  0  0  0
 15 39  1  0  0  0
 15 40  1  0  0  0
 16 41  1  0  0  0
 16 42  1  0  0  0
 17 20  1  0  0  0
 17 43  1  0  0  0
 17 44  1  0  0  0
 18 45  1  0  0  0
 19 23  2  0  0  0
 19 27  1  0  0  0
 20 46  1  0  0  0
 20 47  1  0  0  0
 21 25  1  0  0  0
 21 24  2  0  0  0
 25 48  1  0  0  0
 25 49  1  0  0  0
 26 50  1  0  0  0
 26 51  1  0  0  0
 26 52  1  0  0  0
 27 53  1  0  0  0
 27 54  1  0  0  0
 27 55  1  0  0  0
M  CHG  2   8   1  12  -1
M  END
> <s_m_entry_id>
9732

> <s_m_entry_name>
dock_pv.172

> <s_m_Source_Path>
/home/csk/Desktop/cluster/DUD-E-result/mcr

> <s_m_Source_File>
dock_pv.maegz

> <i_m_Source_File_Index>
172

> <chembl_id>
CHEMBL2112397

> <chembl_pref_name>
None

> <i_lp_mmshare_version>
53161

> <i_f3d_flags>
0

> <r_lp_tautomer_probability>
0.99999997

> <s_lp_Force_Field>
OPLS_2005

> <r_lp_Energy>
48.907856

> <b_lp_Chiralities_Consistent>
1

> <s_lp_Variant>
CHEMBL1994_lig70-1

> <s_i_glide_gridfile>
glide-grid_2aa2

> <i_i_glide_lignum>
97

> <i_i_glide_rotatable_bonds>
3

> <r_i_docking_score>
-7.79798515032455

> <r_i_glide_ligand_efficiency>
-0.288814264826835

> <r_i_glide_ligand_efficiency_sa>
-0.86644279352862

> <r_i_glide_ligand_efficiency_ln>
-1.81524238316285

> <r_i_glide_gscore>
-7.79798515032455

> <r_i_glide_lipo>
-4.41748356759198

> <r_i_glide_hbond>
-0.0716311420838762

> <r_i_glide_metal>
0

> <r_i_glide_rewards>
-2.90898376595947

> <r_i_glide_evdw>
5.162184715271

> <r_i_glide_ecoul>
-5.5869402885437

> <r_i_glide_erotb>
0.28386614039637

> <r_i_glide_esite>
-0.103821007567589

> <r_i_glide_emodel>
-27.8759784737585

> <r_i_glide_energy>
-0.424755573272705

> <r_i_glide_einternal>
6.0041184425354

> <i_i_glide_confnum>
3

> <i_i_glide_posenum>
123

> <r_i_glide_eff_state_penalty>
0

> <s_user_duplicate_titles>
CHEMBL1994_lig70

> <s_m_subgroup_title>
dock_pv

> <s_m_subgroupid>
dock_pv

> <b_m_subgroup_collapsed>
1

$$$$
CHEMBL1994_lig35
                    3D
 Schrodinger Suite 2021-1.
 38 40  0  0  1  0            999 V2000
   18.7164   74.2222   20.8385 C   0  0  0  0  0  0
   19.2773   73.1764   19.9134 C   0  0  0  0  0  0
   20.6668   73.2159   19.7543 C   0  0  0  0  0  0
   17.2105   74.3320   21.0940 C   0  0  0  0  0  0
   19.2218   71.2538   18.3475 C   0  0  0  0  0  0
   20.6000   71.4395   18.1421 C   0  0  0  0  0  0
   21.4863   74.0699   20.4692 O   0  0  0  0  0  0
   21.0034   75.0733   21.2514 C   0  0  0  0  0  0
   18.5670   72.1838   19.1975 C   0  0  0  0  0  0
   19.5594   75.0912   21.4506 C   0  0  0  0  0  0
   21.3461   70.6692   17.2407 N   0  0  0  0  0  0
   21.3137   72.3780   18.8653 C   0  0  0  0  0  0
   18.5589   70.0152   17.6922 C   0  0  2  0  0  0
   20.7901   69.4857   16.6207 C   0  0  0  0  0  0
   21.8378   75.8554   21.7006 O   0  0  0  0  0  0
   19.2729   69.5391   16.4091 C   0  0  1  0  0  0
   16.9578   75.0621   22.1841 F   0  0  0  0  0  0
   16.6473   74.9606   20.0710 F   0  0  0  0  0  0
   16.6638   73.1322   21.2674 F   0  0  0  0  0  0
   17.0324   70.0627   17.4927 C   0  0  0  0  0  0
   18.7714   68.1383   15.9608 C   0  0  0  0  0  0
   16.3130   69.4795   18.6728 C   0  0  0  0  0  0
   17.4998   72.1043   19.3257 H   0  0  0  0  0  0
   19.1623   75.8508   22.1073 H   0  0  0  0  0  0
   22.3548   70.7128   17.2679 H   0  0  0  0  0  0
   22.3798   72.4602   18.7354 H   0  0  0  0  0  0
   18.7642   69.2265   18.4216 H   0  0  0  0  0  0
   21.3085   69.3009   15.6823 H   0  0  0  0  0  0
   21.0399   68.6622   17.2636 H   0  0  0  0  0  0
   19.0603   70.2355   15.6016 H   0  0  0  0  0  0
   16.6911   71.0620   17.2872 H   0  0  0  0  0  0
   16.6883   69.4814   16.6431 H   0  0  0  0  0  0
   18.6551   67.4751   16.8158 H   0  0  0  0  0  0
   17.8136   68.1878   15.4455 H   0  0  0  0  0  0
   19.4384   67.6374   15.2674 H   0  0  0  0  0  0
   15.2420   69.4637   18.4695 H   0  0  0  0  0  0
   16.6235   68.4527   18.8700 H   0  0  0  0  0  0
   16.5272   70.1153   19.5292 H   0  0  0  0  0  0
  1  2  1  0  0  0
  1  4  1  0  0  0
  1 10  2  0  0  0
  2  3  2  0  0  0
  2  9  1  0  0  0
  3 12  1  0  0  0
  3  7  1  0  0  0
  4 17  1  0  0  0
  4 18  1  0  0  0
  4 19  1  0  0  0
  5  9  2  0  0  0
  5  6  1  0  0  0
  5 13  1  0  0  0
  6 11  1  0  0  0
  6 12  2  0  0  0
  7  8  1  0  0  0
  8 10  1  0  0  0
  8 15  2  0  0  0
  9 23  1  0  0  0
 10 24  1  0  0  0
 11 14  1  0  0  0
 11 25  1  0  0  0
 12 26  1  0  0  0
 13 16  1  0  0  0
 13 20  1  0  0  0
 13 27  1  0  0  0
 14 16  1  0  0  0
 14 28  1  0  0  0
 14 29  1  0  0  0
 16 21  1  0  0  0
 16 30  1  0  0  0
 20 22  1  0  0  0
 20 31  1  0  0  0
 20 32  1  0  0  0
 21 33  1  0  0  0
 21 34  1  0  0  0
 21 35  1  0  0  0
 22 36  1  0  0  0
 22 37  1  0  0  0
 22 38  1  0  0  0
M  END
> <s_m_entry_id>
9733

> <s_m_entry_name>
dock_pv.173

> <s_m_Source_Path>
/home/csk/Desktop/cluster/DUD-E-result/mcr

> <s_m_Source_File>
dock_pv.maegz

> <i_m_Source_File_Index>
173

> <chembl_id>
CHEMBL2112312

> <chembl_pref_name>
None

> <i_lp_mmshare_version>
53161

> <i_f3d_flags>
0

> <r_lp_tautomer_probability>
1

> <s_lp_Force_Field>
OPLS_2005

> <r_lp_Energy>
21.559938

> <b_lp_Chiralities_Consistent>
1

> <s_lp_Variant>
CHEMBL1994_lig35-1

> <s_i_glide_gridfile>
glide-grid_2aa2

> <i_i_glide_lignum>
38

> <i_i_glide_rotatable_bonds>
2

> <r_i_docking_score>
-7.79142537062663

> <r_i_glide_ligand_efficiency>
-0.354155698664847

> <r_i_glide_ligand_efficiency_sa>
-0.992358195812164

> <r_i_glide_ligand_efficiency_ln>
-1.9045085597268

> <r_i_glide_gscore>
-7.79142537062663

> <r_i_glide_lipo>
-3.96606091596877

> <r_i_glide_hbond>
0

> <r_i_glide_metal>
0

> <r_i_glide_rewards>
-2.30182906892997

> <r_i_glide_evdw>
-31.8744029998779

> <r_i_glide_ecoul>
0.467898428440094

> <r_i_glide_erotb>
0

> <r_i_glide_esite>
0

> <r_i_glide_emodel>
-42.2809644986544

> <r_i_glide_energy>
-31.4065045714378

> <r_i_glide_einternal>
1.47209453582764

> <i_i_glide_confnum>
1

> <i_i_glide_posenum>
30

> <r_i_glide_eff_state_penalty>
0

> <s_user_duplicate_titles>
CHEMBL1994_lig35

> <s_m_subgroup_title>
dock_pv

> <s_m_subgroupid>
dock_pv

> <b_m_subgroup_collapsed>
1

$$$$
CHEMBL1994_lig829
                    3D
 Schrodinger Suite 2021-1.
 34 36  0  0  1  0            999 V2000
   19.0410   67.8217   16.2098 N   0  0  0  0  0  0
   18.3224   68.7645   16.8008 C   0  0  0  0  0  0
   17.1009   68.6620   16.8697 O   0  0  0  0  0  0
   19.0821   69.7204   17.3724 N   0  0  0  0  0  0
   18.7062   70.5811   18.4213 C   0  0  0  0  0  0
   19.5902   71.6045   18.7915 C   0  0  0  0  0  0
   19.3133   72.3649   19.9447 C   0  0  0  0  0  0
   18.1880   72.0505   20.6994 C   0  0  0  0  0  0
   17.3455   71.0620   20.2496 C   0  0  0  0  0  0
   17.5732   70.3362   19.1340 N   0  0  0  0  0  0
   20.2034   73.4339   20.4670 C   0  0  0  0  0  0
   21.4552   73.4620   20.1068 N   0  0  0  0  0  0
   22.0293   74.3627   20.8700 C   0  0  0  0  0  0
   21.1649   75.0476   21.6308 N   0  0  0  0  0  0
   19.9652   74.4655   21.3747 C   0  0  0  0  0  0
   18.7882   74.9357   22.0550 C   0  0  0  0  0  0
   17.5857   75.0504   21.3671 C   0  0  0  0  0  0
   16.4764   75.4621   22.0700 C   0  0  0  0  0  0
   16.6401   75.8617   23.3921 C   0  0  0  0  0  0
   15.5802   76.2629   24.0700 F   0  0  0  0  0  0
   17.8207   75.6940   24.0868 C   0  0  0  0  0  0
   18.9146   75.2232   23.4088 C   0  0  0  0  0  0
   20.0392   67.9113   16.0700 H   0  0  0  0  0  0
   18.6166   66.9089   16.1839 H   0  0  0  0  0  0
   20.0297   69.8177   17.0469 H   0  0  0  0  0  0
   20.4913   71.7866   18.2239 H   0  0  0  0  0  0
   17.9612   72.5303   21.6377 H   0  0  0  0  0  0
   16.4688   70.8335   20.8303 H   0  0  0  0  0  0
   23.0565   74.6620   20.8793 H   0  0  0  0  0  0
   21.3607   75.8142   22.2584 H   0  0  0  0  0  0
   17.5090   74.7970   20.3193 H   0  0  0  0  0  0
   15.5103   75.5313   21.5938 H   0  0  0  0  0  0
   17.8682   75.8621   25.1512 H   0  0  0  0  0  0
   19.8410   75.0597   23.9368 H   0  0  0  0  0  0
  1  2  1  0  0  0
  1 23  1  0  0  0
  1 24  1  0  0  0
  2  3  2  0  0  0
  2  4  1  0  0  0
  4  5  1  0  0  0
  4 25  1  0  0  0
  5  6  2  0  0  0
  5 10  1  0  0  0
  6  7  1  0  0  0
  6 26  1  0  0  0
  7  8  2  0  0  0
  7 11  1  0  0  0
  8  9  1  0  0  0
  8 27  1  0  0  0
  9 10  2  0  0  0
  9 28  1  0  0  0
 11 12  1  0  0  0
 11 15  2  0  0  0
 12 13  2  0  0  0
 13 14  1  0  0  0
 13 29  1  0  0  0
 14 15  1  0  0  0
 14 30  1  0  0  0
 15 16  1  0  0  0
 16 17  2  0  0  0
 16 22  1  0  0  0
 17 18  1  0  0  0
 17 31  1  0  0  0
 18 19  2  0  0  0
 18 32  1  0  0  0
 19 20  1  0  0  0
 19 21  1  0  0  0
 21 22  2  0  0  0
 21 33  1  0  0  0
 22 34  1  0  0  0
M  END
> <s_m_entry_id>
9734

> <s_m_entry_name>
dock_pv.174

> <s_m_Source_Path>
/home/csk/Desktop/cluster/DUD-E-result/mcr

> <s_m_Source_File>
dock_pv.maegz

> <i_m_Source_File_Index>
174

> <chembl_id>
CHEMBL3643694

> <chembl_pref_name>
None

> <i_lp_mmshare_version>
53161

> <i_f3d_flags>
0

> <r_lp_tautomer_probability>
0.499999999999999

> <s_lp_Force_Field>
OPLS_2005

> <r_lp_Energy>
15.71966

> <b_lp_Chiralities_Consistent>
1

> <s_lp_Variant>
CHEMBL1994_lig829-1

> <s_i_glide_gridfile>
glide-grid_2aa2

> <i_i_glide_lignum>
1255

> <i_i_glide_rotatable_bonds>
4

> <r_i_docking_score>
-7.78449373359267

> <r_i_glide_ligand_efficiency>
-0.353840624254212

> <r_i_glide_ligand_efficiency_sa>
-0.991475344922393

> <r_i_glide_ligand_efficiency_ln>
-1.90281421479809

> <r_i_glide_gscore>
-7.78449373359267

> <r_i_glide_lipo>
-3.12900784635542

> <r_i_glide_hbond>
-0.339053688808189

> <r_i_glide_metal>
0

> <r_i_glide_rewards>
-2.92832732750521

> <r_i_glide_evdw>
-25.276496887207

> <r_i_glide_ecoul>
-4.47168064117432

> <r_i_glide_erotb>
0.622310106798698

> <r_i_glide_esite>
-0.0758380371860477

> <r_i_glide_emodel>
-32.2387820759849

> <r_i_glide_energy>
-29.7481775283813

> <r_i_glide_einternal>
4.66546440124512

> <i_i_glide_confnum>
8

> <i_i_glide_posenum>
11

> <r_i_glide_eff_state_penalty>
0

> <s_user_duplicate_titles>
CHEMBL1994_lig829,CHEMBL1994_lig829

> <s_m_subgroup_title>
dock_pv

> <s_m_subgroupid>
dock_pv

> <b_m_subgroup_collapsed>
1

$$$$
CHEMBL1994_lig246
                    3D
 Schrodinger Suite 2021-1.
 36 37  0  0  1  0            999 V2000
   19.2183   71.2845   20.7849 C   0  0  0  0  0  0
   19.5130   71.9569   19.4257 C   0  0  2  0  0  0
   18.8027   73.3099   19.3091 C   0  0  0  0  0  0
   18.3714   71.8485   21.6888 C   0  0  0  0  0  0
   17.8417   73.0981   21.4586 N   0  0  0  0  0  0
   18.0434   73.8217   20.3064 C   0  0  0  0  0  0
   19.2089   71.0162   18.2514 C   0  0  0  0  0  0
   19.6686   69.8830   20.8612 C   0  0  0  0  0  0
   20.2285   70.4646   17.4643 C   0  0  0  0  0  0
   18.9213   73.9610   18.0511 C   0  0  0  0  0  0
   19.0354   74.4324   17.0025 N   0  0  0  0  0  0
   19.9249   69.4613   16.5553 C   0  0  0  0  0  0
   17.8962   70.5371   18.1132 C   0  0  0  0  0  0
   20.7947   69.4784   20.5996 O   0  0  0  0  0  0
   18.6401   68.9294   16.4845 C   0  0  0  0  0  0
   21.8883   70.8938   17.6695 Cl  0  0  0  0  0  0
   17.6228   69.4652   17.2697 C   0  0  0  0  0  0
   18.6411   69.0836   20.8699 O   0  0  0  0  0  0
   17.8408   71.2426   22.9698 C   0  0  0  0  0  0
   18.3801   67.8834   15.6706 F   0  0  0  0  0  0
   17.3068   75.1491   20.2805 C   0  0  0  0  0  0
   18.7371   67.7113   20.5581 C   0  0  0  0  0  0
   20.5770   72.1874   19.4296 H   0  0  0  0  0  0
   17.2063   73.4650   22.1563 H   0  0  0  0  0  0
   20.7229   69.0542   15.9604 H   0  0  0  0  0  0
   17.1067   70.9268   18.7410 H   0  0  0  0  0  0
   16.6259   69.0529   17.2214 H   0  0  0  0  0  0
   16.7654   71.1034   22.8711 H   0  0  0  0  0  0
   18.2413   70.2624   23.1881 H   0  0  0  0  0  0
   18.0296   71.8866   23.8276 H   0  0  0  0  0  0
   17.4124   75.6597   19.3255 H   0  0  0  0  0  0
   16.2411   75.0094   20.4689 H   0  0  0  0  0  0
   17.7059   75.8116   21.0491 H   0  0  0  0  0  0
   17.8321   67.1311   20.5975 H   0  0  0  0  0  0
   19.0410   67.5883   19.5241 H   0  0  0  0  0  0
   19.4300   67.2568   21.2702 H   0  0  0  0  0  0
  1  2  1  0  0  0
  1  4  2  0  0  0
  1  8  1  0  0  0
  2  3  1  0  0  0
  2  7  1  0  0  0
  2 23  1  0  0  0
  3  6  2  0  0  0
  3 10  1  0  0  0
  4  5  1  0  0  0
  4 19  1  0  0  0
  5  6  1  0  0  0
  5 24  1  0  0  0
  6 21  1  0  0  0
  7  9  2  0  0  0
  7 13  1  0  0  0
  8 14  2  0  0  0
  8 18  1  0  0  0
  9 12  1  0  0  0
  9 16  1  0  0  0
 10 11  3  0  0  0
 12 15  2  0  0  0
 12 25  1  0  0  0
 13 17  2  0  0  0
 13 26  1  0  0  0
 15 17  1  0  0  0
 15 20  1  0  0  0
 17 27  1  0  0  0
 18 22  1  0  0  0
 19 28  1  0  0  0
 19 29  1  0  0  0
 19 30  1  0  0  0
 21 31  1  0  0  0
 21 32  1  0  0  0
 21 33  1  0  0  0
 22 34  1  0  0  0
 22 35  1  0  0  0
 22 36  1  0  0  0
M  END
> <s_m_entry_id>
9735

> <s_m_entry_name>
dock_pv.175

> <s_m_Source_Path>
/home/csk/Desktop/cluster/DUD-E-result/mcr

> <s_m_Source_File>
dock_pv.maegz

> <i_m_Source_File_Index>
175

> <chembl_id>
CHEMBL1215403

> <chembl_pref_name>
None

> <i_lp_mmshare_version>
53161

> <i_f3d_flags>
0

> <r_lp_tautomer_probability>
1

> <s_lp_Force_Field>
OPLS_2005

> <r_lp_Energy>
14.608691

> <b_lp_Chiralities_Consistent>
1

> <s_lp_Variant>
CHEMBL1994_lig246-1

> <s_i_glide_gridfile>
glide-grid_2aa2

> <i_i_glide_lignum>
412

> <i_i_glide_rotatable_bonds>
3

> <r_i_docking_score>
-7.78149669213414

> <r_i_glide_ligand_efficiency>
-0.353704395097007

> <r_i_glide_ligand_efficiency_sa>
-0.991093625466314

> <r_i_glide_ligand_efficiency_ln>
-1.90208162854589

> <r_i_glide_gscore>
-7.78149669213414

> <r_i_glide_lipo>
-3.54237564728415

> <r_i_glide_hbond>
-0.219645233186748

> <r_i_glide_metal>
0

> <r_i_glide_rewards>
-2.51538640473719

> <r_i_glide_evdw>
-19.1390228271484

> <r_i_glide_ecoul>
-5.66139459609985

> <r_i_glide_erotb>
0.36309112973887

> <r_i_glide_esite>
-0.0610202058925251

> <r_i_glide_emodel>
-44.0276127382459

> <r_i_glide_energy>
-24.8004174232483

> <r_i_glide_einternal>
8.52441692352295

> <i_i_glide_confnum>
4

> <i_i_glide_posenum>
199

> <r_i_glide_eff_state_penalty>
0

> <s_user_duplicate_titles>
CHEMBL1994_lig246,687266

> <s_m_subgroup_title>
dock_pv

> <s_m_subgroupid>
dock_pv

> <b_m_subgroup_collapsed>
1

$$$$
CHEMBL1994_lig450
                    3D
 Schrodinger Suite 2021-1.
 36 38  0  0  1  0            999 V2000
   20.4168   72.2071   17.6700 O   0  0  0  0  0  0
   20.4351   70.7654   17.9348 S   0  0  0  0  0  0
   21.3761   69.8620   17.2699 O   0  0  0  0  0  0
   18.3927   75.0620   20.0865 C   0  0  0  0  0  0
   19.5284   75.0512   21.1508 C   0  0  0  0  0  0
   20.9053   75.6852   20.8700 C   0  0  0  0  0  0
   19.1844   70.8281   21.6314 C   0  0  0  0  0  0
   20.0057   71.3277   20.6194 C   0  0  0  0  0  0
   20.2683   72.6910   20.5739 C   0  0  0  0  0  0
   18.6410   71.6959   22.5856 C   0  0  0  0  0  0
   18.8959   73.0677   22.5116 C   0  0  0  0  0  0
   19.6714   73.5723   21.4710 C   0  0  0  0  0  0
   19.0326   75.8755   22.2188 O   0  0  0  0  0  0
   18.1678   75.3204   23.1663 C   0  0  0  0  0  0
   18.2410   73.9724   23.3432 N   0  0  0  0  0  0
   17.0410   76.2600   23.9350 S   0  0  0  0  0  0
   20.5916   70.4845   19.6701 N   0  0  0  0  0  0
   18.7790   70.1493   17.6551 C   0  0  0  0  0  0
   18.4875   68.6620   16.8299 S   0  0  0  0  0  0
   16.7972   68.8044   17.1654 C   0  0  0  0  0  0
   16.4813   69.9919   17.8047 C   0  0  0  0  0  0
   17.6112   70.7605   18.0889 C   0  0  0  0  0  0
   18.7692   74.8401   19.0881 H   0  0  0  0  0  0
   17.8738   76.0202   20.0700 H   0  0  0  0  0  0
   17.6019   74.3397   20.2998 H   0  0  0  0  0  0
   21.4474   75.1902   20.0701 H   0  0  0  0  0  0
   20.8060   76.7363   20.6000 H   0  0  0  0  0  0
   21.5408   75.6408   21.7559 H   0  0  0  0  0  0
   18.9611   69.7736   21.6698 H   0  0  0  0  0  0
   20.8834   73.0908   19.7851 H   0  0  0  0  0  0
   17.9815   71.3090   23.3480 H   0  0  0  0  0  0
   17.5301   73.6367   23.9809 H   0  0  0  0  0  0
   20.9043   69.5730   19.9641 H   0  0  0  0  0  0
   16.1265   68.0148   16.8698 H   0  0  0  0  0  0
   15.4745   70.2789   18.0700 H   0  0  0  0  0  0
   17.5839   71.7065   18.6112 H   0  0  0  0  0  0
  1  2  2  0  0  0
  2  3  2  0  0  0
  2 17  1  0  0  0
  2 18  1  0  0  0
  4  5  1  0  0  0
  4 23  1  0  0  0
  4 24  1  0  0  0
  4 25  1  0  0  0
  5  6  1  0  0  0
  5 12  1  0  0  0
  5 13  1  0  0  0
  6 26  1  0  0  0
  6 27  1  0  0  0
  6 28  1  0  0  0
  7  8  2  0  0  0
  7 10  1  0  0  0
  7 29  1  0  0  0
  8  9  1  0  0  0
  8 17  1  0  0  0
  9 12  2  0  0  0
  9 30  1  0  0  0
 10 11  2  0  0  0
 10 31  1  0  0  0
 11 12  1  0  0  0
 11 15  1  0  0  0
 13 14  1  0  0  0
 14 15  1  0  0  0
 14 16  2  0  0  0
 15 32  1  0  0  0
 17 33  1  0  0  0
 18 19  1  0  0  0
 18 22  2  0  0  0
 19 20  1  0  0  0
 20 21  2  0  0  0
 20 34  1  0  0  0
 21 22  1  0  0  0
 21 35  1  0  0  0
 22 36  1  0  0  0
M  END
> <s_m_entry_id>
9736

> <s_m_entry_name>
dock_pv.176

> <s_m_Source_Path>
/home/csk/Desktop/cluster/DUD-E-result/mcr

> <s_m_Source_File>
dock_pv.maegz

> <i_m_Source_File_Index>
176

> <chembl_id>
CHEMBL2181930

> <chembl_pref_name>
None

> <i_lp_mmshare_version>
53161

> <i_f3d_flags>
0

> <r_lp_tautomer_probability>
1

> <s_lp_Force_Field>
OPLS_2005

> <r_lp_Energy>
11.285302

> <b_lp_Chiralities_Consistent>
1

> <s_lp_Variant>
CHEMBL1994_lig450-1

> <s_i_glide_gridfile>
glide-grid_2aa2

> <i_i_glide_lignum>
732

> <i_i_glide_rotatable_bonds>
3

> <r_i_docking_score>
-7.77765150200805

> <r_i_glide_ligand_efficiency>
-0.353529613727638

> <r_i_glide_ligand_efficiency_sa>
-0.990603881195583

> <r_i_glide_ligand_efficiency_ln>
-1.90114172382235

> <r_i_glide_gscore>
-7.77765150200805

> <r_i_glide_lipo>
-3.46200565277937

> <r_i_glide_hbond>
-0.215802997915904

> <r_i_glide_metal>
0

> <r_i_glide_rewards>
-2.13431376219055

> <r_i_glide_evdw>
-37.7188110351562

> <r_i_glide_ecoul>
-3.34418725967407

> <r_i_glide_erotb>
0.456248460736019

> <r_i_glide_esite>
-0.0342089091493216

> <r_i_glide_emodel>
-46.3044147619711

> <r_i_glide_energy>
-41.0629982948303

> <r_i_glide_einternal>
1.11680209636688

> <i_i_glide_confnum>
9

> <i_i_glide_posenum>
127

> <r_i_glide_eff_state_penalty>
0

> <s_user_duplicate_titles>
CHEMBL1994_lig450

> <s_m_subgroup_title>
dock_pv

> <s_m_subgroupid>
dock_pv

> <b_m_subgroup_collapsed>
1

$$$$
CHEMBL1994_lig16
                    3D
 Schrodinger Suite 2021-1.
 43 45  0  0  1  0            999 V2000
   19.3783   70.5561   18.6890 C   0  0  0  0  0  0
   20.1082   74.4835   21.6741 C   0  0  0  0  0  0
   19.4809   73.1089   21.4311 C   0  0  0  0  0  0
   18.2410   73.1746   23.5126 N   0  0  0  0  0  0
   19.5679   75.0795   22.9841 C   0  0  0  0  0  0
   18.1636   74.6392   23.4390 C   0  0  0  0  0  0
   20.4886   70.6150   17.8467 C   0  0  0  0  0  0
   18.0839   69.5758   18.0700 S   0  0  0  0  0  0
   18.6970   72.4585   22.4003 C   0  0  0  0  0  0
   19.1944   71.1762   20.0039 C   0  0  0  0  0  0
   19.1560   68.9980   16.8792 C   0  0  0  0  0  0
   19.6822   72.4535   20.2215 C   0  0  0  0  0  0
   20.3052   69.7524   16.7755 C   0  0  0  0  0  0
   19.0410   66.5599   16.0699 N   0  0  0  0  0  0
   19.0410   67.6567   16.4095 C   0  0  0  0  0  0
   20.2273   75.8620   23.6268 O   0  0  0  0  0  0
   18.2410   71.1623   22.2063 C   0  0  0  0  0  0
   18.5511   70.4998   21.0333 C   0  0  0  0  0  0
   21.6547   74.3806   21.7113 C   0  0  0  0  0  0
   19.6875   75.4615   20.6079 C   0  0  0  0  0  0
   21.7919   71.3180   18.1403 C   0  0  0  0  0  0
   17.0899   75.1061   22.4171 C   0  0  0  0  0  0
   17.8472   75.1159   24.8665 C   0  0  0  0  0  0
   17.3620   72.8390   23.9024 H   0  0  0  0  0  0
   20.2229   72.9527   19.4347 H   0  0  0  0  0  0
   21.0920   69.5313   16.0701 H   0  0  0  0  0  0
   17.6398   70.6664   22.9447 H   0  0  0  0  0  0
   18.2410   69.4760   20.9019 H   0  0  0  0  0  0
   22.0064   73.8620   22.5958 H   0  0  0  0  0  0
   22.0547   73.8518   20.8464 H   0  0  0  0  0  0
   22.1289   75.3639   21.7246 H   0  0  0  0  0  0
   18.6208   75.6079   20.4702 H   0  0  0  0  0  0
   20.1555   76.4389   20.7488 H   0  0  0  0  0  0
   20.0289   75.0620   19.6700 H   0  0  0  0  0  0
   22.6387   70.8322   17.6591 H   0  0  0  0  0  0
   21.7742   72.3594   17.8223 H   0  0  0  0  0  0
   22.0242   71.3140   19.2049 H   0  0  0  0  0  0
   17.2334   76.1507   22.1447 H   0  0  0  0  0  0
   17.0528   74.5045   21.5087 H   0  0  0  0  0  0
   16.0902   75.0620   22.8445 H   0  0  0  0  0  0
   17.6995   76.1954   24.8700 H   0  0  0  0  0  0
   16.9283   74.6728   25.2456 H   0  0  0  0  0  0
   18.6361   74.8765   25.5811 H   0  0  0  0  0  0
  1  7  2  0  0  0
  1  8  1  0  0  0
  1 10  1  0  0  0
  2  3  1  0  0  0
  2  5  1  0  0  0
  2 19  1  0  0  0
  2 20  1  0  0  0
  3 12  2  0  0  0
  3  9  1  0  0  0
  4  9  1  0  0  0
  4  6  1  0  0  0
  4 24  1  0  0  0
  5 16  2  0  0  0
  5  6  1  0  0  0
  6 22  1  0  0  0
  6 23  1  0  0  0
  7 13  1  0  0  0
  7 21  1  0  0  0
  8 11  1  0  0  0
  9 17  2  0  0  0
 10 12  1  0  0  0
 10 18  2  0  0  0
 11 15  1  0  0  0
 11 13  2  0  0  0
 12 25  1  0  0  0
 13 26  1  0  0  0
 14 15  3  0  0  0
 17 18  1  0  0  0
 17 27  1  0  0  0
 18 28  1  0  0  0
 19 29  1  0  0  0
 19 30  1  0  0  0
 19 31  1  0  0  0
 20 32  1  0  0  0
 20 33  1  0  0  0
 20 34  1  0  0  0
 21 35  1  0  0  0
 21 36  1  0  0  0
 21 37  1  0  0  0
 22 38  1  0  0  0
 22 39  1  0  0  0
 22 40  1  0  0  0
 23 41  1  0  0  0
 23 42  1  0  0  0
 23 43  1  0  0  0
M  END
> <s_m_entry_id>
9737

> <s_m_entry_name>
dock_pv.177

> <s_m_Source_Path>
/home/csk/Desktop/cluster/DUD-E-result/mcr

> <s_m_Source_File>
dock_pv.maegz

> <i_m_Source_File_Index>
177

> <chembl_id>
CHEMBL132889

> <chembl_pref_name>
None

> <i_lp_mmshare_version>
53161

> <i_f3d_flags>
0

> <r_lp_tautomer_probability>
1

> <s_lp_Force_Field>
OPLS_2005

> <r_lp_Energy>
26.569088

> <b_lp_Chiralities_Consistent>
1

> <s_lp_Variant>
CHEMBL1994_lig16-1

> <s_i_glide_gridfile>
glide-grid_2aa2

> <i_i_glide_lignum>
16

> <i_i_glide_rotatable_bonds>
1

> <r_i_docking_score>
-7.77106795448833

> <r_i_glide_ligand_efficiency>
-0.337872519760362

> <r_i_glide_ligand_efficiency_sa>
-0.960864501341477

> <r_i_glide_ligand_efficiency_ln>
-1.87911469554367

> <r_i_glide_gscore>
-7.77106795448833

> <r_i_glide_lipo>
-4.08170656070685

> <r_i_glide_hbond>
-0.415508544716288

> <r_i_glide_metal>
0

> <r_i_glide_rewards>
-2.39670559399876

> <r_i_glide_evdw>
-4.14981889724731

> <r_i_glide_ecoul>
-4.74291849136353

> <r_i_glide_erotb>
0.177915284790995

> <r_i_glide_esite>
-0.136133821290528

> <r_i_glide_emodel>
-46.763755914956

> <r_i_glide_energy>
-8.89273738861084

> <r_i_glide_einternal>
2.8851010799408

> <i_i_glide_confnum>
1

> <i_i_glide_posenum>
246

> <r_i_glide_eff_state_penalty>
0

> <s_user_duplicate_titles>
CHEMBL1994_lig16

> <s_m_subgroup_title>
dock_pv

> <s_m_subgroupid>
dock_pv

> <b_m_subgroup_collapsed>
1

$$$$
CHEMBL1994_lig1067
                    3D
 Schrodinger Suite 2021-1.
 47 50  0  0  1  0            999 V2000
   19.7769   71.6468   20.1723 C   0  0  0  0  0  0
   19.0047   70.9532   21.0553 C   0  0  0  0  0  0
   18.4874   71.6181   22.1242 C   0  0  0  0  0  0
   20.1397   72.9717   20.4612 C   0  0  0  0  0  0
   19.7223   73.6369   21.6248 C   0  0  0  0  0  0
   18.8662   72.9126   22.4511 C   0  0  0  0  0  0
   18.2414   73.5044   23.5459 N   0  0  0  0  0  0
   18.1038   74.9364   23.6262 C   0  0  0  0  0  0
   19.5026   75.4965   23.3596 C   0  0  0  0  0  0
   20.1069   75.0852   22.0008 C   0  0  2  0  0  0
   19.7223   76.1049   20.9416 C   0  0  0  0  0  0
   17.6689   75.1477   25.0691 C   0  0  0  0  0  0
   17.0515   75.4419   22.6093 C   0  0  0  0  0  0
   17.4568   70.9101   22.8697 C   0  0  0  0  0  0
   21.0408   73.8187   19.3099 Cl  0  0  0  0  0  0
   20.1177   70.9480   18.9388 C   0  0  0  0  0  0
   21.4245   70.9790   18.4813 C   0  0  0  0  0  0
   21.7447   70.4863   17.2551 C   0  0  0  0  0  0
   20.8130   69.8309   16.4732 C   0  0  0  0  0  0
   19.5221   69.6159   16.9477 C   0  0  0  0  0  0
   19.1732   70.2204   18.1810 C   0  0  0  0  0  0
   17.8316   69.9341   18.3754 N   0  0  0  0  0  0
   17.3641   69.1096   17.3814 C   0  0  0  0  0  0
   18.3790   68.8964   16.4728 C   0  0  0  0  0  0
   18.7258   69.9282   20.8559 H   0  0  0  0  0  0
   17.3571   73.0763   23.8206 H   0  0  0  0  0  0
   20.1905   75.0654   24.0694 H   0  0  0  0  0  0
   19.4393   76.5713   23.5261 H   0  0  0  0  0  0
   21.1945   75.1066   22.0973 H   0  0  0  0  0  0
   19.2904   75.5901   20.0797 H   0  0  0  0  0  0
   20.6082   76.6740   20.6614 H   0  0  0  0  0  0
   18.9868   76.8358   21.2765 H   0  0  0  0  0  0
   17.4647   76.1981   25.2474 H   0  0  0  0  0  0
   16.7191   74.6597   25.2698 H   0  0  0  0  0  0
   18.3873   74.7185   25.7774 H   0  0  0  0  0  0
   16.9785   76.5252   22.6649 H   0  0  0  0  0  0
   17.2772   75.1617   21.5825 H   0  0  0  0  0  0
   16.0547   75.0633   22.8188 H   0  0  0  0  0  0
   17.4524   69.8515   22.6286 H   0  0  0  0  0  0
   17.7363   71.0683   23.9098 H   0  0  0  0  0  0
   16.5185   71.3816   22.6307 H   0  0  0  0  0  0
   22.1994   71.4717   19.0516 H   0  0  0  0  0  0
   22.7323   70.6617   16.8742 H   0  0  0  0  0  0
   21.1271   69.4611   15.5234 H   0  0  0  0  0  0
   17.2512   70.2368   19.1452 H   0  0  0  0  0  0
   16.3406   68.7603   17.4067 H   0  0  0  0  0  0
   18.3056   68.3106   15.5717 H   0  0  0  0  0  0
  1  2  2  0  0  0
  1  4  1  0  0  0
  1 16  1  0  0  0
  2  3  1  0  0  0
  2 25  1  0  0  0
  3  6  2  0  0  0
  3 14  1  0  0  0
  4 15  1  0  0  0
  4  5  2  0  0  0
  5 10  1  0  0  0
  5  6  1  0  0  0
  6  7  1  0  0  0
  7  8  1  0  0  0
  7 26  1  0  0  0
  8 12  1  0  0  0
  8 13  1  0  0  0
  8  9  1  0  0  0
  9 10  1  0  0  0
  9 27  1  0  0  0
  9 28  1  0  0  0
 10 11  1  0  0  0
 10 29  1  0  0  0
 11 30  1  0  0  0
 11 31  1  0  0  0
 11 32  1  0  0  0
 12 33  1  0  0  0
 12 34  1  0  0  0
 12 35  1  0  0  0
 13 36  1  0  0  0
 13 37  1  0  0  0
 13 38  1  0  0  0
 14 39  1  0  0  0
 14 40  1  0  0  0
 14 41  1  0  0  0
 16 21  2  0  0  0
 16 17  1  0  0  0
 17 18  2  0  0  0
 17 42  1  0  0  0
 18 19  1  0  0  0
 18 43  1  0  0  0
 19 20  2  0  0  0
 19 44  1  0  0  0
 20 21  1  0  0  0
 20 24  1  0  0  0
 21 22  1  0  0  0
 22 23  1  0  0  0
 22 45  1  0  0  0
 23 24  2  0  0  0
 23 46  1  0  0  0
 24 47  1  0  0  0
M  END
> <s_m_entry_id>
9738

> <s_m_entry_name>
dock_pv.178

> <s_m_Source_Path>
/home/csk/Desktop/cluster/DUD-E-result/mcr

> <s_m_Source_File>
dock_pv.maegz

> <i_m_Source_File_Index>
178

> <chembl_id>
CHEMBL258191

> <chembl_pref_name>
None

> <i_lp_mmshare_version>
53161

> <i_f3d_flags>
0

> <r_lp_tautomer_probability>
1

> <s_lp_Force_Field>
OPLS_2005

> <r_lp_Energy>
26.09096

> <b_lp_Chiralities_Consistent>
1

> <s_lp_Variant>
CHEMBL1994_lig1067-1

> <s_i_glide_gridfile>
glide-grid_2aa2

> <i_i_glide_lignum>
1546

> <i_i_glide_rotatable_bonds>
1

> <r_i_docking_score>
-7.77029565205993

> <r_i_glide_ligand_efficiency>
-0.32376231883583

> <r_i_glide_ligand_efficiency_sa>
-0.933892129456093

> <r_i_glide_ligand_efficiency_ln>
-1.85978830517194

> <r_i_glide_gscore>
-7.77029565205993

> <r_i_glide_lipo>
-4.92213622714736

> <r_i_glide_hbond>
-0.308214160602535

> <r_i_glide_metal>
0

> <r_i_glide_rewards>
-1.82163767992365

> <r_i_glide_evdw>
-6.57424449920654

> <r_i_glide_ecoul>
-3.30422687530518

> <r_i_glide_erotb>
0.164736297067274

> <r_i_glide_esite>
-0.058697625197552

> <r_i_glide_emodel>
-46.1389256228742

> <r_i_glide_energy>
-9.87847137451172

> <r_i_glide_einternal>
3.03198957443237

> <i_i_glide_confnum>
1

> <i_i_glide_posenum>
218

> <r_i_glide_eff_state_penalty>
0

> <s_user_duplicate_titles>
CHEMBL1994_lig1067

> <s_m_subgroup_title>
dock_pv

> <s_m_subgroupid>
dock_pv

> <b_m_subgroup_collapsed>
1

$$$$
CHEMBL1994_lig812
                    3D
 Schrodinger Suite 2021-1.
 36 37  0  0  1  0            999 V2000
   21.9326   75.6850   21.3688 C   0  0  0  0  0  0
   20.9758   74.4841   21.4204 C   0  0  2  0  0  0
   21.2428   73.5071   20.2400 C   0  0  0  0  0  0
   20.2659   72.3501   20.0466 C   0  0  0  0  0  0
   19.4536   71.8728   21.0855 C   0  0  0  0  0  0
   18.5137   70.8929   20.8035 C   0  0  0  0  0  0
   18.3759   70.3588   19.5698 N   0  0  0  0  0  0
   19.2112   70.7690   18.5687 C   0  0  0  0  0  0
   19.1474   70.2142   17.2700 N   0  0  0  0  0  0
   18.6355   69.0305   16.8701 C   0  0  0  0  0  0
   18.6410   68.6620   15.6997 O   0  0  0  0  0  0
   18.1349   68.2620   17.8261 N   0  0  0  0  0  0
   20.1553   71.7743   18.7769 C   0  0  0  0  0  0
   19.5191   74.9320   21.6365 C   0  0  0  0  0  0
   19.1502   75.3705   22.9094 C   0  0  0  0  0  0
   17.8197   75.6425   23.2084 C   0  0  0  0  0  0
   16.8487   75.4620   22.2264 C   0  0  0  0  0  0
   17.2020   75.0620   20.9409 C   0  0  0  0  0  0
   18.5390   74.8269   20.6394 C   0  0  0  0  0  0
   21.8725   76.2620   22.2893 H   0  0  0  0  0  0
   22.9676   75.3589   21.2700 H   0  0  0  0  0  0
   21.7056   76.3481   20.5335 H   0  0  0  0  0  0
   21.2421   73.9219   22.3167 H   0  0  0  0  0  0
   21.2702   74.0826   19.3152 H   0  0  0  0  0  0
   22.2357   73.0672   20.3501 H   0  0  0  0  0  0
   19.5065   72.2794   22.0837 H   0  0  0  0  0  0
   17.8432   70.5346   21.5709 H   0  0  0  0  0  0
   19.6421   70.7284   16.5592 H   0  0  0  0  0  0
   17.8410   67.2980   17.6700 H   0  0  0  0  0  0
   18.0768   68.6423   18.7599 H   0  0  0  0  0  0
   20.7887   72.1136   17.9693 H   0  0  0  0  0  0
   19.9050   75.4721   23.6701 H   0  0  0  0  0  0
   17.5401   75.9656   24.2010 H   0  0  0  0  0  0
   15.8101   75.6435   22.4619 H   0  0  0  0  0  0
   16.4453   74.9489   20.1798 H   0  0  0  0  0  0
   18.7955   74.5209   19.6368 H   0  0  0  0  0  0
  1  2  1  0  0  0
  1 20  1  0  0  0
  1 21  1  0  0  0
  1 22  1  0  0  0
  2  3  1  0  0  0
  2 14  1  0  0  0
  2 23  1  0  0  0
  3  4  1  0  0  0
  3 24  1  0  0  0
  3 25  1  0  0  0
  4  5  2  0  0  0
  4 13  1  0  0  0
  5  6  1  0  0  0
  5 26  1  0  0  0
  6  7  2  0  0  0
  6 27  1  0  0  0
  7  8  1  0  0  0
  8  9  1  0  0  0
  8 13  2  0  0  0
  9 10  1  0  0  0
  9 28  1  0  0  0
 10 11  2  0  0  0
 10 12  1  0  0  0
 12 29  1  0  0  0
 12 30  1  0  0  0
 13 31  1  0  0  0
 14 15  2  0  0  0
 14 19  1  0  0  0
 15 16  1  0  0  0
 15 32  1  0  0  0
 16 17  2  0  0  0
 16 33  1  0  0  0
 17 18  1  0  0  0
 17 34  1  0  0  0
 18 19  2  0  0  0
 18 35  1  0  0  0
 19 36  1  0  0  0
M  END
> <s_m_entry_id>
9739

> <s_m_entry_name>
dock_pv.179

> <s_m_Source_Path>
/home/csk/Desktop/cluster/DUD-E-result/mcr

> <s_m_Source_File>
dock_pv.maegz

> <i_m_Source_File_Index>
179

> <chembl_id>
CHEMBL3643677

> <chembl_pref_name>
None

> <i_lp_mmshare_version>
53161

> <i_f3d_flags>
0

> <r_lp_tautomer_probability>
1

> <s_lp_Force_Field>
OPLS_2005

> <r_lp_Energy>
7.960522

> <b_lp_Chiralities_Consistent>
1

> <s_lp_Variant>
CHEMBL1994_lig812-1

> <s_i_glide_gridfile>
glide-grid_2aa2

> <i_i_glide_lignum>
1233

> <i_i_glide_rotatable_bonds>
5

> <r_i_docking_score>
-7.76133953984127

> <r_i_glide_ligand_efficiency>
-0.408491554728488

> <r_i_glide_ligand_efficiency_sa>
-1.09001953705666

> <r_i_glide_ligand_efficiency_ln>
-1.96766627163831

> <r_i_glide_gscore>
-7.76133953984127

> <r_i_glide_lipo>
-3.87841806123408

> <r_i_glide_hbond>
-0.32

> <r_i_glide_metal>
0

> <r_i_glide_rewards>
-2.03131619877641

> <r_i_glide_evdw>
-36.8763732910156

> <r_i_glide_ecoul>
-5.12044286727905

> <r_i_glide_erotb>
1.08027981481187

> <r_i_glide_esite>
0

> <r_i_glide_emodel>
-58.1828547972838

> <r_i_glide_energy>
-41.9968161582947

> <r_i_glide_einternal>
4.24446868896484

> <i_i_glide_confnum>
2

> <i_i_glide_posenum>
349

> <r_i_glide_eff_state_penalty>
0

> <s_user_duplicate_titles>
CHEMBL1994_lig812

> <s_m_subgroup_title>
dock_pv

> <s_m_subgroupid>
dock_pv

> <b_m_subgroup_collapsed>
1

$$$$
CHEMBL1994_lig802
                    3D
 Schrodinger Suite 2021-1.
 33 34  0  0  1  0            999 V2000
   15.8410   69.0620   18.0700 N   0  0  0  0  0  0
   17.0947   69.2662   17.7130 C   0  0  0  0  0  0
   17.6210   68.6622   16.7804 O   0  0  0  0  0  0
   17.6413   70.1947   18.5071 N   0  0  0  0  0  0
   18.9358   70.7109   18.4882 C   0  0  0  0  0  0
   19.1945   71.7075   19.4307 C   0  0  0  0  0  0
   20.4619   72.2880   19.4745 C   0  0  0  0  0  0
   20.7556   73.3851   20.4854 C   0  0  0  0  0  0
   19.9497   74.6768   20.2320 C   0  0  0  0  0  0
   18.9394   75.0370   21.3103 C   0  0  0  0  0  0
   17.5681   75.0147   21.0335 C   0  0  0  0  0  0
   16.6593   75.4314   22.0040 C   0  0  0  0  0  0
   17.1212   75.8619   23.2433 C   0  0  0  0  0  0
   16.2412   76.2624   24.1857 F   0  0  0  0  0  0
   18.4825   75.8819   23.5196 C   0  0  0  0  0  0
   19.3952   75.4617   22.5590 C   0  0  0  0  0  0
   21.4409   71.8451   18.5778 C   0  0  0  0  0  0
   21.1127   70.8375   17.6703 C   0  0  0  0  0  0
   19.8838   70.2718   17.6120 N   0  0  0  0  0  0
   15.4007   69.6015   18.8062 H   0  0  0  0  0  0
   15.3221   68.3468   17.5880 H   0  0  0  0  0  0
   17.0447   70.5810   19.2193 H   0  0  0  0  0  0
   18.4299   72.0363   20.1206 H   0  0  0  0  0  0
   21.8236   73.6083   20.4693 H   0  0  0  0  0  0
   20.5592   73.0047   21.4861 H   0  0  0  0  0  0
   19.4409   74.6589   19.2675 H   0  0  0  0  0  0
   20.6476   75.5125   20.1703 H   0  0  0  0  0  0
   17.2060   74.6953   20.0668 H   0  0  0  0  0  0
   15.5987   75.4123   21.8026 H   0  0  0  0  0  0
   18.8239   76.2454   24.4709 H   0  0  0  0  0  0
   20.4536   75.4882   22.7749 H   0  0  0  0  0  0
   22.4367   72.2620   18.5853 H   0  0  0  0  0  0
   21.8400   70.4751   16.9600 H   0  0  0  0  0  0
  1  2  1  0  0  0
  1 20  1  0  0  0
  1 21  1  0  0  0
  2  3  2  0  0  0
  2  4  1  0  0  0
  4  5  1  0  0  0
  4 22  1  0  0  0
  5  6  2  0  0  0
  5 19  1  0  0  0
  6  7  1  0  0  0
  6 23  1  0  0  0
  7  8  1  0  0  0
  7 17  2  0  0  0
  8  9  1  0  0  0
  8 24  1  0  0  0
  8 25  1  0  0  0
  9 10  1  0  0  0
  9 26  1  0  0  0
  9 27  1  0  0  0
 10 11  2  0  0  0
 10 16  1  0  0  0
 11 12  1  0  0  0
 11 28  1  0  0  0
 12 13  2  0  0  0
 12 29  1  0  0  0
 13 14  1  0  0  0
 13 15  1  0  0  0
 15 16  2  0  0  0
 15 30  1  0  0  0
 16 31  1  0  0  0
 17 18  1  0  0  0
 17 32  1  0  0  0
 18 19  2  0  0  0
 18 33  1  0  0  0
M  END
> <s_m_entry_id>
9740

> <s_m_entry_name>
dock_pv.180

> <s_m_Source_Path>
/home/csk/Desktop/cluster/DUD-E-result/mcr

> <s_m_Source_File>
dock_pv.maegz

> <i_m_Source_File_Index>
180

> <chembl_id>
CHEMBL3643668

> <chembl_pref_name>
None

> <i_lp_mmshare_version>
53161

> <i_f3d_flags>
0

> <r_lp_tautomer_probability>
1

> <s_lp_Force_Field>
OPLS_2005

> <r_lp_Energy>
8.006214

> <b_lp_Chiralities_Consistent>
1

> <s_lp_Variant>
CHEMBL1994_lig802-1

> <s_i_glide_gridfile>
glide-grid_2aa2

> <i_i_glide_lignum>
1218

> <i_i_glide_rotatable_bonds>
5

> <r_i_docking_score>
-7.75509254470536

> <r_i_glide_ligand_efficiency>
-0.408162765510808

> <r_i_glide_ligand_efficiency_sa>
-1.08914219536698

> <r_i_glide_ligand_efficiency_ln>
-1.96608252419821

> <r_i_glide_gscore>
-7.75509254470536

> <r_i_glide_lipo>
-3.36768572007462

> <r_i_glide_hbond>
-0.32

> <r_i_glide_metal>
0

> <r_i_glide_rewards>
-2.68161354848602

> <r_i_glide_evdw>
-37.0568504333496

> <r_i_glide_ecoul>
-3.75978684425354

> <r_i_glide_erotb>
1.05202798948701

> <r_i_glide_esite>
-0.0210107173262071

> <r_i_glide_emodel>
-57.4619617064924

> <r_i_glide_energy>
-40.8166372776031

> <r_i_glide_einternal>
5.1499400138855

> <i_i_glide_confnum>
27

> <i_i_glide_posenum>
155

> <r_i_glide_eff_state_penalty>
0

> <s_user_duplicate_titles>
CHEMBL1994_lig802

> <s_m_subgroup_title>
dock_pv

> <s_m_subgroupid>
dock_pv

> <b_m_subgroup_collapsed>
1

$$$$
CHEMBL1994_lig66
                    3D
 Schrodinger Suite 2021-1.
 34 36  0  0  1  0            999 V2000
   19.2228   73.3871   21.3284 C   0  0  0  0  0  0
   18.5732   74.7923   23.7417 C   0  0  0  0  0  0
   19.1955   74.9190   21.3554 C   0  0  0  0  0  0
   18.6408   73.4189   23.6419 N   0  0  0  0  0  0
   18.9158   75.5206   22.6422 O   0  0  0  0  0  0
   18.8575   72.7052   22.4872 C   0  0  0  0  0  0
   19.4316   72.6527   20.1538 C   0  0  0  0  0  0
   19.1805   71.2827   20.1225 C   0  0  0  0  0  0
   19.1287   70.5439   18.8562 C   0  0  0  0  0  0
   17.7910   69.2238   17.3462 C   0  0  0  0  0  0
   17.8899   70.0427   18.4568 C   0  0  0  0  0  0
   18.2273   75.3857   24.7535 O   0  0  0  0  0  0
   18.9368   68.8788   16.6363 C   0  0  0  0  0  0
   18.6274   71.3374   22.4694 C   0  0  0  0  0  0
   18.8018   70.6271   21.2926 C   0  0  0  0  0  0
   20.2612   70.2990   18.0732 C   0  0  0  0  0  0
   20.1612   69.4632   16.9586 C   0  0  0  0  0  0
   16.2414   68.6612   16.8706 Cl  0  0  0  0  0  0
   18.8633   67.9482   15.6675 F   0  0  0  0  0  0
   17.9909   75.3233   20.4793 C   0  0  0  0  0  0
   20.5901   75.4633   20.9960 C   0  0  0  0  0  0
   18.3755   72.9334   24.4845 H   0  0  0  0  0  0
   19.6685   73.1688   19.2343 H   0  0  0  0  0  0
   17.0001   70.2681   19.0292 H   0  0  0  0  0  0
   18.2410   70.8274   23.3330 H   0  0  0  0  0  0
   18.5844   69.5692   21.2729 H   0  0  0  0  0  0
   21.2215   70.7033   18.3611 H   0  0  0  0  0  0
   21.0414   69.2203   16.3831 H   0  0  0  0  0  0
   18.1205   75.0179   19.4409 H   0  0  0  0  0  0
   17.8452   76.3973   20.4701 H   0  0  0  0  0  0
   17.0607   74.8806   20.8406 H   0  0  0  0  0  0
   20.9686   75.0412   20.0701 H   0  0  0  0  0  0
   20.5756   76.5483   20.8818 H   0  0  0  0  0  0
   21.3194   75.2254   21.7720 H   0  0  0  0  0  0
  1  3  1  0  0  0
  1  6  1  0  0  0
  1  7  2  0  0  0
  2  4  1  0  0  0
  2 12  2  0  0  0
  2  5  1  0  0  0
  3  5  1  0  0  0
  3 20  1  0  0  0
  3 21  1  0  0  0
  4  6  1  0  0  0
  4 22  1  0  0  0
  6 14  2  0  0  0
  7  8  1  0  0  0
  7 23  1  0  0  0
  8  9  1  0  0  0
  8 15  2  0  0  0
  9 11  1  0  0  0
  9 16  2  0  0  0
 10 11  2  0  0  0
 10 18  1  0  0  0
 10 13  1  0  0  0
 11 24  1  0  0  0
 13 17  2  0  0  0
 13 19  1  0  0  0
 14 15  1  0  0  0
 14 25  1  0  0  0
 15 26  1  0  0  0
 16 17  1  0  0  0
 16 27  1  0  0  0
 17 28  1  0  0  0
 20 29  1  0  0  0
 20 30  1  0  0  0
 20 31  1  0  0  0
 21 32  1  0  0  0
 21 33  1  0  0  0
 21 34  1  0  0  0
M  END
> <s_m_entry_id>
9741

> <s_m_entry_name>
dock_pv.181

> <s_m_Source_Path>
/home/csk/Desktop/cluster/DUD-E-result/mcr

> <s_m_Source_File>
dock_pv.maegz

> <i_m_Source_File_Index>
181

> <chembl_id>
CHEMBL343306

> <chembl_pref_name>
None

> <i_lp_mmshare_version>
53161

> <i_f3d_flags>
0

> <r_lp_tautomer_probability>
1

> <s_lp_Force_Field>
OPLS_2005

> <r_lp_Energy>
19.536232

> <b_lp_Chiralities_Consistent>
1

> <s_lp_Variant>
CHEMBL1994_lig66-1

> <s_i_glide_gridfile>
glide-grid_2aa2

> <i_i_glide_lignum>
86

> <i_i_glide_rotatable_bonds>
1

> <r_i_docking_score>
-7.75363745455752

> <r_i_glide_ligand_efficiency>
-0.369220831169406

> <r_i_glide_ligand_efficiency_sa>
-1.01865227650304

> <r_i_glide_ligand_efficiency_ln>
-1.91707119293962

> <r_i_glide_gscore>
-7.75363745455752

> <r_i_glide_lipo>
-3.83011533283943

> <r_i_glide_hbond>
0

> <r_i_glide_metal>
0

> <r_i_glide_rewards>
-2.25553381901399

> <r_i_glide_evdw>
-35.1352005004883

> <r_i_glide_ecoul>
-0.340607404708862

> <r_i_glide_erotb>
0.19750966795222

> <r_i_glide_esite>
-0.0576468349255749

> <r_i_glide_emodel>
-41.2901748159375

> <r_i_glide_energy>
-35.4758079051971

> <r_i_glide_einternal>
2.13040232658386

> <i_i_glide_confnum>
4

> <i_i_glide_posenum>
32

> <r_i_glide_eff_state_penalty>
0

> <s_user_duplicate_titles>
CHEMBL1994_lig66

> <s_m_subgroup_title>
dock_pv

> <s_m_subgroupid>
dock_pv

> <b_m_subgroup_collapsed>
1

$$$$
CHEMBL1994_lig822
                    3D
 Schrodinger Suite 2021-1.
 33 34  0  0  1  0            999 V2000
   18.3513   76.2620   24.0700 N   0  0  0  0  0  0
   17.3984   75.9367   23.2109 C   0  0  0  0  0  0
   16.2410   76.2620   23.4335 O   0  0  0  0  0  0
   17.7541   75.2639   22.0930 N   0  0  0  0  0  0
   19.0221   74.8244   21.6500 C   0  0  0  0  0  0
   19.0639   74.1110   20.4438 C   0  0  0  0  0  0
   20.2975   73.6336   19.9809 C   0  0  0  0  0  0
   20.4325   72.9261   18.6411 C   0  0  0  0  0  0
   20.6782   71.4060   18.7567 C   0  0  0  0  0  0
   19.5186   70.5724   18.2353 C   0  0  0  0  0  0
   18.2758   70.6273   18.8730 C   0  0  0  0  0  0
   17.2118   69.8750   18.3841 C   0  0  0  0  0  0
   17.3995   69.0619   17.2700 C   0  0  0  0  0  0
   18.6403   68.9924   16.6374 C   0  0  0  0  0  0
   19.6988   69.7576   17.1146 C   0  0  0  0  0  0
   21.4410   73.8623   20.7466 C   0  0  0  0  0  0
   21.3399   74.6266   21.8973 C   0  0  0  0  0  0
   20.1597   75.0908   22.3574 N   0  0  0  0  0  0
   19.2981   75.9791   23.8675 H   0  0  0  0  0  0
   18.1349   76.7788   24.9220 H   0  0  0  0  0  0
   16.9862   75.0232   21.4869 H   0  0  0  0  0  0
   18.1637   73.9368   19.8721 H   0  0  0  0  0  0
   21.2769   73.3830   18.1217 H   0  0  0  0  0  0
   19.5751   73.1532   18.0045 H   0  0  0  0  0  0
   20.8879   71.1105   19.7861 H   0  0  0  0  0  0
   21.5844   71.1495   18.2046 H   0  0  0  0  0  0
   18.1333   71.2539   19.7418 H   0  0  0  0  0  0
   16.2474   69.9145   18.8700 H   0  0  0  0  0  0
   16.5749   68.4687   16.9033 H   0  0  0  0  0  0
   18.7815   68.3536   15.7791 H   0  0  0  0  0  0
   20.6566   69.7069   16.6167 H   0  0  0  0  0  0
   22.4032   73.4660   20.4700 H   0  0  0  0  0  0
   22.2234   74.8522   22.4700 H   0  0  0  0  0  0
  1  2  1  0  0  0
  1 19  1  0  0  0
  1 20  1  0  0  0
  2  3  2  0  0  0
  2  4  1  0  0  0
  4  5  1  0  0  0
  4 21  1  0  0  0
  5  6  2  0  0  0
  5 18  1  0  0  0
  6  7  1  0  0  0
  6 22  1  0  0  0
  7  8  1  0  0  0
  7 16  2  0  0  0
  8  9  1  0  0  0
  8 23  1  0  0  0
  8 24  1  0  0  0
  9 10  1  0  0  0
  9 25  1  0  0  0
  9 26  1  0  0  0
 10 11  2  0  0  0
 10 15  1  0  0  0
 11 12  1  0  0  0
 11 27  1  0  0  0
 12 13  2  0  0  0
 12 28  1  0  0  0
 13 14  1  0  0  0
 13 29  1  0  0  0
 14 15  2  0  0  0
 14 30  1  0  0  0
 15 31  1  0  0  0
 16 17  1  0  0  0
 16 32  1  0  0  0
 17 18  2  0  0  0
 17 33  1  0  0  0
M  END
> <s_m_entry_id>
9742

> <s_m_entry_name>
dock_pv.182

> <s_m_Source_Path>
/home/csk/Desktop/cluster/DUD-E-result/mcr

> <s_m_Source_File>
dock_pv.maegz

> <i_m_Source_File_Index>
182

> <chembl_id>
CHEMBL3643687

> <chembl_pref_name>
None

> <i_lp_mmshare_version>
53161

> <i_f3d_flags>
0

> <r_lp_tautomer_probability>
1

> <s_lp_Force_Field>
OPLS_2005

> <r_lp_Energy>
6.93887

> <b_lp_Chiralities_Consistent>
1

> <s_lp_Variant>
CHEMBL1994_lig822-1

> <s_i_glide_gridfile>
glide-grid_2aa2

> <i_i_glide_lignum>
1248

> <i_i_glide_rotatable_bonds>
5

> <r_i_docking_score>
-7.73346740770467

> <r_i_glide_ligand_efficiency>
-0.429637078205815

> <r_i_glide_ligand_efficiency_sa>
-1.12596767425612

> <r_i_glide_ligand_efficiency_ln>
-1.98784792019125

> <r_i_glide_gscore>
-7.73346740770467

> <r_i_glide_lipo>
-3.72256399400925

> <r_i_glide_hbond>
-0.427269010339233

> <r_i_glide_metal>
0

> <r_i_glide_rewards>
-2.20787934609467

> <r_i_glide_evdw>
-36.7502212524414

> <r_i_glide_ecoul>
-4.85534620285034

> <r_i_glide_erotb>
1.19005793578811

> <r_i_glide_esite>
0

> <r_i_glide_emodel>
-57.4534464690273

> <r_i_glide_energy>
-41.6055674552917

> <r_i_glide_einternal>
4.79181718826294

> <i_i_glide_confnum>
3

> <i_i_glide_posenum>
400

> <r_i_glide_eff_state_penalty>
0

> <s_user_duplicate_titles>
CHEMBL1994_lig822

> <s_m_subgroup_title>
dock_pv

> <s_m_subgroupid>
dock_pv

> <b_m_subgroup_collapsed>
1

$$$$
CHEMBL1994_lig257
                    3D
 Schrodinger Suite 2021-1.
 42 43  0  0  1  0            999 V2000
   18.9458   73.0118   19.4683 C   0  0  0  0  0  0
   19.3182   71.5082   19.5435 C   0  0  1  0  0  0
   18.9042   70.9199   20.8648 C   0  0  0  0  0  0
   18.3064   73.6735   20.4815 C   0  0  0  0  0  0
   17.9498   72.9635   21.5923 N   0  0  0  0  0  0
   18.2346   71.6446   21.7772 C   0  0  0  0  0  0
   18.8311   70.6071   18.3935 C   0  0  0  0  0  0
   19.3445   73.5796   18.1993 C   0  0  0  0  0  0
   19.7210   69.8814   17.5820 C   0  0  0  0  0  0
   19.0399   69.5081   20.9498 C   0  0  0  0  0  0
   19.0411   68.3590   20.8700 N   0  0  0  0  0  0
   19.2126   68.9522   16.6852 C   0  0  0  0  0  0
   17.4501   70.3878   18.2623 C   0  0  0  0  0  0
   20.2410   73.0620   17.5481 O   0  0  0  0  0  0
   17.8590   68.7249   16.5762 C   0  0  0  0  0  0
   21.4411   70.0496   17.6764 Cl  0  0  0  0  0  0
   16.9654   69.4325   17.3729 C   0  0  0  0  0  0
   18.6410   74.6377   17.8192 O   0  0  0  0  0  0
   17.9077   75.1458   20.6400 C   0  0  0  0  0  0
   17.4409   67.8620   15.6378 F   0  0  0  0  0  0
   17.7024   71.1297   23.0500 C   0  0  0  0  0  0
   18.6416   75.1613   16.5031 C   0  0  0  0  0  0
   18.8879   75.9670   21.5121 C   0  0  0  0  0  0
   18.8844   75.5854   23.0061 C   0  0  0  0  0  0
   20.4078   71.4685   19.5509 H   0  0  0  0  0  0
   17.3311   73.4033   22.2625 H   0  0  0  0  0  0
   19.8414   68.3533   16.0700 H   0  0  0  0  0  0
   16.7535   70.9205   18.8932 H   0  0  0  0  0  0
   15.9074   69.2431   17.3084 H   0  0  0  0  0  0
   17.7880   75.6471   19.6890 H   0  0  0  0  0  0
   16.9032   75.2046   21.0649 H   0  0  0  0  0  0
   16.6449   70.9277   22.8700 H   0  0  0  0  0  0
   18.2410   70.2275   23.2700 H   0  0  0  0  0  0
   17.8407   71.8249   23.8812 H   0  0  0  0  0  0
   18.3880   76.2209   16.5029 H   0  0  0  0  0  0
   19.6009   75.0620   16.0030 H   0  0  0  0  0  0
   17.8470   74.6622   15.9578 H   0  0  0  0  0  0
   19.8991   75.8756   21.1118 H   0  0  0  0  0  0
   18.6411   77.0251   21.4230 H   0  0  0  0  0  0
   19.4971   76.2620   23.5968 H   0  0  0  0  0  0
   17.8767   75.6153   23.4221 H   0  0  0  0  0  0
   19.2886   74.5871   23.1714 H   0  0  0  0  0  0
  1  2  1  0  0  0
  1  4  2  0  0  0
  1  8  1  0  0  0
  2  3  1  0  0  0
  2  7  1  0  0  0
  2 25  1  0  0  0
  3  6  2  0  0  0
  3 10  1  0  0  0
  4  5  1  0  0  0
  4 19  1  0  0  0
  5  6  1  0  0  0
  5 26  1  0  0  0
  6 21  1  0  0  0
  7  9  2  0  0  0
  7 13  1  0  0  0
  8 14  2  0  0  0
  8 18  1  0  0  0
  9 12  1  0  0  0
  9 16  1  0  0  0
 10 11  3  0  0  0
 12 15  2  0  0  0
 12 27  1  0  0  0
 13 17  2  0  0  0
 13 28  1  0  0  0
 15 17  1  0  0  0
 15 20  1  0  0  0
 17 29  1  0  0  0
 18 22  1  0  0  0
 19 23  1  0  0  0
 19 30  1  0  0  0
 19 31  1  0  0  0
 21 32  1  0  0  0
 21 33  1  0  0  0
 21 34  1  0  0  0
 22 35  1  0  0  0
 22 36  1  0  0  0
 22 37  1  0  0  0
 23 24  1  0  0  0
 23 38  1  0  0  0
 23 39  1  0  0  0
 24 40  1  0  0  0
 24 41  1  0  0  0
 24 42  1  0  0  0
M  END
> <s_m_entry_id>
9743

> <s_m_entry_name>
dock_pv.183

> <s_m_Source_Path>
/home/csk/Desktop/cluster/DUD-E-result/mcr

> <s_m_Source_File>
dock_pv.maegz

> <i_m_Source_File_Index>
183

> <chembl_id>
CHEMBL1215549

> <chembl_pref_name>
None

> <i_lp_mmshare_version>
53161

> <i_f3d_flags>
0

> <r_lp_tautomer_probability>
1

> <s_lp_Force_Field>
OPLS_2005

> <r_lp_Energy>
14.636301

> <b_lp_Chiralities_Consistent>
1

> <s_lp_Variant>
CHEMBL1994_lig257-2

> <s_i_glide_gridfile>
glide-grid_2aa2

> <i_i_glide_lignum>
435

> <i_i_glide_rotatable_bonds>
5

> <r_i_docking_score>
-7.7257632469104

> <r_i_glide_ligand_efficiency>
-0.3219068019546

> <r_i_glide_ligand_efficiency_sa>
-0.928539892612458

> <r_i_glide_ligand_efficiency_ln>
-1.84912965716074

> <r_i_glide_gscore>
-7.7257632469104

> <r_i_glide_lipo>
-3.97360287494047

> <r_i_glide_hbond>
-0.203060178446577

> <r_i_glide_metal>
0

> <r_i_glide_rewards>
-2.30235463772958

> <r_i_glide_evdw>
-18.4136714935303

> <r_i_glide_ecoul>
-4.779625415802

> <r_i_glide_erotb>
0.469527051620972

> <r_i_glide_esite>
-0.0786452203679341

> <r_i_glide_emodel>
-40.8756707767951

> <r_i_glide_energy>
-23.1932969093323

> <r_i_glide_einternal>
4.07635164260864

> <i_i_glide_confnum>
8

> <i_i_glide_posenum>
295

> <r_i_glide_eff_state_penalty>
0

> <s_user_duplicate_titles>
CHEMBL1994_lig257,687415

> <s_m_subgroup_title>
dock_pv

> <s_m_subgroupid>
dock_pv

> <b_m_subgroup_collapsed>
1

$$$$
CHEMBL1994_lig543
                    3D
 Schrodinger Suite 2021-1.
 43 45  0  0  1  0            999 V2000
   16.9742   74.2934   20.6941 C   0  0  0  0  0  0
   16.2410   75.3311   21.4930 C   0  0  0  0  0  0
   16.6130   75.4620   22.9151 N   0  0  2  0  0  0
   18.2382   75.6682   23.5541 S   0  0  0  0  0  0
   19.3622   74.7851   22.4530 C   0  0  0  0  0  0
   18.5977   77.0620   23.4375 O   0  0  0  0  0  0
   18.2410   74.9845   24.8493 O   0  0  0  0  0  0
   20.3297   75.2416   21.5501 C   0  0  0  0  0  0
   20.8637   74.1810   20.9136 O   0  0  0  0  0  0
   20.2410   73.0460   21.3835 N   0  0  0  0  0  0
   19.4643   73.4102   22.3716 C   0  0  0  0  0  0
   20.9184   76.5301   21.0505 C   0  0  0  0  0  0
   18.8324   72.3551   23.2316 C   0  0  0  0  0  0
   16.8160   72.9266   20.9117 C   0  0  0  0  0  0
   17.5195   72.0217   20.1329 C   0  0  0  0  0  0
   18.3969   72.5016   19.1581 C   0  0  0  0  0  0
   18.5009   73.8620   18.8966 C   0  0  0  0  0  0
   17.7815   74.7508   19.6700 C   0  0  0  0  0  0
   19.2615   71.5805   18.4370 C   0  0  0  0  0  0
   20.6487   71.7616   18.3916 C   0  0  0  0  0  0
   21.4410   70.8813   17.6669 C   0  0  0  0  0  0
   20.8399   69.8620   16.9361 C   0  0  0  0  0  0
   19.4613   69.6821   17.0046 C   0  0  0  0  0  0
   18.6754   70.5206   17.7693 C   0  0  0  0  0  0
   18.7878   68.6620   16.2629 C   0  0  0  0  0  0
   18.2291   67.8620   15.6700 N   0  0  0  0  0  0
   16.1763   76.2620   20.9767 H   0  0  0  0  0  0
   15.2004   75.0250   21.4719 H   0  0  0  0  0  0
   16.2644   74.5975   23.3596 H   0  0  0  0  0  0
   20.1892   77.3199   20.8756 H   0  0  0  0  0  0
   21.7391   76.8849   21.6700 H   0  0  0  0  0  0
   21.3960   76.3344   20.0947 H   0  0  0  0  0  0
   17.8410   72.6294   23.5721 H   0  0  0  0  0  0
   18.7650   71.3772   22.7547 H   0  0  0  0  0  0
   19.4410   72.2620   24.1170 H   0  0  0  0  0  0
   16.1457   72.5606   21.6700 H   0  0  0  0  0  0
   17.4221   70.9630   20.3239 H   0  0  0  0  0  0
   19.1556   74.2334   18.1223 H   0  0  0  0  0  0
   17.8410   75.8104   19.4924 H   0  0  0  0  0  0
   21.1189   72.5814   18.9134 H   0  0  0  0  0  0
   22.5109   71.0244   17.6366 H   0  0  0  0  0  0
   21.4410   69.2127   16.3220 H   0  0  0  0  0  0
   17.6005   70.3930   17.8107 H   0  0  0  0  0  0
  1  2  1  0  0  0
  1 14  2  0  0  0
  1 18  1  0  0  0
  2  3  1  0  0  0
  2 27  1  0  0  0
  2 28  1  0  0  0
  3  4  1  0  0  0
  3 29  1  0  0  0
  4  5  1  0  0  0
  4  6  2  0  0  0
  4  7  2  0  0  0
  5  8  2  0  0  0
  5 11  1  0  0  0
  8  9  1  0  0  0
  8 12  1  0  0  0
  9 10  1  0  0  0
 10 11  2  0  0  0
 11 13  1  0  0  0
 12 30  1  0  0  0
 12 31  1  0  0  0
 12 32  1  0  0  0
 13 33  1  0  0  0
 13 34  1  0  0  0
 13 35  1  0  0  0
 14 15  1  0  0  0
 14 36  1  0  0  0
 15 16  2  0  0  0
 15 37  1  0  0  0
 16 17  1  0  0  0
 16 19  1  0  0  0
 17 18  2  0  0  0
 17 38  1  0  0  0
 18 39  1  0  0  0
 19 20  2  0  0  0
 19 24  1  0  0  0
 20 21  1  0  0  0
 20 40  1  0  0  0
 21 22  2  0  0  0
 21 41  1  0  0  0
 22 23  1  0  0  0
 22 42  1  0  0  0
 23 24  2  0  0  0
 23 25  1  0  0  0
 24 43  1  0  0  0
 25 26  3  0  0  0
M  END
> <s_m_entry_id>
9744

> <s_m_entry_name>
dock_pv.184

> <s_m_Source_Path>
/home/csk/Desktop/cluster/DUD-E-result/mcr

> <s_m_Source_File>
dock_pv.maegz

> <i_m_Source_File_Index>
184

> <chembl_id>
CHEMBL3086013

> <chembl_pref_name>
None

> <i_lp_mmshare_version>
53161

> <i_f3d_flags>
0

> <r_lp_tautomer_probability>
1

> <s_lp_Force_Field>
OPLS_2005

> <r_lp_Energy>
15.245188

> <b_lp_Chiralities_Consistent>
1

> <s_lp_Variant>
CHEMBL1994_lig543-1

> <s_i_glide_gridfile>
glide-grid_2aa2

> <i_i_glide_lignum>
854

> <i_i_glide_rotatable_bonds>
5

> <r_i_docking_score>
-7.72289396697118

> <r_i_glide_ligand_efficiency>
-0.297034383345045

> <r_i_glide_ligand_efficiency_sa>
-0.879963191885836

> <r_i_glide_ligand_efficiency_ln>
-1.81369630726118

> <r_i_glide_gscore>
-7.72289396697118

> <r_i_glide_lipo>
-4.3007901080781

> <r_i_glide_hbond>
-0.651658243187039

> <r_i_glide_metal>
0

> <r_i_glide_rewards>
-1.21310351056353

> <r_i_glide_evdw>
-22.2559127807617

> <r_i_glide_ecoul>
-7.71884870529175

> <r_i_glide_erotb>
0.713280839689332

> <r_i_glide_esite>
0

> <r_i_glide_emodel>
-24.0321647202973

> <r_i_glide_energy>
-29.9747614860535

> <r_i_glide_einternal>
7.2377610206604

> <i_i_glide_confnum>
156

> <i_i_glide_posenum>
364

> <r_i_glide_eff_state_penalty>
0

> <s_user_duplicate_titles>
CHEMBL1994_lig543

> <s_m_subgroup_title>
dock_pv

> <s_m_subgroupid>
dock_pv

> <b_m_subgroup_collapsed>
1

$$$$
CHEMBL1994_lig816
                    3D
 Schrodinger Suite 2021-1.
 36 37  0  0  1  0            999 V2000
   18.3439   76.2620   24.0700 N   0  0  0  0  0  0
   17.3943   75.9218   23.2127 C   0  0  0  0  0  0
   16.2410   76.2620   23.4240 O   0  0  0  0  0  0
   17.7483   75.2240   22.1090 N   0  0  0  0  0  0
   19.0185   74.7840   21.6766 C   0  0  0  0  0  0
   19.1042   74.2104   20.3991 C   0  0  0  0  0  0
   20.3525   73.7658   19.9402 C   0  0  0  0  0  0
   20.5629   73.2466   18.5245 C   0  0  0  0  0  0
   21.1044   71.8186   18.4252 C   0  0  0  0  0  0
   20.0992   70.7801   18.8537 C   0  0  0  0  0  0
   20.2410   70.1138   20.0693 C   0  0  0  0  0  0
   19.3986   69.0620   20.3898 C   0  0  0  0  0  0
   18.3917   68.6966   19.5063 C   0  0  0  0  0  0
   18.1587   69.4390   18.3463 C   0  0  0  0  0  0
   19.0355   70.4668   18.0108 C   0  0  0  0  0  0
   16.9611   69.1499   17.4675 C   0  0  0  0  0  0
   16.2520   70.2618   17.2701 F   0  0  0  0  0  0
   17.3577   68.6619   16.2934 F   0  0  0  0  0  0
   16.1827   68.2620   18.0672 F   0  0  0  0  0  0
   21.4587   73.8859   20.7760 C   0  0  0  0  0  0
   21.3118   74.4893   22.0127 C   0  0  0  0  0  0
   20.1207   74.9205   22.4700 N   0  0  0  0  0  0
   19.2871   75.9546   23.8883 H   0  0  0  0  0  0
   18.1233   76.7875   24.9157 H   0  0  0  0  0  0
   16.9874   75.0085   21.4848 H   0  0  0  0  0  0
   18.2314   74.1329   19.7669 H   0  0  0  0  0  0
   19.6635   73.3787   17.9208 H   0  0  0  0  0  0
   21.3306   73.8620   18.0700 H   0  0  0  0  0  0
   21.3826   71.6071   17.3912 H   0  0  0  0  0  0
   22.0337   71.7087   18.9864 H   0  0  0  0  0  0
   21.0410   70.3599   20.7416 H   0  0  0  0  0  0
   19.5706   68.4719   21.2703 H   0  0  0  0  0  0
   17.7835   67.8382   19.7459 H   0  0  0  0  0  0
   18.8952   71.0149   17.0931 H   0  0  0  0  0  0
   22.4292   73.5323   20.4700 H   0  0  0  0  0  0
   22.1616   74.6090   22.6621 H   0  0  0  0  0  0
  1  2  1  0  0  0
  1 23  1  0  0  0
  1 24  1  0  0  0
  2  3  2  0  0  0
  2  4  1  0  0  0
  4  5  1  0  0  0
  4 25  1  0  0  0
  5  6  2  0  0  0
  5 22  1  0  0  0
  6  7  1  0  0  0
  6 26  1  0  0  0
  7  8  1  0  0  0
  7 20  2  0  0  0
  8  9  1  0  0  0
  8 27  1  0  0  0
  8 28  1  0  0  0
  9 10  1  0  0  0
  9 29  1  0  0  0
  9 30  1  0  0  0
 10 11  2  0  0  0
 10 15  1  0  0  0
 11 12  1  0  0  0
 11 31  1  0  0  0
 12 13  2  0  0  0
 12 32  1  0  0  0
 13 14  1  0  0  0
 13 33  1  0  0  0
 14 15  2  0  0  0
 14 16  1  0  0  0
 15 34  1  0  0  0
 16 17  1  0  0  0
 16 18  1  0  0  0
 16 19  1  0  0  0
 20 21  1  0  0  0
 20 35  1  0  0  0
 21 22  2  0  0  0
 21 36  1  0  0  0
M  END
> <s_m_entry_id>
9745

> <s_m_entry_name>
dock_pv.185

> <s_m_Source_Path>
/home/csk/Desktop/cluster/DUD-E-result/mcr

> <s_m_Source_File>
dock_pv.maegz

> <i_m_Source_File_Index>
185

> <chembl_id>
CHEMBL3643681

> <chembl_pref_name>
None

> <i_lp_mmshare_version>
53161

> <i_f3d_flags>
0

> <r_lp_tautomer_probability>
1

> <s_lp_Force_Field>
OPLS_2005

> <r_lp_Energy>
8.724637

> <b_lp_Chiralities_Consistent>
1

> <s_lp_Variant>
CHEMBL1994_lig816-1

> <s_i_glide_gridfile>
glide-grid_2aa2

> <i_i_glide_lignum>
1241

> <i_i_glide_rotatable_bonds>
6

> <r_i_docking_score>
-7.71442498288269

> <r_i_glide_ligand_efficiency>
-0.350655681040122

> <r_i_glide_ligand_efficiency_sa>
-0.982551008779804

> <r_i_glide_ligand_efficiency_ln>
-1.88568685630479

> <r_i_glide_gscore>
-7.71442498288269

> <r_i_glide_lipo>
-3.52931332482997

> <r_i_glide_hbond>
-0.423597563126323

> <r_i_glide_metal>
0

> <r_i_glide_rewards>
-2.25286571478325

> <r_i_glide_evdw>
-29.5583667755127

> <r_i_glide_ecoul>
-5.36602020263672

> <r_i_glide_erotb>
0.774172989027991

> <r_i_glide_esite>
0

> <r_i_glide_emodel>
-51.9037026707995

> <r_i_glide_energy>
-34.9243869781494

> <r_i_glide_einternal>
2.14108467102051

> <i_i_glide_confnum>
10

> <i_i_glide_posenum>
83

> <r_i_glide_eff_state_penalty>
0

> <s_user_duplicate_titles>
CHEMBL1994_lig816

> <s_m_subgroup_title>
dock_pv

> <s_m_subgroupid>
dock_pv

> <b_m_subgroup_collapsed>
1

$$$$
CHEMBL1994_lig164
                    3D
 Schrodinger Suite 2021-1.
 49 50  0  0  1  0            999 V2000
   17.9753   72.4718   19.9973 C   0  0  0  0  0  0
   18.1453   70.9968   19.7177 C   0  0  0  0  0  0
   18.9053   70.1875   20.5640 C   0  0  0  0  0  0
   19.0395   68.8337   20.2941 C   0  0  0  0  0  0
   18.4661   68.3035   19.1373 C   0  0  0  0  0  0
   17.8418   69.1394   18.2133 C   0  0  0  0  0  0
   17.5949   70.4658   18.5466 C   0  0  0  0  0  0
   19.2568   75.0630   22.4786 C   0  0  0  0  0  0
   18.6167   76.3025   22.3946 C   0  0  0  0  0  0
   17.6576   76.6775   23.3357 C   0  0  0  0  0  0
   17.3405   75.8609   24.3953 C   0  0  0  0  0  0
   17.9298   74.6188   24.4696 C   0  0  0  0  0  0
   18.8033   74.1710   23.4751 C   0  0  0  0  0  0
   20.4832   74.7290   21.5786 C   0  0  0  0  0  0
   19.1533   73.4137   19.6179 C   0  0  2  0  0  0
   20.2701   73.4317   20.7269 C   0  0  0  0  0  0
   18.4807   74.6618   19.6124 O   0  0  0  0  0  0
   19.7792   73.1449   18.1903 C   0  0  0  0  0  0
   19.1371   73.8618   17.2701 F   0  0  0  0  0  0
   21.0639   73.4620   18.1030 F   0  0  0  0  0  0
   19.7782   71.8863   17.7650 F   0  0  0  0  0  0
   21.0101   75.8881   20.7043 C   0  0  0  0  0  0
   21.6618   74.5540   22.5032 C   0  0  0  0  0  0
   17.0429   77.8627   23.2704 F   0  0  0  0  0  0
   19.2418   72.8699   23.5013 O   0  0  0  0  0  0
   18.2412   71.8699   23.6223 C   0  0  0  0  0  0
   17.6045   68.6620   16.8643 C   0  0  0  0  0  0
   17.4409   68.2620   15.7891 N   0  0  0  0  0  0
   17.7374   72.6120   21.0394 H   0  0  0  0  0  0
   17.0451   72.7655   19.5274 H   0  0  0  0  0  0
   19.4124   70.5884   21.4201 H   0  0  0  0  0  0
   19.6100   68.2009   20.9581 H   0  0  0  0  0  0
   18.6409   67.2615   18.9029 H   0  0  0  0  0  0
   17.0836   71.1186   17.8514 H   0  0  0  0  0  0
   18.8774   77.0211   21.6328 H   0  0  0  0  0  0
   16.6398   76.1909   25.1470 H   0  0  0  0  0  0
   17.6560   73.9600   25.2699 H   0  0  0  0  0  0
   21.2391   73.1553   20.3157 H   0  0  0  0  0  0
   20.1086   72.5974   21.3940 H   0  0  0  0  0  0
   18.2421   74.8822   20.5171 H   0  0  0  0  0  0
   21.8416   75.5745   20.0699 H   0  0  0  0  0  0
   20.2412   76.2614   20.0700 H   0  0  0  0  0  0
   21.3550   76.7536   21.2700 H   0  0  0  0  0  0
   22.5820   74.2221   22.0179 H   0  0  0  0  0  0
   21.8411   75.4810   23.0492 H   0  0  0  0  0  0
   21.3817   73.8621   23.2682 H   0  0  0  0  0  0
   18.6254   70.9200   23.2700 H   0  0  0  0  0  0
   17.8423   71.7778   24.6327 H   0  0  0  0  0  0
   17.4406   72.0657   22.9418 H   0  0  0  0  0  0
  1  2  1  0  0  0
  1 15  1  0  0  0
  1 29  1  0  0  0
  1 30  1  0  0  0
  2  7  1  0  0  0
  2  3  2  0  0  0
  3  4  1  0  0  0
  3 31  1  0  0  0
  4  5  2  0  0  0
  4 32  1  0  0  0
  5  6  1  0  0  0
  5 33  1  0  0  0
  6  7  2  0  0  0
  6 27  1  0  0  0
  7 34  1  0  0  0
  8  9  2  0  0  0
  8 13  1  0  0  0
  8 14  1  0  0  0
  9 10  1  0  0  0
  9 35  1  0  0  0
 10 11  2  0  0  0
 10 24  1  0  0  0
 11 12  1  0  0  0
 11 36  1  0  0  0
 12 13  2  0  0  0
 12 37  1  0  0  0
 13 25  1  0  0  0
 14 16  1  0  0  0
 14 22  1  0  0  0
 14 23  1  0  0  0
 15 16  1  0  0  0
 15 17  1  0  0  0
 15 18  1  0  0  0
 16 38  1  0  0  0
 16 39  1  0  0  0
 17 40  1  0  0  0
 18 19  1  0  0  0
 18 20  1  0  0  0
 18 21  1  0  0  0
 22 41  1  0  0  0
 22 42  1  0  0  0
 22 43  1  0  0  0
 23 44  1  0  0  0
 23 45  1  0  0  0
 23 46  1  0  0  0
 25 26  1  0  0  0
 26 47  1  0  0  0
 26 48  1  0  0  0
 26 49  1  0  0  0
 27 28  3  0  0  0
M  END
> <s_m_entry_id>
9746

> <s_m_entry_name>
dock_pv.186

> <s_m_Source_Path>
/home/csk/Desktop/cluster/DUD-E-result/mcr

> <s_m_Source_File>
dock_pv.maegz

> <i_m_Source_File_Index>
186

> <chembl_id>
CHEMBL401219

> <chembl_pref_name>
None

> <i_lp_mmshare_version>
53161

> <i_f3d_flags>
0

> <r_lp_tautomer_probability>
1

> <s_lp_Force_Field>
OPLS_2005

> <r_lp_Energy>
33.186255

> <b_lp_Chiralities_Consistent>
1

> <s_lp_Variant>
CHEMBL1994_lig164-1

> <s_i_glide_gridfile>
glide-grid_2aa2

> <i_i_glide_lignum>
277

> <i_i_glide_rotatable_bonds>
8

> <r_i_docking_score>
-7.7138957748302

> <r_i_glide_ligand_efficiency>
-0.275496277672507

> <r_i_glide_ligand_efficiency_sa>
-0.836568957643924

> <r_i_glide_ligand_efficiency_ln>
-1.78059363465236

> <r_i_glide_gscore>
-7.7138957748302

> <r_i_glide_lipo>
-4.39275677683779

> <r_i_glide_hbond>
-0.32

> <r_i_glide_metal>
0

> <r_i_glide_rewards>
-2.41364568843496

> <r_i_glide_evdw>
-8.92732429504395

> <r_i_glide_ecoul>
-5.03562498092651

> <r_i_glide_erotb>
0.625406055057289

> <r_i_glide_esite>
-0.0111894027235624

> <r_i_glide_emodel>
-18.248156825766

> <r_i_glide_energy>
-13.9629492759705

> <r_i_glide_einternal>
13.9275999069214

> <i_i_glide_confnum>
69

> <i_i_glide_posenum>
131

> <r_i_glide_eff_state_penalty>
0

> <s_user_duplicate_titles>
CHEMBL1994_lig164

> <s_m_subgroup_title>
dock_pv

> <s_m_subgroupid>
dock_pv

> <b_m_subgroup_collapsed>
1

$$$$
CHEMBL1994_lig1042
                    3D
 Schrodinger Suite 2021-1.
 44 47  0  0  1  0            999 V2000
   17.1695   71.6719   20.3908 C   0  0  0  0  0  0
   19.8091   72.1334   19.7662 C   0  0  0  0  0  0
   17.7914   70.8495   19.4707 C   0  0  0  0  0  0
   19.1252   71.0905   19.1225 C   0  0  0  0  0  0
   19.6895   70.2281   18.0530 C   0  0  0  0  0  0
   18.8577   69.3642   17.4080 C   0  0  0  0  0  0
   17.4357   69.2276   17.6782 C   0  0  0  0  0  0
   17.0419   69.8854   18.7853 N   0  0  0  0  0  0
   19.1215   73.0347   20.5905 C   0  0  0  0  0  0
   17.7494   72.8532   20.7683 C   0  0  0  0  0  0
   16.9091   73.7415   21.4024 O   0  0  0  0  0  0
   17.4981   74.9988   21.7159 C   0  0  0  0  0  0
   18.9205   74.7787   22.2757 C   0  0  2  0  0  0
   19.6973   74.1520   21.1737 N   0  0  0  0  0  0
   21.1451   70.4219   17.6623 C   0  0  0  0  0  0
   21.3713   69.8836   16.4760 F   0  0  0  0  0  0
   21.4197   71.7114   17.5567 F   0  0  0  0  0  0
   21.9417   69.8669   18.5734 F   0  0  0  0  0  0
   16.6415   68.6619   16.9391 O   0  0  0  0  0  0
   18.8910   74.0829   23.6636 C   0  0  0  0  0  0
   21.1364   74.2708   21.3498 C   0  0  0  0  0  0
   21.6871   75.5413   20.7035 C   0  0  0  0  0  0
   21.1383   76.9530   20.8704 C   0  0  0  0  0  0
   22.2243   76.4184   21.7645 C   0  0  0  0  0  0
   18.6428   72.5634   23.7471 C   0  0  0  0  0  0
   16.2464   71.4614   20.8471 H   0  0  0  0  0  0
   20.8561   72.2835   19.5876 H   0  0  0  0  0  0
   19.2366   68.7430   16.6096 H   0  0  0  0  0  0
   16.0538   69.8143   18.9837 H   0  0  0  0  0  0
   16.8747   75.5362   22.4317 H   0  0  0  0  0  0
   17.5403   75.6267   20.8220 H   0  0  0  0  0  0
   19.3193   75.7647   22.4850 H   0  0  0  0  0  0
   19.8567   74.2740   24.1074 H   0  0  0  0  0  0
   18.1764   74.5931   24.3124 H   0  0  0  0  0  0
   21.6953   73.4263   20.9620 H   0  0  0  0  0  0
   21.3806   74.1955   22.4104 H   0  0  0  0  0  0
   22.2409   75.3695   19.7810 H   0  0  0  0  0  0
   20.1123   77.0619   21.2094 H   0  0  0  0  0  0
   21.4403   77.8208   20.2866 H   0  0  0  0  0  0
   23.2680   76.6613   21.6703 H   0  0  0  0  0  0
   21.9515   76.2352   22.8071 H   0  0  0  0  0  0
   18.5867   72.2541   24.7887 H   0  0  0  0  0  0
   17.7193   72.2378   23.2842 H   0  0  0  0  0  0
   19.4402   72.0010   23.2697 H   0  0  0  0  0  0
  1  3  1  0  0  0
  1 10  2  0  0  0
  1 26  1  0  0  0
  2  9  2  0  0  0
  2  4  1  0  0  0
  2 27  1  0  0  0
  3  4  2  0  0  0
  3  8  1  0  0  0
  4  5  1  0  0  0
  5 15  1  0  0  0
  5  6  2  0  0  0
  6  7  1  0  0  0
  6 28  1  0  0  0
  7  8  1  0  0  0
  7 19  2  0  0  0
  8 29  1  0  0  0
  9 14  1  0  0  0
  9 10  1  0  0  0
 10 11  1  0  0  0
 11 12  1  0  0  0
 12 13  1  0  0  0
 12 30  1  0  0  0
 12 31  1  0  0  0
 13 14  1  0  0  0
 13 20  1  0  0  0
 13 32  1  0  0  0
 14 21  1  0  0  0
 15 16  1  0  0  0
 15 17  1  0  0  0
 15 18  1  0  0  0
 20 25  1  0  0  0
 20 33  1  0  0  0
 20 34  1  0  0  0
 21 22  1  0  0  0
 21 35  1  0  0  0
 21 36  1  0  0  0
 22 23  1  0  0  0
 22 24  1  0  0  0
 22 37  1  0  0  0
 23 24  1  0  0  0
 23 38  1  0  0  0
 23 39  1  0  0  0
 24 40  1  0  0  0
 24 41  1  0  0  0
 25 42  1  0  0  0
 25 43  1  0  0  0
 25 44  1  0  0  0
M  END
> <s_m_entry_id>
9747

> <s_m_entry_name>
dock_pv.187

> <s_m_Source_Path>
/home/csk/Desktop/cluster/DUD-E-result/mcr

> <s_m_Source_File>
dock_pv.maegz

> <i_m_Source_File_Index>
187

> <chembl_id>
CHEMBL389481

> <chembl_pref_name>
None

> <i_lp_mmshare_version>
53161

> <i_f3d_flags>
0

> <r_lp_tautomer_probability>
1

> <s_lp_Force_Field>
OPLS_2005

> <r_lp_Energy>
37.281464

> <b_lp_Chiralities_Consistent>
1

> <s_lp_Variant>
CHEMBL1994_lig1042-1

> <s_i_glide_gridfile>
glide-grid_2aa2

> <i_i_glide_lignum>
1504

> <i_i_glide_rotatable_bonds>
4

> <r_i_docking_score>
-7.69411915075016

> <r_i_glide_ligand_efficiency>
-0.307764766030006

> <r_i_glide_ligand_efficiency_sa>
-0.899909634103105

> <r_i_glide_ligand_efficiency_ln>
-1.82373681287254

> <r_i_glide_gscore>
-7.69411915075016

> <r_i_glide_lipo>
-3.90094234382384

> <r_i_glide_hbond>
-0.25579711402385

> <r_i_glide_metal>
0

> <r_i_glide_rewards>
-2.36022393234327

> <r_i_glide_evdw>
-23.0184535980225

> <r_i_glide_ecoul>
-2.22024536132812

> <r_i_glide_erotb>
0.307429333923733

> <r_i_glide_esite>
-0.000625610382591806

> <r_i_glide_emodel>
-22.7997307180523

> <r_i_glide_energy>
-25.2386989593506

> <r_i_glide_einternal>
12.6304788589478

> <i_i_glide_confnum>
11

> <i_i_glide_posenum>
388

> <r_i_glide_eff_state_penalty>
0

> <s_user_duplicate_titles>
CHEMBL1994_lig1042

> <s_m_subgroup_title>
dock_pv

> <s_m_subgroupid>
dock_pv

> <b_m_subgroup_collapsed>
1

$$$$
CHEMBL1994_lig907
                    3D
 Schrodinger Suite 2021-1.
 44 47  0  0  1  0            999 V2000
   17.8985   75.8805   22.4889 C   0  0  2  0  0  0
   17.9291   72.5815   21.0800 C   0  0  0  0  0  0
   18.7142   71.8697   21.9933 C   0  0  0  0  0  0
   19.1036   70.5750   21.6566 C   0  0  0  0  0  0
   17.4412   72.0346   19.9407 N   0  0  0  0  0  0
   17.8214   70.7821   19.6407 C   0  0  0  0  0  0
   18.6415   70.0237   20.4654 C   0  0  0  0  0  0
   19.0629   68.7835   20.0579 O   0  0  0  0  0  0
   18.2107   68.1157   19.0973 C   0  0  0  0  0  0
   17.5957   69.0291   17.9891 C   0  0  0  0  0  0
   17.4065   70.2835   18.4210 N   0  0  0  0  0  0
   17.3095   68.6624   16.8495 O   0  0  0  0  0  0
   18.0502   73.9473   21.0414 N   0  0  0  0  0  0
   17.0989   74.9033   21.5928 C   0  0  0  0  0  0
   18.7928   76.5709   21.6133 O   0  0  0  0  0  0
   19.7459   75.7029   20.9794 C   0  0  0  0  0  0
   18.9868   74.6318   20.1268 C   0  0  1  0  0  0
   19.8989   73.6624   19.3503 C   0  0  0  0  0  0
   19.5501   73.2071   18.0690 C   0  0  0  0  0  0
   20.3398   72.2298   17.4499 C   0  0  0  0  0  0
   21.4511   71.7268   18.0716 C   0  0  0  0  0  0
   21.8407   72.2627   19.2698 C   0  0  0  0  0  0
   21.0642   73.1903   19.9422 C   0  0  0  0  0  0
   18.6782   75.2834   23.6836 C   0  0  0  0  0  0
   17.8410   74.7930   24.6984 O   0  0  0  0  0  0
   17.2154   76.6401   22.8713 H   0  0  0  0  0  0
   19.1448   72.3498   22.8570 H   0  0  0  0  0  0
   19.8152   70.0365   22.2603 H   0  0  0  0  0  0
   18.6859   67.2567   18.6383 H   0  0  0  0  0  0
   17.3790   67.7415   19.6712 H   0  0  0  0  0  0
   16.9825   70.9116   17.7573 H   0  0  0  0  0  0
   16.6414   75.4638   20.7753 H   0  0  0  0  0  0
   16.2305   74.4666   22.0760 H   0  0  0  0  0  0
   20.3973   75.2509   21.7242 H   0  0  0  0  0  0
   20.4377   76.2978   20.3963 H   0  0  0  0  0  0
   18.3982   75.1404   19.3634 H   0  0  0  0  0  0
   18.6693   73.5900   17.5746 H   0  0  0  0  0  0
   20.2410   71.8616   16.4495 H   0  0  0  0  0  0
   22.0798   71.0056   17.5707 H   0  0  0  0  0  0
   22.7932   71.9782   19.6695 H   0  0  0  0  0  0
   21.3937   73.5288   20.9116 H   0  0  0  0  0  0
   19.3431   74.4728   23.3979 H   0  0  0  0  0  0
   19.3128   76.0766   24.0701 H   0  0  0  0  0  0
   17.2634   74.1103   24.3294 H   0  0  0  0  0  0
  1 14  1  0  0  0
  1 15  1  0  0  0
  1 24  1  0  0  0
  1 26  1  0  0  0
  2  3  2  0  0  0
  2  5  1  0  0  0
  2 13  1  0  0  0
  3  4  1  0  0  0
  3 27  1  0  0  0
  4  7  2  0  0  0
  4 28  1  0  0  0
  5  6  2  0  0  0
  6  7  1  0  0  0
  6 11  1  0  0  0
  7  8  1  0  0  0
  8  9  1  0  0  0
  9 10  1  0  0  0
  9 29  1  0  0  0
  9 30  1  0  0  0
 10 11  1  0  0  0
 10 12  2  0  0  0
 11 31  1  0  0  0
 13 14  1  0  0  0
 13 17  1  0  0  0
 14 32  1  0  0  0
 14 33  1  0  0  0
 15 16  1  0  0  0
 16 17  1  0  0  0
 16 34  1  0  0  0
 16 35  1  0  0  0
 17 18  1  0  0  0
 17 36  1  0  0  0
 18 19  2  0  0  0
 18 23  1  0  0  0
 19 20  1  0  0  0
 19 37  1  0  0  0
 20 21  2  0  0  0
 20 38  1  0  0  0
 21 22  1  0  0  0
 21 39  1  0  0  0
 22 23  2  0  0  0
 22 40  1  0  0  0
 23 41  1  0  0  0
 24 25  1  0  0  0
 24 42  1  0  0  0
 24 43  1  0  0  0
 25 44  1  0  0  0
M  END
> <s_m_entry_id>
9748

> <s_m_entry_name>
dock_pv.188

> <s_m_Source_Path>
/home/csk/Desktop/cluster/DUD-E-result/mcr

> <s_m_Source_File>
dock_pv.maegz

> <i_m_Source_File_Index>
188

> <chembl_id>
CHEMBL4081584

> <chembl_pref_name>
None

> <i_lp_mmshare_version>
53161

> <i_f3d_flags>
0

> <r_lp_tautomer_probability>
1

> <s_lp_Force_Field>
OPLS_2005

> <r_lp_Energy>
35.338043

> <b_lp_Chiralities_Consistent>
1

> <s_lp_Variant>
CHEMBL1994_lig907-1

> <s_i_glide_gridfile>
glide-grid_2aa2

> <i_i_glide_lignum>
1340

> <i_i_glide_rotatable_bonds>
4

> <r_i_docking_score>
-7.69129044828144

> <r_i_glide_ligand_efficiency>
-0.307651617931258

> <r_i_glide_ligand_efficiency_sa>
-0.899578787055674

> <r_i_glide_ligand_efficiency_ln>
-1.82306632561809

> <r_i_glide_gscore>
-7.69129044828144

> <r_i_glide_lipo>
-3.65045611049923

> <r_i_glide_hbond>
-0.32

> <r_i_glide_metal>
0

> <r_i_glide_rewards>
-2.17101814394074

> <r_i_glide_evdw>
-24.7319030761719

> <r_i_glide_ecoul>
-5.34041976928711

> <r_i_glide_erotb>
0.487841925360183

> <r_i_glide_esite>
0

> <r_i_glide_emodel>
-71.4871689552217

> <r_i_glide_energy>
-30.072322845459

> <r_i_glide_einternal>
2.92289161682129

> <i_i_glide_confnum>
61

> <i_i_glide_posenum>
27

> <r_i_glide_eff_state_penalty>
0

> <s_user_duplicate_titles>
CHEMBL1994_lig907

> <s_m_subgroup_title>
dock_pv

> <s_m_subgroupid>
dock_pv

> <b_m_subgroup_collapsed>
1

$$$$
CHEMBL1994_lig691
                    3D
 Schrodinger Suite 2021-1.
 41 44  0  0  1  0            999 V2000
   16.7308   69.1620   18.4798 O   0  0  0  0  0  0
   16.7407   68.7838   17.0831 C   0  0  0  0  0  0
   18.1681   68.7431   16.4733 C   0  0  0  0  0  0
   18.8523   69.8334   16.8751 N   0  0  0  0  0  0
   18.4481   70.7172   17.8886 C   0  0  0  0  0  0
   17.4050   70.3394   18.7333 C   0  0  0  0  0  0
   19.1392   71.8883   18.1625 C   0  0  0  0  0  0
   19.0119   72.4746   19.4283 C   0  0  0  0  0  0
   17.9929   72.0747   20.2833 C   0  0  0  0  0  0
   17.1475   71.0621   19.8996 C   0  0  0  0  0  0
   18.5827   67.8970   15.6835 O   0  0  0  0  0  0
   21.2884   74.6564   21.2259 N   0  0  0  0  0  0
   22.1144   73.7568   20.7418 N   0  0  0  0  0  0
   21.4382   73.0433   19.8581 C   0  0  0  0  0  0
   20.0752   73.2999   20.0254 C   0  0  0  0  0  0
   19.9878   74.3279   20.9687 C   0  0  0  0  0  0
   22.1203   72.0322   18.9000 C   0  0  0  0  0  0
   21.8382   75.7943   21.9420 C   0  0  0  0  0  0
   18.8350   74.9444   21.6536 C   0  0  0  0  0  0
   17.6207   75.0638   20.9779 C   0  0  0  0  0  0
   16.4973   75.4621   21.6782 C   0  0  0  0  0  0
   16.6346   75.8621   23.0013 C   0  0  0  0  0  0
   17.8378   75.7789   23.6757 C   0  0  0  0  0  0
   18.9372   75.2797   23.0080 C   0  0  0  0  0  0
   15.5567   76.2622   23.6705 F   0  0  0  0  0  0
   16.2170   67.8626   16.9145 H   0  0  0  0  0  0
   16.2420   69.5542   16.4970 H   0  0  0  0  0  0
   19.7582   69.9470   16.4469 H   0  0  0  0  0  0
   19.8408   72.2583   17.4391 H   0  0  0  0  0  0
   17.8926   72.4703   21.2834 H   0  0  0  0  0  0
   16.4135   70.7399   20.6152 H   0  0  0  0  0  0
   21.6590   71.9428   17.9328 H   0  0  0  0  0  0
   23.0986   72.2744   18.5261 H   0  0  0  0  0  0
   22.1551   71.0077   19.2688 H   0  0  0  0  0  0
   21.8219   75.6226   23.0153 H   0  0  0  0  0  0
   22.8674   75.9806   21.6391 H   0  0  0  0  0  0
   21.2483   76.6582   21.6669 H   0  0  0  0  0  0
   17.5302   74.7922   19.9366 H   0  0  0  0  0  0
   15.5318   75.4931   21.2005 H   0  0  0  0  0  0
   17.8967   76.0450   24.7199 H   0  0  0  0  0  0
   19.8404   75.1204   23.5745 H   0  0  0  0  0  0
  1  2  1  0  0  0
  1  6  1  0  0  0
  2  3  1  0  0  0
  2 26  1  0  0  0
  2 27  1  0  0  0
  3  4  1  0  0  0
  3 11  2  0  0  0
  4  5  1  0  0  0
  4 28  1  0  0  0
  5  6  1  0  0  0
  5  7  2  0  0  0
  6 10  2  0  0  0
  7  8  1  0  0  0
  7 29  1  0  0  0
  8  9  2  0  0  0
  8 15  1  0  0  0
  9 10  1  0  0  0
  9 30  1  0  0  0
 10 31  1  0  0  0
 12 13  1  0  0  0
 12 16  1  0  0  0
 12 18  1  0  0  0
 13 14  2  0  0  0
 14 15  1  0  0  0
 14 17  1  0  0  0
 15 16  2  0  0  0
 16 19  1  0  0  0
 17 32  1  0  0  0
 17 33  1  0  0  0
 17 34  1  0  0  0
 18 35  1  0  0  0
 18 36  1  0  0  0
 18 37  1  0  0  0
 19 20  1  0  0  0
 19 24  2  0  0  0
 20 21  2  0  0  0
 20 38  1  0  0  0
 21 22  1  0  0  0
 21 39  1  0  0  0
 22 23  2  0  0  0
 22 25  1  0  0  0
 23 24  1  0  0  0
 23 40  1  0  0  0
 24 41  1  0  0  0
M  END
> <s_m_entry_id>
9749

> <s_m_entry_name>
dock_pv.189

> <s_m_Source_Path>
/home/csk/Desktop/cluster/DUD-E-result/mcr

> <s_m_Source_File>
dock_pv.maegz

> <i_m_Source_File_Index>
189

> <chembl_id>
CHEMBL3337726

> <chembl_pref_name>
None

> <i_lp_mmshare_version>
53161

> <i_f3d_flags>
0

> <r_lp_tautomer_probability>
1

> <s_lp_Force_Field>
OPLS_2005

> <r_lp_Energy>
24.206459

> <b_lp_Chiralities_Consistent>
1

> <s_lp_Variant>
CHEMBL1994_lig691-1

> <s_i_glide_gridfile>
glide-grid_2aa2

> <i_i_glide_lignum>
1103

> <i_i_glide_rotatable_bonds>
2

> <r_i_docking_score>
-7.68609772861183

> <r_i_glide_ligand_efficiency>
-0.307443909144473

> <r_i_glide_ligand_efficiency_sa>
-0.898971442879385

> <r_i_glide_ligand_efficiency_ln>
-1.82183549544314

> <r_i_glide_gscore>
-7.68609772861183

> <r_i_glide_lipo>
-3.78390617886584

> <r_i_glide_hbond>
-0.125364619371165

> <r_i_glide_metal>
0

> <r_i_glide_rewards>
-2.69992054531645

> <r_i_glide_evdw>
-19.8123226165771

> <r_i_glide_ecoul>
-2.65409207344055

> <r_i_glide_erotb>
0.332117384852904

> <r_i_glide_esite>
-0.0202938280663314

> <r_i_glide_emodel>
-44.8258150664926

> <r_i_glide_energy>
-22.4664146900177

> <r_i_glide_einternal>
1.13246536254883

> <i_i_glide_confnum>
4

> <i_i_glide_posenum>
54

> <r_i_glide_eff_state_penalty>
0

> <s_user_duplicate_titles>
CHEMBL1994_lig691

> <s_m_subgroup_title>
dock_pv

> <s_m_subgroupid>
dock_pv

> <b_m_subgroup_collapsed>
1

$$$$
CHEMBL1994_lig356
                    3D
 Schrodinger Suite 2021-1.
 47 49  0  0  1  0            999 V2000
   17.0815   76.2554   24.2816 C   0  0  0  0  0  0
   17.3161   75.0759   24.8691 N   0  0  0  0  0  0
   18.2477   74.2372   24.3895 C   0  0  0  0  0  0
   17.8338   76.7148   23.2220 C   0  0  0  0  0  0
   18.7770   75.8435   22.6481 C   0  0  0  0  0  0
   18.9708   74.5899   23.2639 C   0  0  0  0  0  0
   19.8955   73.9180   22.5234 N   0  0  0  0  0  0
   20.2206   74.6067   21.3825 C   0  0  0  0  0  0
   19.6629   75.8594   21.5277 C   0  0  0  0  0  0
   20.9938   73.9313   20.2520 C   0  0  0  0  0  0
   20.1316   72.9249   19.3973 C   0  0  1  0  0  0
   19.5100   71.9065   20.3834 C   0  0  0  0  0  0
   18.9907   73.5753   18.5368 C   0  0  0  0  0  0
   18.1450   72.6615   18.0729 F   0  0  0  0  0  0
   18.2467   74.4183   19.2502 F   0  0  0  0  0  0
   19.4333   74.2317   17.4645 F   0  0  0  0  0  0
   21.0399   72.2437   18.5456 O   0  0  0  0  0  0
   19.3205   70.3925   20.1490 C   0  0  0  0  0  0
   18.6922   69.9499   18.7915 C   0  0  0  0  0  0
   20.6392   69.6376   20.4467 C   0  0  0  0  0  0
   18.4182   70.0020   21.3342 C   0  0  0  0  0  0
   19.4892   69.4700   17.7374 C   0  0  0  0  0  0
   18.9287   68.8362   16.6341 C   0  0  0  0  0  0
   17.5515   68.6755   16.5639 C   0  0  0  0  0  0
   16.7347   69.2082   17.5549 C   0  0  0  0  0  0
   17.2999   69.8614   18.6421 C   0  0  0  0  0  0
   16.3369   76.8832   24.7426 H   0  0  0  0  0  0
   18.3350   73.2762   24.8722 H   0  0  0  0  0  0
   17.6215   77.7016   22.8711 H   0  0  0  0  0  0
   20.2168   72.9765   22.6851 H   0  0  0  0  0  0
   19.7880   76.6841   20.8525 H   0  0  0  0  0  0
   21.8460   73.4009   20.6822 H   0  0  0  0  0  0
   21.4631   74.6691   19.6259 H   0  0  0  0  0  0
   18.5745   72.3504   20.7343 H   0  0  0  0  0  0
   20.1483   71.8980   21.2609 H   0  0  0  0  0  0
   20.5448   71.5815   18.0587 H   0  0  0  0  0  0
   21.0074   69.8627   21.4460 H   0  0  0  0  0  0
   20.4571   68.5728   20.4706 H   0  0  0  0  0  0
   21.4391   69.8622   19.7418 H   0  0  0  0  0  0
   18.8678   70.2598   22.2970 H   0  0  0  0  0  0
   17.4642   70.5326   21.3426 H   0  0  0  0  0  0
   18.2536   68.9332   21.2772 H   0  0  0  0  0  0
   20.5659   69.5216   17.7833 H   0  0  0  0  0  0
   19.5639   68.4437   15.8556 H   0  0  0  0  0  0
   17.1063   68.1900   15.7126 H   0  0  0  0  0  0
   15.6643   69.1051   17.5011 H   0  0  0  0  0  0
   16.6272   70.2500   19.3894 H   0  0  0  0  0  0
  1  2  2  0  0  0
  1  4  1  0  0  0
  1 27  1  0  0  0
  2  3  1  0  0  0
  3  6  2  0  0  0
  3 28  1  0  0  0
  4  5  2  0  0  0
  4 29  1  0  0  0
  5  9  1  0  0  0
  5  6  1  0  0  0
  6  7  1  0  0  0
  7  8  1  0  0  0
  7 30  1  0  0  0
  8  9  2  0  0  0
  8 10  1  0  0  0
  9 31  1  0  0  0
 10 11  1  0  0  0
 10 32  1  0  0  0
 10 33  1  0  0  0
 11 17  1  0  0  0
 11 12  1  0  0  0
 11 13  1  0  0  0
 12 18  1  0  0  0
 12 34  1  0  0  0
 12 35  1  0  0  0
 13 14  1  0  0  0
 13 15  1  0  0  0
 13 16  1  0  0  0
 17 36  1  0  0  0
 18 19  1  0  0  0
 18 20  1  0  0  0
 18 21  1  0  0  0
 19 22  2  0  0  0
 19 26  1  0  0  0
 20 37  1  0  0  0
 20 38  1  0  0  0
 20 39  1  0  0  0
 21 40  1  0  0  0
 21 41  1  0  0  0
 21 42  1  0  0  0
 22 23  1  0  0  0
 22 43  1  0  0  0
 23 24  2  0  0  0
 23 44  1  0  0  0
 24 25  1  0  0  0
 24 45  1  0  0  0
 25 26  2  0  0  0
 25 46  1  0  0  0
 26 47  1  0  0  0
M  END
> <s_m_entry_id>
9751

> <s_m_entry_name>
dock_pv.191

> <s_m_Source_Path>
/home/csk/Desktop/cluster/DUD-E-result/mcr

> <s_m_Source_File>
dock_pv.maegz

> <i_m_Source_File_Index>
191

> <chembl_id>
CHEMBL1253986

> <chembl_pref_name>
None

> <i_lp_mmshare_version>
53161

> <i_f3d_flags>
0

> <r_lp_tautomer_probability>
0.999762906630677

> <s_lp_Force_Field>
OPLS_2005

> <r_lp_Energy>
26.840096

> <b_lp_Chiralities_Consistent>
1

> <s_lp_Variant>
CHEMBL1994_lig356-2

> <s_i_glide_gridfile>
glide-grid_2aa2

> <i_i_glide_lignum>
592

> <i_i_glide_rotatable_bonds>
7

> <r_i_docking_score>
-7.67570467140436

> <r_i_glide_ligand_efficiency>
-0.295219410438629

> <r_i_glide_ligand_efficiency_sa>
-0.874586341792153

> <r_i_glide_ligand_efficiency_ln>
-1.80261405603802

> <r_i_glide_gscore>
-7.67570467140436

> <r_i_glide_lipo>
-5.07700795360399

> <r_i_glide_hbond>
-0.0432149493029239

> <r_i_glide_metal>
0

> <r_i_glide_rewards>
-2.27996542552017

> <r_i_glide_evdw>
-20.8562850952148

> <r_i_glide_ecoul>
2.1910719871521

> <r_i_glide_erotb>
0.438637113710649

> <r_i_glide_esite>
0

> <r_i_glide_emodel>
-50.2271739740709

> <r_i_glide_energy>
-18.6652131080627

> <r_i_glide_einternal>
5.10639810562134

> <i_i_glide_confnum>
19

> <i_i_glide_posenum>
171

> <r_i_glide_eff_state_penalty>
0

> <s_user_duplicate_titles>
CHEMBL1994_lig356

> <s_m_subgroup_title>
dock_pv

> <s_m_subgroupid>
dock_pv

> <b_m_subgroup_collapsed>
1

$$$$
CHEMBL1994_lig785
                    3D
 Schrodinger Suite 2021-1.
 37 39  0  0  1  0            999 V2000
   17.6864   74.9309   19.7432 C   0  0  0  0  0  0
   17.6167   75.2034   21.2300 C   0  0  0  0  0  0
   16.3619   75.4620   21.7791 C   0  0  0  0  0  0
   16.2481   75.8650   23.1027 C   0  0  0  0  0  0
   17.3711   75.9591   23.9127 C   0  0  0  0  0  0
   18.6218   75.6624   23.3889 C   0  0  0  0  0  0
   18.7566   75.2860   22.0491 C   0  0  0  0  0  0
   20.0424   74.9519   21.5877 N   0  0  0  0  0  0
   21.0168   75.8620   21.6814 N   0  0  0  0  0  0
   22.0945   75.2630   21.2700 C   0  0  0  0  0  0
   21.8410   73.9580   20.8700 C   0  0  0  0  0  0
   20.4866   73.7650   21.0402 C   0  0  0  0  0  0
   19.6357   72.6028   20.6979 C   0  0  0  0  0  0
   18.5909   72.1934   21.5304 C   0  0  0  0  0  0
   17.7030   71.2420   21.0513 C   0  0  0  0  0  0
   17.8411   70.6620   19.8342 N   0  0  0  0  0  0
   18.9154   70.9901   19.0607 C   0  0  0  0  0  0
   19.1611   70.3848   17.8092 N   0  0  0  0  0  0
   18.6202   69.2863   17.2404 C   0  0  0  0  0  0
   19.0219   68.8587   16.1640 O   0  0  0  0  0  0
   17.6468   68.6620   17.8952 N   0  0  0  0  0  0
   19.8244   71.9690   19.4653 C   0  0  0  0  0  0
   17.0410   75.6652   19.2700 H   0  0  0  0  0  0
   18.6817   75.0620   19.3224 H   0  0  0  0  0  0
   17.3247   73.9325   19.5068 H   0  0  0  0  0  0
   15.4705   75.4040   21.1733 H   0  0  0  0  0  0
   15.2818   76.1258   23.4982 H   0  0  0  0  0  0
   17.2706   76.2618   24.9425 H   0  0  0  0  0  0
   19.4852   75.7218   24.0279 H   0  0  0  0  0  0
   23.0410   75.7733   21.2691 H   0  0  0  0  0  0
   22.5437   73.2410   20.4714 H   0  0  0  0  0  0
   18.4205   72.6532   22.4937 H   0  0  0  0  0  0
   16.8427   70.9561   21.6389 H   0  0  0  0  0  0
   19.9250   70.7896   17.2915 H   0  0  0  0  0  0
   17.4198   67.6998   17.6700 H   0  0  0  0  0  0
   17.2609   69.0924   18.7231 H   0  0  0  0  0  0
   20.6416   72.2656   18.8229 H   0  0  0  0  0  0
  1  2  1  0  0  0
  1 23  1  0  0  0
  1 24  1  0  0  0
  1 25  1  0  0  0
  2  3  2  0  0  0
  2  7  1  0  0  0
  3  4  1  0  0  0
  3 26  1  0  0  0
  4  5  2  0  0  0
  4 27  1  0  0  0
  5  6  1  0  0  0
  5 28  1  0  0  0
  6  7  2  0  0  0
  6 29  1  0  0  0
  7  8  1  0  0  0
  8  9  1  0  0  0
  8 12  1  0  0  0
  9 10  2  0  0  0
 10 11  1  0  0  0
 10 30  1  0  0  0
 11 12  2  0  0  0
 11 31  1  0  0  0
 12 13  1  0  0  0
 13 14  2  0  0  0
 13 22  1  0  0  0
 14 15  1  0  0  0
 14 32  1  0  0  0
 15 16  2  0  0  0
 15 33  1  0  0  0
 16 17  1  0  0  0
 17 18  1  0  0  0
 17 22  2  0  0  0
 18 19  1  0  0  0
 18 34  1  0  0  0
 19 20  2  0  0  0
 19 21  1  0  0  0
 21 35  1  0  0  0
 21 36  1  0  0  0
 22 37  1  0  0  0
M  END
> <s_m_entry_id>
9752

> <s_m_entry_name>
dock_pv.192

> <s_m_Source_Path>
/home/csk/Desktop/cluster/DUD-E-result/mcr

> <s_m_Source_File>
dock_pv.maegz

> <i_m_Source_File_Index>
192

> <chembl_id>
CHEMBL3643651

> <chembl_pref_name>
None

> <i_lp_mmshare_version>
53161

> <i_f3d_flags>
0

> <r_lp_tautomer_probability>
1

> <s_lp_Force_Field>
OPLS_2005

> <r_lp_Energy>
15.001674

> <b_lp_Chiralities_Consistent>
1

> <s_lp_Variant>
CHEMBL1994_lig785-1

> <s_i_glide_gridfile>
glide-grid_2aa2

> <i_i_glide_lignum>
1201

> <i_i_glide_rotatable_bonds>
4

> <r_i_docking_score>
-7.67053515362597

> <r_i_glide_ligand_efficiency>
-0.348660688801181

> <r_i_glide_ligand_efficiency_sa>
-0.976960962067697

> <r_i_glide_ligand_efficiency_ln>
-1.87495858111403

> <r_i_glide_gscore>
-7.67053515362597

> <r_i_glide_lipo>
-3.71231137606665

> <r_i_glide_hbond>
-0.32

> <r_i_glide_metal>
0

> <r_i_glide_rewards>
-2.00955793243464

> <r_i_glide_evdw>
-36.3723297119141

> <r_i_glide_ecoul>
-2.98083686828613

> <r_i_glide_erotb>
0.637076170713939

> <r_i_glide_esite>
0

> <r_i_glide_emodel>
-52.7630071789306

> <r_i_glide_energy>
-39.3531665802002

> <r_i_glide_einternal>
3.23969411849976

> <i_i_glide_confnum>
34

> <i_i_glide_posenum>
398

> <r_i_glide_eff_state_penalty>
0

> <s_user_duplicate_titles>
CHEMBL1994_lig785

> <s_m_subgroup_title>
dock_pv

> <s_m_subgroupid>
dock_pv

> <b_m_subgroup_collapsed>
1

$$$$
CHEMBL1994_lig535
                    3D
 Schrodinger Suite 2021-1.
 43 45  0  0  1  0            999 V2000
   18.3397   71.8664   21.9050 C   0  0  0  0  0  0
   18.3142   72.8676   23.0470 C   0  0  0  0  0  0
   19.4700   73.7748   23.0151 N   0  0  2  0  0  0
   19.4645   75.0779   21.8312 S   0  0  0  0  0  0
   19.6983   74.2620   20.2525 C   0  0  0  0  0  0
   18.1433   75.7090   21.8395 O   0  0  0  0  0  0
   20.6788   75.8603   22.0692 O   0  0  0  0  0  0
   17.3327   71.9876   20.9593 C   0  0  0  0  0  0
   17.4111   71.2737   19.7825 C   0  0  0  0  0  0
   18.4507   70.3813   19.5549 C   0  0  0  0  0  0
   19.4150   70.1739   20.5448 C   0  0  0  0  0  0
   19.3535   70.9159   21.7231 C   0  0  0  0  0  0
   18.5251   69.7279   18.3130 N   0  0  0  0  0  0
   19.6522   69.4856   17.5717 C   0  0  0  0  0  0
   19.2280   68.7954   16.4551 C   0  0  0  0  0  0
   17.9234   68.6616   16.4264 N   0  0  0  0  0  0
   17.5022   69.2341   17.5255 C   0  0  0  0  0  0
   16.0390   69.3283   17.8646 C   0  0  0  0  0  0
   20.9148   73.6317   19.9520 C   0  0  0  0  0  0
   21.0408   72.9103   18.7650 C   0  0  0  0  0  0
   19.9984   72.8656   17.8541 C   0  0  0  0  0  0
   18.8136   73.5511   18.1110 C   0  0  0  0  0  0
   18.6613   74.2515   19.3097 C   0  0  0  0  0  0
   22.1254   73.7332   20.8577 C   0  0  0  0  0  0
   17.4412   73.5094   22.9158 H   0  0  0  0  0  0
   18.2660   72.3445   24.0032 H   0  0  0  0  0  0
   20.3640   73.2829   23.0337 H   0  0  0  0  0  0
   16.5330   72.7021   21.0910 H   0  0  0  0  0  0
   16.6612   71.4630   19.0395 H   0  0  0  0  0  0
   20.2185   69.4651   20.4043 H   0  0  0  0  0  0
   20.1128   70.7463   22.4709 H   0  0  0  0  0  0
   20.6290   69.7908   17.9183 H   0  0  0  0  0  0
   19.8413   68.3917   15.6700 H   0  0  0  0  0  0
   15.4638   68.6621   17.2475 H   0  0  0  0  0  0
   15.6134   70.3116   17.6703 H   0  0  0  0  0  0
   15.8248   69.0436   18.8895 H   0  0  0  0  0  0
   21.9625   72.4003   18.5234 H   0  0  0  0  0  0
   20.1490   72.3119   16.9404 H   0  0  0  0  0  0
   18.0079   73.5126   17.3933 H   0  0  0  0  0  0
   17.7301   74.7594   19.5146 H   0  0  0  0  0  0
   22.8860   73.0622   20.4696 H   0  0  0  0  0  0
   22.5361   74.7431   20.8702 H   0  0  0  0  0  0
   21.8949   73.4644   21.8792 H   0  0  0  0  0  0
  1  2  1  0  0  0
  1  8  2  0  0  0
  1 12  1  0  0  0
  2  3  1  0  0  0
  2 25  1  0  0  0
  2 26  1  0  0  0
  3  4  1  0  0  0
  3 27  1  0  0  0
  4  5  1  0  0  0
  4  6  2  0  0  0
  4  7  2  0  0  0
  5 19  2  0  0  0
  5 23  1  0  0  0
  8  9  1  0  0  0
  8 28  1  0  0  0
  9 10  2  0  0  0
  9 29  1  0  0  0
 10 11  1  0  0  0
 10 13  1  0  0  0
 11 12  2  0  0  0
 11 30  1  0  0  0
 12 31  1  0  0  0
 13 14  1  0  0  0
 13 17  1  0  0  0
 14 15  2  0  0  0
 14 32  1  0  0  0
 15 16  1  0  0  0
 15 33  1  0  0  0
 16 17  2  0  0  0
 17 18  1  0  0  0
 18 34  1  0  0  0
 18 35  1  0  0  0
 18 36  1  0  0  0
 19 20  1  0  0  0
 19 24  1  0  0  0
 20 21  2  0  0  0
 20 37  1  0  0  0
 21 22  1  0  0  0
 21 38  1  0  0  0
 22 23  2  0  0  0
 22 39  1  0  0  0
 23 40  1  0  0  0
 24 41  1  0  0  0
 24 42  1  0  0  0
 24 43  1  0  0  0
M  END
> <s_m_entry_id>
9753

> <s_m_entry_name>
dock_pv.193

> <s_m_Source_Path>
/home/csk/Desktop/cluster/DUD-E-result/mcr

> <s_m_Source_File>
dock_pv.maegz

> <i_m_Source_File_Index>
193

> <chembl_id>
CHEMBL3086021

> <chembl_pref_name>
None

> <i_lp_mmshare_version>
53161

> <i_f3d_flags>
0

> <r_lp_tautomer_probability>
1

> <s_lp_Force_Field>
OPLS_2005

> <r_lp_Energy>
17.272353

> <b_lp_Chiralities_Consistent>
1

> <s_lp_Variant>
CHEMBL1994_lig535-1

> <s_i_glide_gridfile>
glide-grid_2aa2

> <i_i_glide_lignum>
846

> <i_i_glide_rotatable_bonds>
5

> <r_i_docking_score>
-7.66989657854269

> <r_i_glide_ligand_efficiency>
-0.319579024105945

> <r_i_glide_ligand_efficiency_sa>
-0.921825419415584

> <r_i_glide_ligand_efficiency_ln>
-1.83575819986598

> <r_i_glide_gscore>
-7.66989657854269

> <r_i_glide_lipo>
-4.09731177086003

> <r_i_glide_hbond>
0

> <r_i_glide_metal>
0

> <r_i_glide_rewards>
-2.61519238225153

> <r_i_glide_evdw>
-30.5535621643066

> <r_i_glide_ecoul>
-1.61666941642761

> <r_i_glide_erotb>
0.812786095248346

> <r_i_glide_esite>
0

> <r_i_glide_emodel>
-44.7329008666237

> <r_i_glide_energy>
-32.1702315807343

> <r_i_glide_einternal>
3.81870365142822

> <i_i_glide_confnum>
250

> <i_i_glide_posenum>
100

> <r_i_glide_eff_state_penalty>
0

> <s_user_duplicate_titles>
CHEMBL1994_lig535

> <s_m_subgroup_title>
dock_pv

> <s_m_subgroupid>
dock_pv

> <b_m_subgroup_collapsed>
1

$$$$
CHEMBL1994_lig69
                    3D
 Schrodinger Suite 2021-1.
 57 60  0  0  1  0            999 V2000
   18.8911   73.2160   21.3315 C   0  0  1  0  0  0
   19.9184   73.0827   20.1645 C   0  0  2  0  0  0
   18.5484   69.9058   18.3564 C   0  0  1  0  0  0
   19.7510   69.7063   17.4072 C   0  0  0  0  0  0
   18.6099   71.3345   18.9461 C   0  0  2  0  0  0
   20.0188   71.7009   19.4998 C   0  0  1  0  0  0
   19.2743   74.6528   21.8610 C   0  0  1  0  0  0
   18.2421   73.4329   24.3538 N   0  3  0  0  0  0
   19.6176   69.0611   16.2485 C   0  0  0  0  0  0
   17.5073   72.9070   20.6941 C   0  0  0  0  0  0
   18.9713   72.1300   22.4760 C   0  0  0  0  0  0
   18.2287   74.4489   24.8706 N   0  5  0  0  0  0
   21.1743   73.8450   20.5556 C   0  0  0  0  0  0
   17.4424   71.5758   19.9340 C   0  0  0  0  0  0
   17.1890   69.7581   17.6041 C   0  0  0  0  0  0
   20.5893   75.1000   21.1768 C   0  0  0  0  0  0
   21.0340   71.6384   18.3576 C   0  0  0  0  0  0
   18.2685   72.2845   23.7228 C   0  0  0  0  0  0
   21.1304   70.1984   17.8577 C   0  0  0  0  0  0
   18.3630   68.6624   15.6780 C   0  0  0  0  0  0
   19.4416   71.0222   22.2708 O   0  0  0  0  0  0
   18.2354   68.6620   14.4701 O   0  0  0  0  0  0
   18.1873   75.7704   21.8489 C   0  0  2  0  0  0
   17.1618   68.6193   16.5998 C   0  0  0  0  0  0
   18.6446   68.7722   19.3950 C   0  0  0  0  0  0
   18.6196   76.6618   22.8440 O   0  0  0  0  0  0
   16.7073   75.4544   22.1949 C   0  0  0  0  0  0
   20.3632   70.9562   20.2087 H   0  0  0  0  0  0
   19.5208   73.7006   19.3529 H   0  0  0  0  0  0
   18.4385   72.0452   18.1316 H   0  0  0  0  0  0
   19.6842   74.5645   22.8588 H   0  0  0  0  0  0
   20.5174   68.9813   15.6701 H   0  0  0  0  0  0
   16.6838   72.9441   21.4030 H   0  0  0  0  0  0
   17.2942   73.6882   19.9665 H   0  0  0  0  0  0
   21.7877   74.0966   19.6935 H   0  0  0  0  0  0
   21.7831   73.2938   21.2674 H   0  0  0  0  0  0
   16.4838   71.4540   19.4424 H   0  0  0  0  0  0
   17.4409   70.7922   20.6858 H   0  0  0  0  0  0
   16.3719   69.5943   18.3080 H   0  0  0  0  0  0
   16.9303   70.6808   17.0850 H   0  0  0  0  0  0
   20.3888   75.8451   20.4107 H   0  0  0  0  0  0
   21.2918   75.5667   21.8689 H   0  0  0  0  0  0
   20.7654   72.3332   17.5594 H   0  0  0  0  0  0
   22.0148   71.9712   18.6986 H   0  0  0  0  0  0
   17.6953   71.4690   24.1567 H   0  0  0  0  0  0
   21.5362   69.5298   18.6232 H   0  0  0  0  0  0
   21.8405   70.1673   17.0315 H   0  0  0  0  0  0
   18.2029   76.2695   20.8837 H   0  0  0  0  0  0
   16.2403   68.5782   16.0216 H   0  0  0  0  0  0
   17.2433   67.7059   17.1486 H   0  0  0  0  0  0
   17.8411   68.7695   20.0678 H   0  0  0  0  0  0
   18.6382   67.7841   18.9315 H   0  0  0  0  0  0
   19.5316   68.8392   20.0252 H   0  0  0  0  0  0
   17.8461   77.0280   23.2860 H   0  0  0  0  0  0
   16.1823   74.8522   21.4659 H   0  0  0  0  0  0
   16.0276   76.2766   22.1821 H   0  0  0  0  0  0
   16.5576   75.0589   23.1824 H   0  0  0  0  0  0
  1  2  1  0  0  0
  1  7  1  0  0  0
  1 10  1  0  0  0
  1 11  1  0  0  0
  2  6  1  0  0  0
  2 13  1  0  0  0
  2 29  1  0  0  0
  3  5  1  0  0  0
  3  4  1  0  0  0
  3 15  1  0  0  0
  3 25  1  0  0  0
  4  9  2  0  0  0
  4 19  1  0  0  0
  5 14  1  0  0  0
  5  6  1  0  0  0
  5 30  1  0  0  0
  6 17  1  0  0  0
  6 28  1  0  0  0
  7 16  1  0  0  0
  7 23  1  0  0  0
  7 31  1  0  0  0
  8 18  2  0  0  0
  8 12  2  0  0  0
  9 20  1  0  0  0
  9 32  1  0  0  0
 10 14  1  0  0  0
 10 33  1  0  0  0
 10 34  1  0  0  0
 11 18  1  0  0  0
 11 21  2  0  0  0
 13 16  1  0  0  0
 13 35  1  0  0  0
 13 36  1  0  0  0
 14 37  1  0  0  0
 14 38  1  0  0  0
 15 24  1  0  0  0
 15 39  1  0  0  0
 15 40  1  0  0  0
 16 41  1  0  0  0
 16 42  1  0  0  0
 17 19  1  0  0  0
 17 43  1  0  0  0
 17 44  1  0  0  0
 18 45  1  0  0  0
 19 46  1  0  0  0
 19 47  1  0  0  0
 20 24  1  0  0  0
 20 22  2  0  0  0
 23 26  1  0  0  0
 23 27  1  0  0  0
 23 48  1  0  0  0
 24 49  1  0  0  0
 24 50  1  0  0  0
 25 51  1  0  0  0
 25 52  1  0  0  0
 25 53  1  0  0  0
 26 54  1  0  0  0
 27 55  1  0  0  0
 27 56  1  0  0  0
 27 57  1  0  0  0
M  CHG  2   8   1  12  -1
M  END
> <s_m_entry_id>
9754

> <s_m_entry_name>
dock_pv.194

> <s_m_Source_Path>
/home/csk/Desktop/cluster/DUD-E-result/mcr

> <s_m_Source_File>
dock_pv.maegz

> <i_m_Source_File_Index>
194

> <chembl_id>
CHEMBL2112398

> <chembl_pref_name>
None

> <i_lp_mmshare_version>
53161

> <i_f3d_flags>
0

> <r_lp_tautomer_probability>
1

> <s_lp_Force_Field>
OPLS_2005

> <r_lp_Energy>
56.542706

> <b_lp_Chiralities_Consistent>
1

> <s_lp_Variant>
CHEMBL1994_lig69-5

> <s_i_glide_gridfile>
glide-grid_2aa2

> <i_i_glide_lignum>
93

> <i_i_glide_rotatable_bonds>
4

> <r_i_docking_score>
-7.6470137833807

> <r_i_glide_ligand_efficiency>
-0.283222732717804

> <r_i_glide_ligand_efficiency_sa>
-0.849668197219955

> <r_i_glide_ligand_efficiency_ln>
-1.78009873789583

> <r_i_glide_gscore>
-7.6470137833807

> <r_i_glide_lipo>
-4.65202614906427

> <r_i_glide_hbond>
-0.00602822776166895

> <r_i_glide_metal>
0

> <r_i_glide_rewards>
-2.22386439285712

> <r_i_glide_evdw>
-8.23233890533447

> <r_i_glide_ecoul>
-4.45281314849854

> <r_i_glide_erotb>
0.421667868898011

> <r_i_glide_esite>
-0.107223965054141

> <r_i_glide_emodel>
-23.8708961478421

> <r_i_glide_energy>
-12.685152053833

> <r_i_glide_einternal>
29.4383907318115

> <i_i_glide_confnum>
6

> <i_i_glide_posenum>
118

> <r_i_glide_eff_state_penalty>
0

> <s_user_duplicate_titles>
CHEMBL1994_lig69

> <s_m_subgroup_title>
dock_pv

> <s_m_subgroupid>
dock_pv

> <b_m_subgroup_collapsed>
1

$$$$
CHEMBL1994_lig952 
                    3D
 Schrodinger Suite 2021-1.
 42 45  0  0  1  0            999 V2000
   17.1978   76.0203   22.8700 C   0  0  0  0  0  0
   16.5862   75.0620   22.0700 C   0  0  0  0  0  0
   17.3457   74.0393   21.5122 C   0  0  0  0  0  0
   18.5833   76.0944   22.8845 C   0  0  0  0  0  0
   19.3618   75.1578   22.1935 C   0  0  0  0  0  0
   18.7390   74.0054   21.6766 C   0  0  0  0  0  0
   19.4957   72.9432   21.1214 N   0  0  0  0  0  0
   20.7389   73.2532   20.3955 C   0  0  2  0  0  0
   21.5597   74.3412   21.1525 C   0  0  0  0  0  0
   20.8249   75.4470   21.9273 C   0  0  0  0  0  0
   19.0678   71.6397   21.2323 C   0  0  0  0  0  0
   19.2738   70.7450   20.0324 C   0  0  0  0  0  0
   18.3384   71.2290   22.1387 O   0  0  0  0  0  0
   20.5512   70.3646   19.5801 C   0  0  0  0  0  0
   20.7598   69.8704   18.3061 C   0  0  0  0  0  0
   18.1564   70.3804   19.2701 C   0  0  0  0  0  0
   18.3515   69.7487   18.0472 C   0  0  0  0  0  0
   19.6498   69.5801   17.5520 C   0  0  0  0  0  0
   19.8406   69.0254   16.3164 O   0  0  0  0  0  0
   18.9289   67.9471   16.1051 C   0  0  0  0  0  0
   17.4814   68.4762   16.1882 C   0  0  0  0  0  0
   17.3049   69.2769   17.2635 N   0  0  0  0  0  0
   16.6409   68.2620   15.3275 O   0  0  0  0  0  0
   20.5207   73.4620   18.8883 C   0  0  0  0  0  0
   16.6079   76.7705   23.3755 H   0  0  0  0  0  0
   15.5099   75.0441   21.9772 H   0  0  0  0  0  0
   16.8298   73.2455   20.9927 H   0  0  0  0  0  0
   19.0401   76.9333   23.3846 H   0  0  0  0  0  0
   21.4246   72.4237   20.4725 H   0  0  0  0  0  0
   22.1976   73.8453   21.8824 H   0  0  0  0  0  0
   22.2549   74.8212   20.4701 H   0  0  0  0  0  0
   20.8640   76.3569   21.3240 H   0  0  0  0  0  0
   21.3484   75.6763   22.8576 H   0  0  0  0  0  0
   21.4411   70.5267   20.1307 H   0  0  0  0  0  0
   21.7550   69.6751   17.9345 H   0  0  0  0  0  0
   17.1549   70.6062   19.6123 H   0  0  0  0  0  0
   19.1227   67.4644   15.1560 H   0  0  0  0  0  0
   19.0413   67.1921   16.8880 H   0  0  0  0  0  0
   16.3625   69.5952   17.4311 H   0  0  0  0  0  0
   21.4411   73.7843   18.4041 H   0  0  0  0  0  0
   20.1842   72.5865   18.3423 H   0  0  0  0  0  0
   19.7779   74.2466   18.7359 H   0  0  0  0  0  0
  1  2  2  0  0  0
  1  4  1  0  0  0
  1 25  1  0  0  0
  2  3  1  0  0  0
  2 26  1  0  0  0
  3  6  2  0  0  0
  3 27  1  0  0  0
  4  5  2  0  0  0
  4 28  1  0  0  0
  5  6  1  0  0  0
  5 10  1  0  0  0
  6  7  1  0  0  0
  7  8  1  0  0  0
  7 11  1  0  0  0
  8  9  1  0  0  0
  8 24  1  0  0  0
  8 29  1  0  0  0
  9 10  1  0  0  0
  9 30  1  0  0  0
  9 31  1  0  0  0
 10 32  1  0  0  0
 10 33  1  0  0  0
 11 12  1  0  0  0
 11 13  2  0  0  0
 12 14  2  0  0  0
 12 16  1  0  0  0
 14 15  1  0  0  0
 14 34  1  0  0  0
 15 18  2  0  0  0
 15 35  1  0  0  0
 16 17  2  0  0  0
 16 36  1  0  0  0
 17 18  1  0  0  0
 17 22  1  0  0  0
 18 19  1  0  0  0
 19 20  1  0  0  0
 20 21  1  0  0  0
 20 37  1  0  0  0
 20 38  1  0  0  0
 21 22  1  0  0  0
 21 23  2  0  0  0
 22 39  1  0  0  0
 24 40  1  0  0  0
 24 41  1  0  0  0
 24 42  1  0  0  0
M  END
> <s_m_entry_id>
9755

> <s_m_entry_name>
dock_pv.195

> <s_m_Source_Path>
/home/csk/Desktop/cluster/DUD-E-result/mcr

> <s_m_Source_File>
dock_pv.maegz

> <i_m_Source_File_Index>
195

> <chembl_id>
CHEMBL4474881

> <chembl_pref_name>
None

> <i_lp_mmshare_version>
53161

> <i_f3d_flags>
0

> <r_lp_tautomer_probability>
1

> <s_lp_Force_Field>
OPLS_2005

> <r_lp_Energy>
50.371637

> <b_lp_Chiralities_Consistent>
1

> <s_lp_Variant>
CHEMBL1994_lig952 -1

> <s_i_glide_gridfile>
glide-grid_2aa2

> <i_i_glide_lignum>
1393

> <i_i_glide_rotatable_bonds>
2

> <r_i_docking_score>
-7.63966645372012

> <r_i_glide_ligand_efficiency>
-0.318319435571672

> <r_i_glide_ligand_efficiency_sa>
-0.918192137374793

> <r_i_glide_ligand_efficiency_ln>
-1.8285227438259

> <r_i_glide_gscore>
-7.63966645372012

> <r_i_glide_lipo>
-3.65829486786721

> <r_i_glide_hbond>
-0.311991252412276

> <r_i_glide_metal>
0

> <r_i_glide_rewards>
-2.35777791885803

> <r_i_glide_evdw>
-24.7856636047363

> <r_i_glide_ecoul>
-2.84423542022705

> <r_i_glide_erotb>
0.359896257322453

> <r_i_glide_esite>
-0.00558017863417747

> <r_i_glide_emodel>
-33.8897777210787

> <r_i_glide_energy>
-27.6298990249634

> <r_i_glide_einternal>
4.56480741500854

> <i_i_glide_confnum>
14

> <i_i_glide_posenum>
173

> <r_i_glide_eff_state_penalty>
0

> <s_user_duplicate_titles>
CHEMBL1994_lig952 

> <s_m_subgroup_title>
dock_pv

> <s_m_subgroupid>
dock_pv

> <b_m_subgroup_collapsed>
1

$$$$
CHEMBL1994_lig784
                    3D
 Schrodinger Suite 2021-1.
 37 39  0  0  1  0            999 V2000
   18.3835   76.2620   24.0700 N   0  0  0  0  0  0
   17.3894   75.9954   23.2370 C   0  0  0  0  0  0
   16.2410   76.2620   23.5551 O   0  0  0  0  0  0
   17.6927   75.4413   22.0409 N   0  0  0  0  0  0
   18.9388   75.0081   21.5399 C   0  0  0  0  0  0
   18.9272   74.0619   20.5075 C   0  0  0  0  0  0
   20.1340   73.4634   20.1224 C   0  0  0  0  0  0
   21.3129   73.9178   20.7092 C   0  0  0  0  0  0
   21.2719   74.9397   21.6414 C   0  0  0  0  0  0
   20.1084   75.4620   22.0724 N   0  0  0  0  0  0
   20.2817   72.3489   19.1407 C   0  0  0  0  0  0
   21.1288   72.2754   18.0700 C   0  0  0  0  0  0
   20.9452   71.0330   17.4679 C   0  0  0  0  0  0
   20.0907   70.3070   18.1330 N   0  0  0  0  0  0
   19.7303   71.0812   19.1717 N   0  0  0  0  0  0
   18.8486   70.5058   20.1731 C   0  0  0  0  0  0
   19.3432   70.7711   21.6041 C   0  0  0  0  0  0
   18.2253   71.4620   22.3718 C   0  0  0  0  0  0
   17.0331   71.5368   21.4250 C   0  0  0  0  0  0
   17.4410   71.0697   20.0299 C   0  0  0  0  0  0
   19.3246   76.0306   23.7917 H   0  0  0  0  0  0
   18.2053   76.7479   24.9486 H   0  0  0  0  0  0
   16.8935   75.1852   21.4833 H   0  0  0  0  0  0
   17.9961   73.7619   20.0595 H   0  0  0  0  0  0
   22.2469   73.4617   20.4700 H   0  0  0  0  0  0
   22.1779   75.3339   22.0700 H   0  0  0  0  0  0
   21.7993   73.0620   17.7863 H   0  0  0  0  0  0
   21.4410   70.6620   16.5837 H   0  0  0  0  0  0
   18.8425   69.4264   19.9949 H   0  0  0  0  0  0
   19.6363   69.8449   22.0700 H   0  0  0  0  0  0
   20.2410   71.3748   21.6470 H   0  0  0  0  0  0
   17.9647   70.9089   23.2700 H   0  0  0  0  0  0
   18.5282   72.4544   22.7058 H   0  0  0  0  0  0
   16.2414   70.8818   21.7760 H   0  0  0  0  0  0
   16.5978   72.5363   21.4079 H   0  0  0  0  0  0
   17.3749   71.8777   19.3023 H   0  0  0  0  0  0
   16.7597   70.3046   19.6572 H   0  0  0  0  0  0
  1  2  1  0  0  0
  1 21  1  0  0  0
  1 22  1  0  0  0
  2  3  2  0  0  0
  2  4  1  0  0  0
  4  5  1  0  0  0
  4 23  1  0  0  0
  5  6  2  0  0  0
  5 10  1  0  0  0
  6  7  1  0  0  0
  6 24  1  0  0  0
  7  8  2  0  0  0
  7 11  1  0  0  0
  8  9  1  0  0  0
  8 25  1  0  0  0
  9 10  2  0  0  0
  9 26  1  0  0  0
 11 12  2  0  0  0
 11 15  1  0  0  0
 12 13  1  0  0  0
 12 27  1  0  0  0
 13 14  2  0  0  0
 13 28  1  0  0  0
 14 15  1  0  0  0
 15 16  1  0  0  0
 16 17  1  0  0  0
 16 20  1  0  0  0
 16 29  1  0  0  0
 17 18  1  0  0  0
 17 30  1  0  0  0
 17 31  1  0  0  0
 18 19  1  0  0  0
 18 32  1  0  0  0
 18 33  1  0  0  0
 19 20  1  0  0  0
 19 34  1  0  0  0
 19 35  1  0  0  0
 20 36  1  0  0  0
 20 37  1  0  0  0
M  END
> <s_m_entry_id>
9756

> <s_m_entry_name>
dock_pv.196

> <s_m_Source_Path>
/home/csk/Desktop/cluster/DUD-E-result/mcr

> <s_m_Source_File>
dock_pv.maegz

> <i_m_Source_File_Index>
196

> <chembl_id>
CHEMBL3643650

> <chembl_pref_name>
None

> <i_lp_mmshare_version>
53161

> <i_f3d_flags>
0

> <r_lp_tautomer_probability>
1

> <s_lp_Force_Field>
OPLS_2005

> <r_lp_Energy>
26.989071

> <b_lp_Chiralities_Consistent>
1

> <s_lp_Variant>
CHEMBL1994_lig784-1

> <s_i_glide_gridfile>
glide-grid_2aa2

> <i_i_glide_lignum>
1200

> <i_i_glide_rotatable_bonds>
4

> <r_i_docking_score>
-7.62911481783723

> <r_i_glide_ligand_efficiency>
-0.381455740891861

> <r_i_glide_ligand_efficiency_sa>
-1.03543018199417

> <r_i_glide_ligand_efficiency_ln>
-1.90931581385745

> <r_i_glide_gscore>
-7.62911481783723

> <r_i_glide_lipo>
-3.37523588219944

> <r_i_glide_hbond>
-0.476357046704628

> <r_i_glide_metal>
0

> <r_i_glide_rewards>
-2.0414732750901

> <r_i_glide_evdw>
-33.5448875427246

> <r_i_glide_ecoul>
-5.25579071044922

> <r_i_glide_erotb>
0.729564369860551

> <r_i_glide_esite>
0

> <r_i_glide_emodel>
-49.4762398870707

> <r_i_glide_energy>
-38.8006782531738

> <r_i_glide_einternal>
3.72401714324951

> <i_i_glide_confnum>
55

> <i_i_glide_posenum>
87

> <r_i_glide_eff_state_penalty>
0

> <s_user_duplicate_titles>
CHEMBL1994_lig784

> <s_m_subgroup_title>
dock_pv

> <s_m_subgroupid>
dock_pv

> <b_m_subgroup_collapsed>
1

$$$$
CHEMBL1994_lig783
                    3D
 Schrodinger Suite 2021-1.
 34 36  0  0  1  0            999 V2000
   17.6478   68.6621   17.8423 N   0  0  0  0  0  0
   18.6240   69.2712   17.1770 C   0  0  0  0  0  0
   19.0405   68.8101   16.1205 O   0  0  0  0  0  0
   19.1478   70.3930   17.7182 N   0  0  0  0  0  0
   18.8616   71.0383   18.9419 C   0  0  0  0  0  0
   19.7669   72.0137   19.3676 C   0  0  0  0  0  0
   19.5391   72.6726   20.5819 C   0  0  0  0  0  0
   18.4436   72.2983   21.3668 C   0  0  0  0  0  0
   17.5548   71.3610   20.8604 C   0  0  0  0  0  0
   17.7473   70.7438   19.6703 N   0  0  0  0  0  0
   20.4292   73.7969   20.9721 C   0  0  0  0  0  0
   21.7973   73.9272   20.8631 C   0  0  0  0  0  0
   22.0899   75.2214   21.2699 C   0  0  0  0  0  0
   21.0373   75.8619   21.6700 N   0  0  0  0  0  0
   20.0306   74.9994   21.5245 N   0  0  0  0  0  0
   18.7567   75.3887   21.9451 C   0  0  0  0  0  0
   18.5904   75.8418   23.2572 C   0  0  0  0  0  0
   17.3130   76.0809   23.7334 C   0  0  0  0  0  0
   16.2331   75.8620   22.8913 C   0  0  0  0  0  0
   16.3917   75.4577   21.5737 C   0  0  0  0  0  0
   17.6677   75.2343   21.0848 C   0  0  0  0  0  0
   17.2405   69.1285   18.6399 H   0  0  0  0  0  0
   17.4402   67.6850   17.6681 H   0  0  0  0  0  0
   19.9263   70.7809   17.2096 H   0  0  0  0  0  0
   20.6220   72.2767   18.7609 H   0  0  0  0  0  0
   18.2425   72.7668   22.3200 H   0  0  0  0  0  0
   16.6618   71.0938   21.4086 H   0  0  0  0  0  0
   22.4819   73.1873   20.4751 H   0  0  0  0  0  0
   23.0410   75.7096   21.2701 H   0  0  0  0  0  0
   19.4367   75.9666   23.9154 H   0  0  0  0  0  0
   17.1557   76.3975   24.7538 H   0  0  0  0  0  0
   15.2346   76.0020   23.2699 H   0  0  0  0  0  0
   15.5285   75.3012   20.9469 H   0  0  0  0  0  0
   17.8013   74.8964   20.0667 H   0  0  0  0  0  0
  1  2  1  0  0  0
  1 22  1  0  0  0
  1 23  1  0  0  0
  2  3  2  0  0  0
  2  4  1  0  0  0
  4  5  1  0  0  0
  4 24  1  0  0  0
  5  6  2  0  0  0
  5 10  1  0  0  0
  6  7  1  0  0  0
  6 25  1  0  0  0
  7  8  2  0  0  0
  7 11  1  0  0  0
  8  9  1  0  0  0
  8 26  1  0  0  0
  9 10  2  0  0  0
  9 27  1  0  0  0
 11 12  2  0  0  0
 11 15  1  0  0  0
 12 13  1  0  0  0
 12 28  1  0  0  0
 13 14  2  0  0  0
 13 29  1  0  0  0
 14 15  1  0  0  0
 15 16  1  0  0  0
 16 17  2  0  0  0
 16 21  1  0  0  0
 17 18  1  0  0  0
 17 30  1  0  0  0
 18 19  2  0  0  0
 18 31  1  0  0  0
 19 20  1  0  0  0
 19 32  1  0  0  0
 20 21  2  0  0  0
 20 33  1  0  0  0
 21 34  1  0  0  0
M  END
> <s_m_entry_id>
9757

> <s_m_entry_name>
dock_pv.197

> <s_m_Source_Path>
/home/csk/Desktop/cluster/DUD-E-result/mcr

> <s_m_Source_File>
dock_pv.maegz

> <i_m_Source_File_Index>
197

> <chembl_id>
CHEMBL3643649

> <chembl_pref_name>
None

> <i_lp_mmshare_version>
53161

> <i_f3d_flags>
0

> <r_lp_tautomer_probability>
1

> <s_lp_Force_Field>
OPLS_2005

> <r_lp_Energy>
10.84897

> <b_lp_Chiralities_Consistent>
1

> <s_lp_Variant>
CHEMBL1994_lig783-1

> <s_i_glide_gridfile>
glide-grid_2aa2

> <i_i_glide_lignum>
1199

> <i_i_glide_rotatable_bonds>
4

> <r_i_docking_score>
-7.6175845076853

> <r_i_glide_ligand_efficiency>
-0.362742119413586

> <r_i_glide_ligand_efficiency_sa>
-1.00077800202624

> <r_i_glide_ligand_efficiency_ln>
-1.88343237674633

> <r_i_glide_gscore>
-7.6175845076853

> <r_i_glide_lipo>
-3.49583113199462

> <r_i_glide_hbond>
-0.32

> <r_i_glide_metal>
0

> <r_i_glide_rewards>
-2.0957453442896

> <r_i_glide_evdw>
-36.9195098876953

> <r_i_glide_ecoul>
-3.69230628013611

> <r_i_glide_erotb>
0.693813405004096

> <r_i_glide_esite>
0

> <r_i_glide_emodel>
-54.4064929895481

> <r_i_glide_energy>
-40.6118161678314

> <r_i_glide_einternal>
2.27669286727905

> <i_i_glide_confnum>
23

> <i_i_glide_posenum>
225

> <r_i_glide_eff_state_penalty>
0

> <s_user_duplicate_titles>
CHEMBL1994_lig783

> <s_m_subgroup_title>
dock_pv

> <s_m_subgroupid>
dock_pv

> <b_m_subgroup_collapsed>
1

$$$$
CHEMBL1994_lig185
                    3D
 Schrodinger Suite 2021-1.
 35 36  0  0  1  0            999 V2000
   16.8198   68.6620   16.9651 C   0  0  0  0  0  0
   18.1947   68.6637   16.7221 C   0  0  0  0  0  0
   18.9837   69.6520   17.2790 C   0  0  0  0  0  0
   18.3987   70.6101   18.0999 C   0  0  0  0  0  0
   17.0410   70.5709   18.4007 C   0  0  0  0  0  0
   16.2445   69.5894   17.8285 C   0  0  0  0  0  0
   19.2458   71.6894   18.6686 C   0  0  0  0  0  0
   19.6368   71.3193   19.9851 O   0  0  0  0  0  0
   19.6071   72.3462   20.8931 C   0  0  0  0  0  0
   20.3453   73.5149   20.6879 C   0  0  0  0  0  0
   20.2709   74.5713   21.5786 C   0  0  0  0  0  0
   19.4555   74.4624   22.6972 C   0  0  0  0  0  0
   18.7500   73.2857   22.9461 C   0  0  0  0  0  0
   18.8235   72.2330   22.0418 C   0  0  0  0  0  0
   17.8251   70.6620   22.3824 Br  0  0  0  0  0  0
   21.4410   73.7058   19.1695 Br  0  0  0  0  0  0
   19.3073   75.6509   23.6042 C   0  0  0  0  0  0
   18.2687   76.6620   23.0960 C   0  0  0  0  0  0
   16.8525   76.1376   23.2700 C   0  0  0  0  0  0
   16.2410   76.2620   24.3213 O   0  0  0  0  0  0
   16.3954   75.4620   22.1779 O   0  0  0  0  0  0
   19.0410   67.3342   15.6700 Br  0  0  0  0  0  0
   16.2012   67.8912   16.5417 H   0  0  0  0  0  0
   20.0458   69.6652   17.0788 H   0  0  0  0  0  0
   16.6137   71.2956   19.0775 H   0  0  0  0  0  0
   15.1927   69.5432   18.0700 H   0  0  0  0  0  0
   18.6997   72.6356   18.6065 H   0  0  0  0  0  0
   20.1202   71.7821   18.0253 H   0  0  0  0  0  0
   20.8237   75.4795   21.3841 H   0  0  0  0  0  0
   18.1213   73.1987   23.8207 H   0  0  0  0  0  0
   20.2877   76.1163   23.6700 H   0  0  0  0  0  0
   19.0410   75.2855   24.5933 H   0  0  0  0  0  0
   18.4497   76.9213   22.0528 H   0  0  0  0  0  0
   18.3481   77.5840   23.6703 H   0  0  0  0  0  0
   15.5552   75.0422   22.3827 H   0  0  0  0  0  0
  1  6  1  0  0  0
  1  2  2  0  0  0
  1 23  1  0  0  0
  2  3  1  0  0  0
  2 22  1  0  0  0
  3  4  2  0  0  0
  3 24  1  0  0  0
  4  7  1  0  0  0
  4  5  1  0  0  0
  5  6  2  0  0  0
  5 25  1  0  0  0
  6 26  1  0  0  0
  7  8  1  0  0  0
  7 27  1  0  0  0
  7 28  1  0  0  0
  8  9  1  0  0  0
  9 14  1  0  0  0
  9 10  2  0  0  0
 10 11  1  0  0  0
 10 16  1  0  0  0
 11 12  2  0  0  0
 11 29  1  0  0  0
 12 13  1  0  0  0
 12 17  1  0  0  0
 13 14  2  0  0  0
 13 30  1  0  0  0
 14 15  1  0  0  0
 17 18  1  0  0  0
 17 31  1  0  0  0
 17 32  1  0  0  0
 18 19  1  0  0  0
 18 33  1  0  0  0
 18 34  1  0  0  0
 19 20  2  0  0  0
 19 21  1  0  0  0
 21 35  1  0  0  0
M  END
> <s_m_entry_id>
9758

> <s_m_entry_name>
dock_pv.198

> <s_m_Source_Path>
/home/csk/Desktop/cluster/DUD-E-result/mcr

> <s_m_Source_File>
dock_pv.maegz

> <i_m_Source_File_Index>
198

> <chembl_id>
CHEMBL250104

> <chembl_pref_name>
None

> <i_lp_mmshare_version>
53161

> <i_f3d_flags>
0

> <r_lp_tautomer_probability>
1

> <s_lp_Force_Field>
OPLS_2005

> <r_lp_Energy>
19.540537

> <b_lp_Chiralities_Consistent>
1

> <s_lp_Variant>
CHEMBL1994_lig185-1

> <s_i_glide_gridfile>
glide-grid_2aa2

> <i_i_glide_lignum>
319

> <i_i_glide_rotatable_bonds>
7

> <r_i_docking_score>
-7.61752506480957

> <r_i_glide_ligand_efficiency>
-0.346251139309526

> <r_i_glide_ligand_efficiency_sa>
-0.970209309629877

> <r_i_glide_ligand_efficiency_ln>
-1.86200098181733

> <r_i_glide_gscore>
-7.61752506480957

> <r_i_glide_lipo>
-4.30726385259524

> <r_i_glide_hbond>
-0.32

> <r_i_glide_metal>
0

> <r_i_glide_rewards>
-1.02043836906607

> <r_i_glide_evdw>
-33.3513259887695

> <r_i_glide_ecoul>
-5.36739301681519

> <r_i_glide_erotb>
0.502852408812497

> <r_i_glide_esite>
0

> <r_i_glide_emodel>
-46.1974913188884

> <r_i_glide_energy>
-38.7187190055847

> <r_i_glide_einternal>
10.3518724441528

> <i_i_glide_confnum>
58

> <i_i_glide_posenum>
343

> <r_i_glide_eff_state_penalty>
0

> <s_user_duplicate_titles>
CHEMBL1994_lig185

> <s_m_subgroup_title>
dock_pv

> <s_m_subgroupid>
dock_pv

> <b_m_subgroup_collapsed>
1

$$$$
CHEMBL1994_lig786
                    3D
 Schrodinger Suite 2021-1.
 34 36  0  0  1  0            999 V2000
   17.6174   68.6620   17.9137 N   0  0  0  0  0  0
   18.5995   69.2770   17.2635 C   0  0  0  0  0  0
   18.9904   68.8519   16.1821 O   0  0  0  0  0  0
   19.1626   70.3600   17.8407 N   0  0  0  0  0  0
   18.9262   70.9657   19.0938 C   0  0  0  0  0  0
   19.8497   71.9282   19.5027 C   0  0  0  0  0  0
   19.6568   72.5758   20.7280 C   0  0  0  0  0  0
   18.6019   72.1870   21.5573 C   0  0  0  0  0  0
   17.7038   71.2468   21.0753 C   0  0  0  0  0  0
   17.8410   70.6620   19.8603 N   0  0  0  0  0  0
   20.4982   73.7498   21.0499 C   0  0  0  0  0  0
   21.8410   73.9473   20.8700 C   0  0  0  0  0  0
   22.1013   75.2523   21.2700 C   0  0  0  0  0  0
   21.0296   75.8620   21.6700 N   0  0  0  0  0  0
   20.0585   74.9532   21.5611 N   0  0  0  0  0  0
   18.7729   75.3076   21.9697 C   0  0  0  0  0  0
   18.5982   75.7273   23.2929 C   0  0  0  0  0  0
   17.3261   76.0096   23.7659 C   0  0  0  0  0  0
   16.2409   75.8620   22.9133 C   0  0  0  0  0  0
   16.4025   75.4462   21.5985 C   0  0  0  0  0  0
   17.6740   75.1902   21.1052 C   0  0  0  0  0  0
   17.8410   74.7592   19.4382 Cl  0  0  0  0  0  0
   17.2387   69.0881   18.7472 H   0  0  0  0  0  0
   17.3713   67.7092   17.6701 H   0  0  0  0  0  0
   19.9332   70.7546   17.3252 H   0  0  0  0  0  0
   20.6713   72.2140   18.8612 H   0  0  0  0  0  0
   18.4279   72.6611   22.5129 H   0  0  0  0  0  0
   16.8321   70.9790   21.6545 H   0  0  0  0  0  0
   22.5433   73.2279   20.4750 H   0  0  0  0  0  0
   23.0410   75.7674   21.2617 H   0  0  0  0  0  0
   19.4410   75.8116   23.9615 H   0  0  0  0  0  0
   17.1799   76.3150   24.7919 H   0  0  0  0  0  0
   15.2431   76.0484   23.2701 H   0  0  0  0  0  0
   15.5392   75.3408   20.9615 H   0  0  0  0  0  0
  1  2  1  0  0  0
  1 23  1  0  0  0
  1 24  1  0  0  0
  2  3  2  0  0  0
  2  4  1  0  0  0
  4  5  1  0  0  0
  4 25  1  0  0  0
  5  6  2  0  0  0
  5 10  1  0  0  0
  6  7  1  0  0  0
  6 26  1  0  0  0
  7  8  2  0  0  0
  7 11  1  0  0  0
  8  9  1  0  0  0
  8 27  1  0  0  0
  9 10  2  0  0  0
  9 28  1  0  0  0
 11 12  2  0  0  0
 11 15  1  0  0  0
 12 13  1  0  0  0
 12 29  1  0  0  0
 13 14  2  0  0  0
 13 30  1  0  0  0
 14 15  1  0  0  0
 15 16  1  0  0  0
 16 17  2  0  0  0
 16 21  1  0  0  0
 17 18  1  0  0  0
 17 31  1  0  0  0
 18 19  2  0  0  0
 18 32  1  0  0  0
 19 20  1  0  0  0
 19 33  1  0  0  0
 20 21  2  0  0  0
 20 34  1  0  0  0
 21 22  1  0  0  0
M  END
> <s_m_entry_id>
9759

> <s_m_entry_name>
dock_pv.199

> <s_m_Source_Path>
/home/csk/Desktop/cluster/DUD-E-result/mcr

> <s_m_Source_File>
dock_pv.maegz

> <i_m_Source_File_Index>
199

> <chembl_id>
CHEMBL3643652

> <chembl_pref_name>
None

> <i_lp_mmshare_version>
53161

> <i_f3d_flags>
0

> <r_lp_tautomer_probability>
1

> <s_lp_Force_Field>
OPLS_2005

> <r_lp_Energy>
15.070935

> <b_lp_Chiralities_Consistent>
1

> <s_lp_Variant>
CHEMBL1994_lig786-1

> <s_i_glide_gridfile>
glide-grid_2aa2

> <i_i_glide_lignum>
1202

> <i_i_glide_rotatable_bonds>
4

> <r_i_docking_score>
-7.6103896198705

> <r_i_glide_ligand_efficiency>
-0.345926800903205

> <r_i_glide_ligand_efficiency_sa>
-0.969300500659859

> <r_i_glide_ligand_efficiency_ln>
-1.86025681880255

> <r_i_glide_gscore>
-7.6103896198705

> <r_i_glide_lipo>
-3.63639977374114

> <r_i_glide_hbond>
-0.32

> <r_i_glide_metal>
0

> <r_i_glide_rewards>
-1.86294486377487

> <r_i_glide_evdw>
-37.1436920166016

> <r_i_glide_ecoul>
-3.33388113975525

> <r_i_glide_erotb>
0.566221789438874

> <r_i_glide_esite>
0

> <r_i_glide_emodel>
-53.5530853535871

> <r_i_glide_energy>
-40.4775731563568

> <r_i_glide_einternal>
2.10786008834839

> <i_i_glide_confnum>
32

> <i_i_glide_posenum>
59

> <r_i_glide_eff_state_penalty>
0

> <s_user_duplicate_titles>
CHEMBL1994_lig786

> <s_m_subgroup_title>
dock_pv

> <s_m_subgroupid>
dock_pv

> <b_m_subgroup_collapsed>
1

$$$$
CHEMBL1994_lig810
                    3D
 Schrodinger Suite 2021-1.
 43 45  0  0  1  0            999 V2000
   17.3199   74.8726   20.3204 C   0  0  0  0  0  0
   17.8400   73.5076   20.7514 C   0  0  0  0  0  0
   16.9360   72.5883   21.2700 C   0  0  0  0  0  0
   17.3586   71.3515   21.7440 C   0  0  0  0  0  0
   18.6981   71.0023   21.6857 C   0  0  0  0  0  0
   19.6077   71.8949   21.1416 C   0  0  0  0  0  0
   19.1913   73.1392   20.6511 C   0  0  0  0  0  0
   20.2111   74.0147   19.9347 C   0  0  2  0  0  0
   20.4615   73.5458   18.4771 C   0  0  0  0  0  0
   20.4167   72.0807   18.1793 C   0  0  0  0  0  0
   21.5972   71.3569   18.1205 C   0  0  0  0  0  0
   21.5208   70.0555   17.6700 C   0  0  0  0  0  0
   20.3724   69.4620   17.2701 N   0  0  0  0  0  0
   19.2184   70.1204   17.5041 C   0  0  0  0  0  0
   18.1006   69.3001   17.4224 N   0  0  0  0  0  0
   16.8674   69.5657   17.8583 C   0  0  0  0  0  0
   16.3669   70.6620   18.0699 O   0  0  0  0  0  0
   16.2410   68.4486   18.1512 N   0  0  0  0  0  0
   19.1999   71.4539   17.9294 C   0  0  0  0  0  0
   21.5041   74.2190   20.7442 C   0  0  0  0  0  0
   21.9765   75.6191   21.0722 C   0  0  0  0  0  0
   21.4093   74.7315   22.1558 C   0  0  0  0  0  0
   17.5374   75.0490   19.2700 H   0  0  0  0  0  0
   16.2445   74.9780   20.4699 H   0  0  0  0  0  0
   17.8126   75.6587   20.8934 H   0  0  0  0  0  0
   15.8891   72.8438   21.3379 H   0  0  0  0  0  0
   16.6410   70.6641   22.1616 H   0  0  0  0  0  0
   19.0297   70.0408   22.0413 H   0  0  0  0  0  0
   20.6410   71.5955   21.0561 H   0  0  0  0  0  0
   19.7884   75.0140   19.8571 H   0  0  0  0  0  0
   19.7369   74.0175   17.8101 H   0  0  0  0  0  0
   21.4410   73.8626   18.1265 H   0  0  0  0  0  0
   22.5485   71.7985   18.3818 H   0  0  0  0  0  0
   22.4110   69.4620   17.6700 H   0  0  0  0  0  0
   18.2999   68.3465   17.1693 H   0  0  0  0  0  0
   15.3431   68.5230   18.6037 H   0  0  0  0  0  0
   16.6919   67.5447   18.0700 H   0  0  0  0  0  0
   18.2880   72.0124   18.0698 H   0  0  0  0  0  0
   22.2410   73.4357   20.5699 H   0  0  0  0  0  0
   23.0410   75.8299   21.0882 H   0  0  0  0  0  0
   21.3931   76.4770   20.7360 H   0  0  0  0  0  0
   20.4288   74.9575   22.5771 H   0  0  0  0  0  0
   22.0757   74.2620   22.8700 H   0  0  0  0  0  0
  1  2  1  0  0  0
  1 23  1  0  0  0
  1 24  1  0  0  0
  1 25  1  0  0  0
  2  3  2  0  0  0
  2  7  1  0  0  0
  3  4  1  0  0  0
  3 26  1  0  0  0
  4  5  2  0  0  0
  4 27  1  0  0  0
  5  6  1  0  0  0
  5 28  1  0  0  0
  6  7  2  0  0  0
  6 29  1  0  0  0
  7  8  1  0  0  0
  8  9  1  0  0  0
  8 20  1  0  0  0
  8 30  1  0  0  0
  9 10  1  0  0  0
  9 31  1  0  0  0
  9 32  1  0  0  0
 10 11  2  0  0  0
 10 19  1  0  0  0
 11 12  1  0  0  0
 11 33  1  0  0  0
 12 13  2  0  0  0
 12 34  1  0  0  0
 13 14  1  0  0  0
 14 15  1  0  0  0
 14 19  2  0  0  0
 15 16  1  0  0  0
 15 35  1  0  0  0
 16 17  2  0  0  0
 16 18  1  0  0  0
 18 36  1  0  0  0
 18 37  1  0  0  0
 19 38  1  0  0  0
 20 21  1  0  0  0
 20 22  1  0  0  0
 20 39  1  0  0  0
 21 22  1  0  0  0
 21 40  1  0  0  0
 21 41  1  0  0  0
 22 42  1  0  0  0
 22 43  1  0  0  0
M  END
> <s_m_entry_id>
9760

> <s_m_entry_name>
dock_pv.200

> <s_m_Source_Path>
/home/csk/Desktop/cluster/DUD-E-result/mcr

> <s_m_Source_File>
dock_pv.maegz

> <i_m_Source_File_Index>
200

> <chembl_id>
CHEMBL3643675

> <chembl_pref_name>
None

> <i_lp_mmshare_version>
53161

> <i_f3d_flags>
0

> <r_lp_tautomer_probability>
1

> <s_lp_Force_Field>
OPLS_2005

> <r_lp_Energy>
18.172813

> <b_lp_Chiralities_Consistent>
1

> <s_lp_Variant>
CHEMBL1994_lig810-1

> <s_i_glide_gridfile>
glide-grid_2aa2

> <i_i_glide_lignum>
1229

> <i_i_glide_rotatable_bonds>
6

> <r_i_docking_score>
-7.60665179497519

> <r_i_glide_ligand_efficiency>
-0.3457568997716

> <r_i_glide_ligand_efficiency_sa>
-0.968824431007269

> <r_i_glide_ligand_efficiency_ln>
-1.85934315805766

> <r_i_glide_gscore>
-7.60665179497519

> <r_i_glide_lipo>
-4.05448729343664

> <r_i_glide_hbond>
-0.32

> <r_i_glide_metal>
0

> <r_i_glide_rewards>
-2.46294596380998

> <r_i_glide_evdw>
-29.4387741088867

> <r_i_glide_ecoul>
-2.30801367759705

> <r_i_glide_erotb>
1.04892221935532

> <r_i_glide_esite>
0

> <r_i_glide_emodel>
-40.2757286247077

> <r_i_glide_energy>
-31.7467877864838

> <r_i_glide_einternal>
9.13785457611084

> <i_i_glide_confnum>
52

> <i_i_glide_posenum>
253

> <r_i_glide_eff_state_penalty>
0

> <s_user_duplicate_titles>
CHEMBL1994_lig810

> <s_m_subgroup_title>
dock_pv

> <s_m_subgroupid>
dock_pv

> <b_m_subgroup_collapsed>
1

$$$$
CHEMBL1994_lig153
                    3D
 Schrodinger Suite 2021-1.
 48 49  0  0  1  0            999 V2000
   18.5097   70.6357   17.3309 C   0  0  0  0  0  0
   19.8790   71.1328   17.6571 C   0  0  0  0  0  0
   20.9180   70.2111   17.7491 C   0  0  0  0  0  0
   22.0960   70.5914   18.3593 C   0  0  0  0  0  0
   22.2394   71.9149   18.7370 C   0  0  0  0  0  0
   21.2733   72.8689   18.4700 C   0  0  0  0  0  0
   20.0586   72.4759   17.9567 C   0  0  0  0  0  0
   18.9758   72.7734   21.0802 C   0  0  0  0  0  0
   20.3280   73.0693   21.2469 C   0  0  0  0  0  0
   20.8275   74.3642   21.3408 C   0  0  0  0  0  0
   19.9558   75.4352   21.2872 C   0  0  0  0  0  0
   18.5969   75.1916   21.1528 C   0  0  0  0  0  0
   18.0990   73.8772   21.0524 C   0  0  0  0  0  0
   18.4870   71.2798   21.0173 C   0  0  0  0  0  0
   17.8139   69.9741   18.5388 C   0  0  2  0  0  0
   17.5689   70.9818   19.7446 C   0  0  0  0  0  0
   18.5239   68.8151   18.9400 O   0  0  0  0  0  0
   16.4799   69.4265   17.9644 C   0  0  0  0  0  0
   15.6718   70.4358   17.6700 F   0  0  0  0  0  0
   16.6410   68.6853   16.8620 F   0  0  0  0  0  0
   15.8410   68.6620   18.8223 F   0  0  0  0  0  0
   19.6399   70.2477   21.1824 C   0  0  0  0  0  0
   17.6397   71.0619   22.3034 C   0  0  0  0  0  0
   22.1575   74.5757   21.4420 F   0  0  0  0  0  0
   16.7611   73.6240   20.9280 O   0  0  0  0  0  0
   15.8541   74.6473   21.2700 C   0  0  0  0  0  0
   18.6094   69.9600   16.4791 H   0  0  0  0  0  0
   17.8593   71.4484   17.0013 H   0  0  0  0  0  0
   20.7621   69.1803   17.4706 H   0  0  0  0  0  0
   22.8564   69.8613   18.5875 H   0  0  0  0  0  0
   23.0862   72.2517   19.2889 H   0  0  0  0  0  0
   21.4409   73.8895   18.7589 H   0  0  0  0  0  0
   19.2548   73.1915   17.8585 H   0  0  0  0  0  0
   21.0411   72.2743   21.2627 H   0  0  0  0  0  0
   20.3305   76.4467   21.3287 H   0  0  0  0  0  0
   17.9448   76.0484   21.1063 H   0  0  0  0  0  0
   16.6353   70.6632   20.1594 H   0  0  0  0  0  0
   17.3265   71.9324   19.2750 H   0  0  0  0  0  0
   17.9997   68.3309   19.5833 H   0  0  0  0  0  0
   19.2734   69.2257   21.2699 H   0  0  0  0  0  0
   20.3328   70.2711   20.3493 H   0  0  0  0  0  0
   20.2218   70.4182   22.0878 H   0  0  0  0  0  0
   17.4410   70.0066   22.4700 H   0  0  0  0  0  0
   18.1401   71.4384   23.1973 H   0  0  0  0  0  0
   16.6656   71.5448   22.2500 H   0  0  0  0  0  0
   14.9099   74.1345   21.2700 H   0  0  0  0  0  0
   16.0216   75.0620   22.2659 H   0  0  0  0  0  0
   15.8410   75.4505   20.5311 H   0  0  0  0  0  0
  1  2  1  0  0  0
  1 15  1  0  0  0
  1 27  1  0  0  0
  1 28  1  0  0  0
  2  3  2  0  0  0
  2  7  1  0  0  0
  3  4  1  0  0  0
  3 29  1  0  0  0
  4  5  2  0  0  0
  4 30  1  0  0  0
  5  6  1  0  0  0
  5 31  1  0  0  0
  6  7  2  0  0  0
  6 32  1  0  0  0
  7 33  1  0  0  0
  8  9  2  0  0  0
  8 13  1  0  0  0
  8 14  1  0  0  0
  9 10  1  0  0  0
  9 34  1  0  0  0
 10 11  2  0  0  0
 10 24  1  0  0  0
 11 12  1  0  0  0
 11 35  1  0  0  0
 12 13  2  0  0  0
 12 36  1  0  0  0
 13 25  1  0  0  0
 14 16  1  0  0  0
 14 22  1  0  0  0
 14 23  1  0  0  0
 15 16  1  0  0  0
 15 17  1  0  0  0
 15 18  1  0  0  0
 16 37  1  0  0  0
 16 38  1  0  0  0
 17 39  1  0  0  0
 18 19  1  0  0  0
 18 20  1  0  0  0
 18 21  1  0  0  0
 22 40  1  0  0  0
 22 41  1  0  0  0
 22 42  1  0  0  0
 23 43  1  0  0  0
 23 44  1  0  0  0
 23 45  1  0  0  0
 25 26  1  0  0  0
 26 46  1  0  0  0
 26 47  1  0  0  0
 26 48  1  0  0  0
M  END
> <s_m_entry_id>
9761

> <s_m_entry_name>
dock_pv.201

> <s_m_Source_Path>
/home/csk/Desktop/cluster/DUD-E-result/mcr

> <s_m_Source_File>
dock_pv.maegz

> <i_m_Source_File_Index>
201

> <chembl_id>
CHEMBL400628

> <chembl_pref_name>
None

> <i_lp_mmshare_version>
53161

> <i_f3d_flags>
0

> <r_lp_tautomer_probability>
1

> <s_lp_Force_Field>
OPLS_2005

> <r_lp_Energy>
33.485222

> <b_lp_Chiralities_Consistent>
1

> <s_lp_Variant>
CHEMBL1994_lig153-1

> <s_i_glide_gridfile>
glide-grid_2aa2

> <i_i_glide_lignum>
255

> <i_i_glide_rotatable_bonds>
8

> <r_i_docking_score>
-7.59979754678995

> <r_i_glide_ligand_efficiency>
-0.292299905645767

> <r_i_glide_ligand_efficiency_sa>
-0.865937320330996

> <r_i_glide_ligand_efficiency_ln>
-1.78478751689392

> <r_i_glide_gscore>
-7.59979754678995

> <r_i_glide_lipo>
-4.72033032813112

> <r_i_glide_hbond>
0

> <r_i_glide_metal>
0

> <r_i_glide_rewards>
-2.41449745363907

> <r_i_glide_evdw>
-19.6640014648438

> <r_i_glide_ecoul>
-0.257059395313263

> <r_i_glide_erotb>
0.56250632726345

> <r_i_glide_esite>
-0.00571710974403618

> <r_i_glide_emodel>
-24.7435575913547

> <r_i_glide_energy>
-19.921060860157

> <r_i_glide_einternal>
4.88042545318604

> <i_i_glide_confnum>
60

> <i_i_glide_posenum>
314

> <r_i_glide_eff_state_penalty>
0

> <s_user_duplicate_titles>
CHEMBL1994_lig153

> <s_m_subgroup_title>
dock_pv

> <s_m_subgroupid>
dock_pv

> <b_m_subgroup_collapsed>
1

$$$$
CHEMBL1994_lig1125
                    3D
 Schrodinger Suite 2021-1.
 47 50  0  0  1  0            999 V2000
   18.9473   76.2619   22.9970 O   0  0  0  0  0  0
   17.5822   76.0653   23.4894 S   0  0  0  0  0  0
   16.7257   77.1813   23.8974 O   0  0  0  0  0  0
   20.2150   69.3207   20.5267 C   0  0  0  0  0  0
   19.6098   70.3488   19.5583 C   0  0  2  0  0  0
   20.6889   71.1145   18.6842 C   0  0  0  0  0  0
   18.2410   74.6620   18.9692 C   0  0  0  0  0  0
   17.5817   75.2284   20.0519 C   0  0  0  0  0  0
   17.3599   74.5408   21.2263 C   0  0  0  0  0  0
   18.6407   73.3610   18.9712 C   0  0  0  0  0  0
   18.4920   72.6311   20.1455 C   0  0  0  0  0  0
   17.8497   73.2305   21.2703 C   0  0  0  0  0  0
   17.8410   72.2755   22.2539 N   0  0  0  0  0  0
   18.4167   71.1297   21.7910 C   0  0  0  0  0  0
   18.8709   71.3108   20.4882 C   0  0  0  0  0  0
   18.6383   69.6789   18.5492 C   0  0  0  0  0  0
   17.2494   69.7730   18.7019 C   0  0  0  0  0  0
   16.3914   69.2562   17.7460 C   0  0  0  0  0  0
   16.9125   68.6620   16.6043 C   0  0  0  0  0  0
   18.2841   68.5602   16.4178 C   0  0  0  0  0  0
   19.1363   69.0626   17.3884 C   0  0  0  0  0  0
   16.6946   75.2293   22.2323 N   0  0  0  0  0  0
   17.6481   74.8209   24.8736 C   0  0  0  0  0  0
   21.6311   72.1274   19.2700 C   0  0  0  0  0  0
   22.1694   70.8394   18.6570 C   0  0  0  0  0  0
   19.5036   68.5528   20.8357 H   0  0  0  0  0  0
   21.0410   68.8593   20.0701 H   0  0  0  0  0  0
   20.6406   69.7701   21.4254 H   0  0  0  0  0  0
   20.2994   71.3734   17.6999 H   0  0  0  0  0  0
   18.3606   75.2289   18.0596 H   0  0  0  0  0  0
   17.2580   76.2541   19.9663 H   0  0  0  0  0  0
   19.0623   72.9532   18.0730 H   0  0  0  0  0  0
   17.3857   72.3558   23.1568 H   0  0  0  0  0  0
   18.4582   70.2635   22.4346 H   0  0  0  0  0  0
   16.8048   70.2620   19.5545 H   0  0  0  0  0  0
   15.3274   69.3333   17.9007 H   0  0  0  0  0  0
   16.2411   68.2763   15.8547 H   0  0  0  0  0  0
   18.6903   68.1046   15.5284 H   0  0  0  0  0  0
   20.2009   68.9926   17.2215 H   0  0  0  0  0  0
   15.6905   75.3235   22.1976 H   0  0  0  0  0  0
   18.2531   75.2429   25.6707 H   0  0  0  0  0  0
   16.6413   74.6619   25.2524 H   0  0  0  0  0  0
   18.0898   73.8969   24.5092 H   0  0  0  0  0  0
   21.7838   73.0620   18.7311 H   0  0  0  0  0  0
   21.5031   72.2906   20.3386 H   0  0  0  0  0  0
   22.6181   70.0644   19.2700 H   0  0  0  0  0  0
   22.6410   70.8861   17.6774 H   0  0  0  0  0  0
  1  2  2  0  0  0
  2  3  2  0  0  0
  2 22  1  0  0  0
  2 23  1  0  0  0
  4  5  1  0  0  0
  4 26  1  0  0  0
  4 27  1  0  0  0
  4 28  1  0  0  0
  5  6  1  0  0  0
  5 15  1  0  0  0
  5 16  1  0  0  0
  6 24  1  0  0  0
  6 25  1  0  0  0
  6 29  1  0  0  0
  7  8  2  0  0  0
  7 10  1  0  0  0
  7 30  1  0  0  0
  8  9  1  0  0  0
  8 31  1  0  0  0
  9 12  2  0  0  0
  9 22  1  0  0  0
 10 11  2  0  0  0
 10 32  1  0  0  0
 11 12  1  0  0  0
 11 15  1  0  0  0
 12 13  1  0  0  0
 13 14  1  0  0  0
 13 33  1  0  0  0
 14 15  2  0  0  0
 14 34  1  0  0  0
 16 17  2  0  0  0
 16 21  1  0  0  0
 17 18  1  0  0  0
 17 35  1  0  0  0
 18 19  2  0  0  0
 18 36  1  0  0  0
 19 20  1  0  0  0
 19 37  1  0  0  0
 20 21  2  0  0  0
 20 38  1  0  0  0
 21 39  1  0  0  0
 22 40  1  0  0  0
 23 41  1  0  0  0
 23 42  1  0  0  0
 23 43  1  0  0  0
 24 25  1  0  0  0
 24 44  1  0  0  0
 24 45  1  0  0  0
 25 46  1  0  0  0
 25 47  1  0  0  0
M  END
> <s_m_entry_id>
9762

> <s_m_entry_name>
dock_pv.202

> <s_m_Source_Path>
/home/csk/Desktop/cluster/DUD-E-result/mcr

> <s_m_Source_File>
dock_pv.maegz

> <i_m_Source_File_Index>
202

> <chembl_id>
CHEMBL4069209

> <chembl_pref_name>
None

> <i_lp_mmshare_version>
53161

> <i_f3d_flags>
0

> <r_lp_tautomer_probability>
1

> <s_lp_Force_Field>
OPLS_2005

> <r_lp_Energy>
19.558338

> <b_lp_Chiralities_Consistent>
1

> <s_lp_Variant>
CHEMBL1994_lig1125-1

> <s_i_glide_gridfile>
glide-grid_2aa2

> <i_i_glide_lignum>
1611

> <i_i_glide_rotatable_bonds>
5

> <r_i_docking_score>
-7.5970158036916

> <r_i_glide_ligand_efficiency>
-0.303880632147664

> <r_i_glide_ligand_efficiency_sa>
-0.888552357745728

> <r_i_glide_ligand_efficiency_ln>
-1.80072040966717

> <r_i_glide_gscore>
-7.5970158036916

> <r_i_glide_lipo>
-4.22488706851083

> <r_i_glide_hbond>
-0.220570069576501

> <r_i_glide_metal>
0

> <r_i_glide_rewards>
-2.0592927134265

> <r_i_glide_evdw>
-24.8972682952881

> <r_i_glide_ecoul>
-2.91194009780884

> <r_i_glide_erotb>
0.608342522500451

> <r_i_glide_esite>
-0.0189540452424842

> <r_i_glide_emodel>
-37.2030670531814

> <r_i_glide_energy>
-27.8092083930969

> <r_i_glide_einternal>
6.82049322128296

> <i_i_glide_confnum>
16

> <i_i_glide_posenum>
107

> <r_i_glide_eff_state_penalty>
0

> <s_user_duplicate_titles>
CHEMBL1994_lig1125

> <s_m_subgroup_title>
dock_pv

> <s_m_subgroupid>
dock_pv

> <b_m_subgroup_collapsed>
1

$$$$
CHEMBL1994_lig1114
                    3D
 Schrodinger Suite 2021-1.
 33 34  0  0  1  0            999 V2000
   19.0775   72.0998   19.7982 C   0  0  0  0  0  0
   19.2106   73.1539   20.7234 N   0  0  0  0  0  0
   17.9103   71.3281   19.7405 C   0  0  0  0  0  0
   17.7652   70.3250   18.7902 C   0  0  0  0  0  0
   18.7946   70.0551   17.8897 C   0  0  0  0  0  0
   19.9941   70.7853   17.9591 C   0  0  0  0  0  0
   20.1341   71.8192   18.9066 C   0  0  0  0  0  0
   18.5731   69.0304   16.8764 C   0  0  0  0  0  0
   18.3932   68.2252   16.0659 N   0  0  0  0  0  0
   21.3030   70.4229   16.8703 Cl  0  0  0  0  0  0
   21.4423   72.6175   18.9666 C   0  0  0  0  0  0
   18.1971   73.5115   21.7225 C   0  0  1  0  0  0
   18.6762   74.6068   22.6938 C   0  0  1  0  0  0
   18.0149   75.8734   22.1536 C   0  0  0  0  0  0
   16.7567   75.4186   21.6812 O   0  0  0  0  0  0
   16.9279   74.1321   21.0949 C   0  0  0  0  0  0
   18.2410   74.3186   24.0109 O   0  0  0  0  0  0
   20.1943   74.7926   22.8974 C   0  0  0  0  0  0
   19.9631   73.8104   20.5743 H   0  0  0  0  0  0
   17.0874   71.5028   20.4160 H   0  0  0  0  0  0
   16.8367   69.7691   18.7618 H   0  0  0  0  0  0
   21.6301   73.0578   19.9459 H   0  0  0  0  0  0
   22.3065   71.9781   18.7866 H   0  0  0  0  0  0
   21.4408   73.4075   18.2155 H   0  0  0  0  0  0
   17.9294   72.6181   22.2911 H   0  0  0  0  0  0
   17.8613   76.6376   22.9170 H   0  0  0  0  0  0
   18.5691   76.3487   21.3419 H   0  0  0  0  0  0
   17.0333   74.2628   20.0162 H   0  0  0  0  0  0
   16.0407   73.5236   21.2706 H   0  0  0  0  0  0
   17.3105   74.0536   23.9714 H   0  0  0  0  0  0
   20.6981   75.0903   21.9775 H   0  0  0  0  0  0
   20.4158   75.5568   23.6441 H   0  0  0  0  0  0
   20.6419   73.8620   23.2344 H   0  0  0  0  0  0
  1  2  1  0  0  0
  1  3  2  0  0  0
  1  7  1  0  0  0
  2 12  1  0  0  0
  2 19  1  0  0  0
  3  4  1  0  0  0
  3 20  1  0  0  0
  4  5  2  0  0  0
  4 21  1  0  0  0
  5  6  1  0  0  0
  5  8  1  0  0  0
  6  7  2  0  0  0
  6 10  1  0  0  0
  7 11  1  0  0  0
  8  9  3  0  0  0
 11 22  1  0  0  0
 11 23  1  0  0  0
 11 24  1  0  0  0
 12 13  1  0  0  0
 12 16  1  0  0  0
 12 25  1  0  0  0
 13 14  1  0  0  0
 13 17  1  0  0  0
 13 18  1  0  0  0
 14 15  1  0  0  0
 14 26  1  0  0  0
 14 27  1  0  0  0
 15 16  1  0  0  0
 16 28  1  0  0  0
 16 29  1  0  0  0
 17 30  1  0  0  0
 18 31  1  0  0  0
 18 32  1  0  0  0
 18 33  1  0  0  0
M  END
> <s_m_entry_id>
9763

> <s_m_entry_name>
dock_pv.203

> <s_m_Source_Path>
/home/csk/Desktop/cluster/DUD-E-result/mcr

> <s_m_Source_File>
dock_pv.maegz

> <i_m_Source_File_Index>
203

> <chembl_id>
CHEMBL3764446

> <chembl_pref_name>
None

> <i_lp_mmshare_version>
53161

> <i_f3d_flags>
0

> <r_lp_tautomer_probability>
1

> <s_lp_Force_Field>
OPLS_2005

> <r_lp_Energy>
30.214159

> <b_lp_Chiralities_Consistent>
1

> <s_lp_Variant>
CHEMBL1994_lig1114-1

> <s_i_glide_gridfile>
glide-grid_2aa2

> <i_i_glide_lignum>
1600

> <i_i_glide_rotatable_bonds>
3

> <r_i_docking_score>
-7.56922576688986

> <r_i_glide_ligand_efficiency>
-0.420512542604992

> <r_i_glide_ligand_efficiency_sa>
-1.10205462612715

> <r_i_glide_ligand_efficiency_ln>
-1.94563045331769

> <r_i_glide_gscore>
-7.56922576688986

> <r_i_glide_lipo>
-3.06190395805824

> <r_i_glide_hbond>
0

> <r_i_glide_metal>
0

> <r_i_glide_rewards>
-2.37774239448805

> <r_i_glide_evdw>
-37.351432800293

> <r_i_glide_ecoul>
-5.08640670776367

> <r_i_glide_erotb>
0.500953231835623

> <r_i_glide_esite>
0

> <r_i_glide_emodel>
-61.1013891542291

> <r_i_glide_energy>
-42.4378395080566

> <r_i_glide_einternal>
1.48096430301666

> <i_i_glide_confnum>
11

> <i_i_glide_posenum>
321

> <r_i_glide_eff_state_penalty>
0

> <s_user_duplicate_titles>
CHEMBL1994_lig1114

> <s_m_subgroup_title>
dock_pv

> <s_m_subgroupid>
dock_pv

> <b_m_subgroup_collapsed>
1

$$$$
CHEMBL1994_lig1041
                    3D
 Schrodinger Suite 2021-1.
 37 39  0  0  1  0            999 V2000
   17.2167   72.8572   20.8650 C   0  0  0  0  0  0
   19.7466   73.3727   19.7899 C   0  0  0  0  0  0
   17.9804   73.9042   21.3569 C   0  0  0  0  0  0
   19.2899   74.1144   20.8875 C   0  0  0  0  0  0
   20.1503   74.9978   21.7236 C   0  0  0  0  0  0
   19.6302   75.4603   22.8900 C   0  0  0  0  0  0
   18.2400   75.3638   23.2909 C   0  0  0  0  0  0
   17.4991   74.6614   22.4266 N   0  0  0  0  0  0
   18.9381   72.3850   19.2106 C   0  0  0  0  0  0
   17.7178   72.0841   19.8216 C   0  0  0  0  0  0
   16.9173   71.0615   19.3860 O   0  0  0  0  0  0
   17.5921   70.0057   18.7193 C   0  0  0  0  0  0
   18.4186   70.5849   17.5547 C   0  0  1  0  0  0
   19.2988   71.6728   18.0672 N   0  0  0  0  0  0
   21.6279   75.1693   21.3811 C   0  0  0  0  0  0
   22.1600   76.1679   22.0694 F   0  0  0  0  0  0
   22.2407   74.0363   21.6697 F   0  0  0  0  0  0
   21.8400   75.4603   20.1079 F   0  0  0  0  0  0
   17.7363   75.8615   24.2864 O   0  0  0  0  0  0
   20.6564   71.6715   17.5312 C   0  0  0  0  0  0
   21.6063   70.8428   18.4072 C   0  0  0  0  0  0
   22.0855   69.8621   17.6716 F   0  0  0  0  0  0
   22.6306   71.5872   18.8105 F   0  0  0  0  0  0
   21.0412   70.2721   19.4766 F   0  0  0  0  0  0
   19.0075   69.4230   16.7165 C   0  0  0  0  0  0
   16.2411   72.6392   21.2702 H   0  0  0  0  0  0
   20.7413   73.5295   19.4084 H   0  0  0  0  0  0
   20.2972   75.8658   23.6214 H   0  0  0  0  0  0
   16.5592   74.5020   22.7642 H   0  0  0  0  0  0
   18.2335   69.4517   19.4088 H   0  0  0  0  0  0
   16.8267   69.3209   18.3520 H   0  0  0  0  0  0
   17.7119   71.0620   16.8740 H   0  0  0  0  0  0
   20.6879   71.3312   16.4985 H   0  0  0  0  0  0
   21.0123   72.6960   17.4548 H   0  0  0  0  0  0
   18.2295   68.7100   16.4400 H   0  0  0  0  0  0
   19.4437   69.7689   15.7803 H   0  0  0  0  0  0
   19.7647   68.8656   17.2677 H   0  0  0  0  0  0
  1  3  1  0  0  0
  1 10  2  0  0  0
  1 26  1  0  0  0
  2  9  2  0  0  0
  2  4  1  0  0  0
  2 27  1  0  0  0
  3  4  2  0  0  0
  3  8  1  0  0  0
  4  5  1  0  0  0
  5 15  1  0  0  0
  5  6  2  0  0  0
  6  7  1  0  0  0
  6 28  1  0  0  0
  7  8  1  0  0  0
  7 19  2  0  0  0
  8 29  1  0  0  0
  9 14  1  0  0  0
  9 10  1  0  0  0
 10 11  1  0  0  0
 11 12  1  0  0  0
 12 13  1  0  0  0
 12 30  1  0  0  0
 12 31  1  0  0  0
 13 14  1  0  0  0
 13 25  1  0  0  0
 13 32  1  0  0  0
 14 20  1  0  0  0
 15 16  1  0  0  0
 15 17  1  0  0  0
 15 18  1  0  0  0
 20 21  1  0  0  0
 20 33  1  0  0  0
 20 34  1  0  0  0
 21 22  1  0  0  0
 21 23  1  0  0  0
 21 24  1  0  0  0
 25 35  1  0  0  0
 25 36  1  0  0  0
 25 37  1  0  0  0
M  END
> <s_m_entry_id>
9764

> <s_m_entry_name>
dock_pv.204

> <s_m_Source_Path>
/home/csk/Desktop/cluster/DUD-E-result/mcr

> <s_m_Source_File>
dock_pv.maegz

> <i_m_Source_File_Index>
204

> <chembl_id>
CHEMBL227440

> <chembl_pref_name>
None

> <i_lp_mmshare_version>
53161

> <i_f3d_flags>
0

> <r_lp_tautomer_probability>
1

> <s_lp_Force_Field>
OPLS_2005

> <r_lp_Energy>
31.420416

> <b_lp_Chiralities_Consistent>
1

> <s_lp_Variant>
CHEMBL1994_lig1041-2

> <s_i_glide_gridfile>
glide-grid_2aa2

> <i_i_glide_lignum>
1503

> <i_i_glide_rotatable_bonds>
3

> <r_i_docking_score>
-7.56893060322744

> <r_i_glide_ligand_efficiency>
-0.302757224129098

> <r_i_glide_ligand_efficiency_sa>
-0.885267492775714

> <r_i_glide_ligand_efficiency_ln>
-1.79406337551163

> <r_i_glide_gscore>
-7.56893060322744

> <r_i_glide_lipo>
-3.70878885088727

> <r_i_glide_hbond>
-0.219831107677368

> <r_i_glide_metal>
0

> <r_i_glide_rewards>
-2.34314190196494

> <r_i_glide_evdw>
-22.5322341918945

> <r_i_glide_ecoul>
-1.839195728302

> <r_i_glide_erotb>
0.143466936812101

> <r_i_glide_esite>
-0.0381446106699328

> <r_i_glide_emodel>
-23.4291203797975

> <r_i_glide_energy>
-24.3714299201965

> <r_i_glide_einternal>
3.46256923675537

> <i_i_glide_confnum>
2

> <i_i_glide_posenum>
363

> <r_i_glide_eff_state_penalty>
0

> <s_user_duplicate_titles>
CHEMBL1994_lig1041

> <s_m_subgroup_title>
dock_pv

> <s_m_subgroupid>
dock_pv

> <b_m_subgroup_collapsed>
1

$$$$
CHEMBL1994_lig209
                    3D
 Schrodinger Suite 2021-1.
 41 43  0  0  1  0            999 V2000
   21.0724   70.0929   16.8252 C   0  0  0  0  0  0
   21.0818   70.6896   18.0596 C   0  0  0  0  0  0
   19.8570   70.8211   18.7049 C   0  0  0  0  0  0
   20.0492   69.4288   16.2936 N   0  0  0  0  0  0
   19.7789   71.8183   19.8690 C   0  0  1  0  0  0
   19.0337   73.1474   19.6104 C   0  0  0  0  0  0
   18.1435   73.6859   20.4937 C   0  0  0  0  0  0
   17.8428   72.9758   21.6238 N   0  0  0  0  0  0
   18.3756   71.7442   21.9021 C   0  0  0  0  0  0
   19.3006   71.1665   21.1165 C   0  0  0  0  0  0
   17.4064   75.0205   20.4271 C   0  0  0  0  0  0
   17.6823   71.0611   22.9980 C   0  0  0  0  0  0
   19.8258   69.8623   21.2780 C   0  0  0  0  0  0
   19.3778   73.7068   18.3218 C   0  0  0  0  0  0
   20.3100   73.2933   17.6701 O   0  0  0  0  0  0
   18.6409   74.6625   17.9170 O   0  0  0  0  0  0
   18.6410   75.1525   16.5870 C   0  0  0  0  0  0
   20.3503   68.8391   21.2699 N   0  0  0  0  0  0
   18.8999   69.4075   16.9714 C   0  0  0  0  0  0
   18.7007   70.1546   18.1697 C   0  0  0  0  0  0
   17.3837   70.1955   18.6977 C   0  0  0  0  0  0
   16.3721   69.4514   18.0886 C   0  0  0  0  0  0
   16.6361   68.6623   16.9806 C   0  0  0  0  0  0
   17.8798   68.6526   16.3995 C   0  0  0  0  0  0
   21.8415   70.2583   16.1181 H   0  0  0  0  0  0
   21.9556   71.2360   18.3864 H   0  0  0  0  0  0
   20.8087   72.1056   20.0955 H   0  0  0  0  0  0
   17.1784   73.3624   22.2837 H   0  0  0  0  0  0
   16.6239   74.9926   19.6711 H   0  0  0  0  0  0
   16.9365   75.2872   21.3745 H   0  0  0  0  0  0
   18.0934   75.8287   20.1851 H   0  0  0  0  0  0
   17.8438   69.9933   22.8688 H   0  0  0  0  0  0
   17.9638   71.4478   23.9762 H   0  0  0  0  0  0
   16.6245   71.1781   22.8638 H   0  0  0  0  0  0
   18.3359   76.1974   16.5538 H   0  0  0  0  0  0
   17.8736   74.5883   16.0697 H   0  0  0  0  0  0
   19.5978   75.0641   16.0789 H   0  0  0  0  0  0
   17.1566   70.7908   19.5673 H   0  0  0  0  0  0
   15.3659   69.4679   18.4693 H   0  0  0  0  0  0
   15.8416   68.0956   16.5280 H   0  0  0  0  0  0
   18.0675   68.0902   15.4972 H   0  0  0  0  0  0
  1  2  2  0  0  0
  1  4  1  0  0  0
  1 25  1  0  0  0
  2  3  1  0  0  0
  2 26  1  0  0  0
  3 20  2  0  0  0
  3  5  1  0  0  0
  4 19  2  0  0  0
  5 10  1  0  0  0
  5  6  1  0  0  0
  5 27  1  0  0  0
  6 14  1  0  0  0
  6  7  2  0  0  0
  7 11  1  0  0  0
  7  8  1  0  0  0
  8  9  1  0  0  0
  8 28  1  0  0  0
  9 12  1  0  0  0
  9 10  2  0  0  0
 10 13  1  0  0  0
 11 29  1  0  0  0
 11 30  1  0  0  0
 11 31  1  0  0  0
 12 32  1  0  0  0
 12 33  1  0  0  0
 12 34  1  0  0  0
 13 18  3  0  0  0
 14 15  2  0  0  0
 14 16  1  0  0  0
 16 17  1  0  0  0
 17 35  1  0  0  0
 17 36  1  0  0  0
 17 37  1  0  0  0
 19 20  1  0  0  0
 19 24  1  0  0  0
 20 21  1  0  0  0
 21 22  2  0  0  0
 21 38  1  0  0  0
 22 23  1  0  0  0
 22 39  1  0  0  0
 23 24  2  0  0  0
 23 40  1  0  0  0
 24 41  1  0  0  0
M  END
> <s_m_entry_id>
9765

> <s_m_entry_name>
dock_pv.205

> <s_m_Source_Path>
/home/csk/Desktop/cluster/DUD-E-result/mcr

> <s_m_Source_File>
dock_pv.maegz

> <i_m_Source_File_Index>
205

> <chembl_id>
CHEMBL1097753

> <chembl_pref_name>
None

> <i_lp_mmshare_version>
53161

> <i_f3d_flags>
0

> <r_lp_tautomer_probability>
1

> <s_lp_Force_Field>
OPLS_2005

> <r_lp_Energy>
19.139252

> <b_lp_Chiralities_Consistent>
1

> <s_lp_Variant>
CHEMBL1994_lig209-1

> <s_i_glide_gridfile>
glide-grid_2aa2

> <i_i_glide_lignum>
349

> <i_i_glide_rotatable_bonds>
3

> <r_i_docking_score>
-7.55386028830581

> <r_i_glide_ligand_efficiency>
-0.314744178679409

> <r_i_glide_ligand_efficiency_sa>
-0.907879311952507

> <r_i_glide_ligand_efficiency_ln>
-1.80798539105388

> <r_i_glide_gscore>
-7.55386028830581

> <r_i_glide_lipo>
-4.02671104382971

> <r_i_glide_hbond>
-0.32

> <r_i_glide_metal>
0

> <r_i_glide_rewards>
-2.57021734968215

> <r_i_glide_evdw>
-14.3143625259399

> <r_i_glide_ecoul>
-1.91393959522247

> <r_i_glide_erotb>
0.365877170786424

> <r_i_glide_esite>
0

> <r_i_glide_emodel>
-56.1058810670684

> <r_i_glide_energy>
-16.2283021211624

> <r_i_glide_einternal>
5.35763120651245

> <i_i_glide_confnum>
2

> <i_i_glide_posenum>
344

> <r_i_glide_eff_state_penalty>
0

> <s_user_duplicate_titles>
CHEMBL1994_lig209,626551

> <s_m_subgroup_title>
dock_pv

> <s_m_subgroupid>
dock_pv

> <b_m_subgroup_collapsed>
1

$$$$
CHEMBL1994_lig809
                    3D
 Schrodinger Suite 2021-1.
 39 40  0  0  1  0            999 V2000
   16.2626   74.8631   21.4202 C   0  0  0  0  0  0
   17.3290   73.8852   20.8834 C   0  0  2  0  0  0
   17.1393   72.4526   21.4259 C   0  0  0  0  0  0
   17.9260   71.3980   20.6714 C   0  0  0  0  0  0
   19.1457   70.9370   21.1713 C   0  0  0  0  0  0
   19.8373   69.9745   20.4434 C   0  0  0  0  0  0
   19.3627   69.4620   19.2820 N   0  0  0  0  0  0
   18.1662   69.8941   18.8005 C   0  0  0  0  0  0
   17.5640   69.3166   17.6608 N   0  0  0  0  0  0
   18.1191   68.7015   16.5927 C   0  0  0  0  0  0
   17.4410   68.2620   15.6700 O   0  0  0  0  0  0
   19.4410   68.6620   16.5290 N   0  0  0  0  0  0
   17.4397   70.8779   19.4676 C   0  0  0  0  0  0
   18.7649   74.3503   21.1407 C   0  0  0  0  0  0
   19.1153   74.8094   22.4185 C   0  0  0  0  0  0
   20.4224   75.1868   22.7004 C   0  0  0  0  0  0
   21.4067   75.0902   21.7291 C   0  0  0  0  0  0
   21.0742   74.6178   20.4700 C   0  0  0  0  0  0
   19.7613   74.2620   20.1496 C   0  0  0  0  0  0
   19.4559   73.8296   18.7184 C   0  0  0  0  0  0
   16.3078   75.8196   20.9004 H   0  0  0  0  0  0
   15.2672   74.4535   21.2700 H   0  0  0  0  0  0
   16.3517   75.0620   22.4863 H   0  0  0  0  0  0
   17.1427   73.8638   19.8120 H   0  0  0  0  0  0
   17.4410   72.4120   22.4723 H   0  0  0  0  0  0
   16.0901   72.1711   21.4147 H   0  0  0  0  0  0
   19.5511   71.3244   22.0942 H   0  0  0  0  0  0
   20.7856   69.5919   20.7919 H   0  0  0  0  0  0
   16.5686   69.4590   17.5974 H   0  0  0  0  0  0
   19.9157   68.1868   15.7762 H   0  0  0  0  0  0
   19.9708   69.0414   17.2994 H   0  0  0  0  0  0
   16.4910   71.2122   19.0777 H   0  0  0  0  0  0
   18.3836   74.8667   23.2100 H   0  0  0  0  0  0
   20.6789   75.5685   23.6700 H   0  0  0  0  0  0
   22.4190   75.3928   21.9440 H   0  0  0  0  0  0
   21.8410   74.5700   19.7167 H   0  0  0  0  0  0
   18.7073   74.4863   18.2741 H   0  0  0  0  0  0
   20.3390   73.8546   18.0807 H   0  0  0  0  0  0
   19.0701   72.8159   18.6838 H   0  0  0  0  0  0
  1  2  1  0  0  0
  1 21  1  0  0  0
  1 22  1  0  0  0
  1 23  1  0  0  0
  2  3  1  0  0  0
  2 14  1  0  0  0
  2 24  1  0  0  0
  3  4  1  0  0  0
  3 25  1  0  0  0
  3 26  1  0  0  0
  4  5  2  0  0  0
  4 13  1  0  0  0
  5  6  1  0  0  0
  5 27  1  0  0  0
  6  7  2  0  0  0
  6 28  1  0  0  0
  7  8  1  0  0  0
  8  9  1  0  0  0
  8 13  2  0  0  0
  9 10  1  0  0  0
  9 29  1  0  0  0
 10 11  2  0  0  0
 10 12  1  0  0  0
 12 30  1  0  0  0
 12 31  1  0  0  0
 13 32  1  0  0  0
 14 15  2  0  0  0
 14 19  1  0  0  0
 15 16  1  0  0  0
 15 33  1  0  0  0
 16 17  2  0  0  0
 16 34  1  0  0  0
 17 18  1  0  0  0
 17 35  1  0  0  0
 18 19  2  0  0  0
 18 36  1  0  0  0
 19 20  1  0  0  0
 20 37  1  0  0  0
 20 38  1  0  0  0
 20 39  1  0  0  0
M  END
> <s_m_entry_id>
9766

> <s_m_entry_name>
dock_pv.206

> <s_m_Source_Path>
/home/csk/Desktop/cluster/DUD-E-result/mcr

> <s_m_Source_File>
dock_pv.maegz

> <i_m_Source_File_Index>
206

> <chembl_id>
CHEMBL3643674

> <chembl_pref_name>
None

> <i_lp_mmshare_version>
53161

> <i_f3d_flags>
0

> <r_lp_tautomer_probability>
1

> <s_lp_Force_Field>
OPLS_2005

> <r_lp_Energy>
9.748572

> <b_lp_Chiralities_Consistent>
1

> <s_lp_Variant>
CHEMBL1994_lig809-1

> <s_i_glide_gridfile>
glide-grid_2aa2

> <i_i_glide_lignum>
1227

> <i_i_glide_rotatable_bonds>
5

> <r_i_docking_score>
-7.55048059401015

> <r_i_glide_ligand_efficiency>
-0.377524029700508

> <r_i_glide_ligand_efficiency_sa>
-1.02475787588366

> <r_i_glide_ligand_efficiency_ln>
-1.88963626116382

> <r_i_glide_gscore>
-7.55048059401015

> <r_i_glide_lipo>
-3.69188292986543

> <r_i_glide_hbond>
-0.434119381186831

> <r_i_glide_metal>
0

> <r_i_glide_rewards>
-1.91058094230543

> <r_i_glide_evdw>
-34.1987380981445

> <r_i_glide_ecoul>
-5.26061773300171

> <r_i_glide_erotb>
0.985132224205019

> <r_i_glide_esite>
0

> <r_i_glide_emodel>
-54.8781072459205

> <r_i_glide_energy>
-39.4593558311462

> <r_i_glide_einternal>
1.0374470949173

> <i_i_glide_confnum>
7

> <i_i_glide_posenum>
373

> <r_i_glide_eff_state_penalty>
0

> <s_user_duplicate_titles>
CHEMBL1994_lig809

> <s_m_subgroup_title>
dock_pv

> <s_m_subgroupid>
dock_pv

> <b_m_subgroup_collapsed>
1

$$$$
CHEMBL1994_lig14
                    3D
 Schrodinger Suite 2021-1.
 40 42  0  0  1  0            999 V2000
   17.4505   74.4295   21.0259 C   0  0  0  0  0  0
   18.8833   74.0254   20.7670 C   0  0  0  0  0  0
   19.7668   75.3639   22.5488 N   0  0  0  0  0  0
   17.2752   75.2895   22.2747 C   0  0  0  0  0  0
   18.4672   75.3818   23.2420 C   0  0  0  0  0  0
   20.3367   71.4253   18.6058 C   0  0  0  0  0  0
   19.9844   74.5137   21.4686 C   0  0  0  0  0  0
   19.1033   73.1186   19.7500 C   0  0  0  0  0  0
   19.2169   70.6100   18.3163 C   0  0  0  0  0  0
   21.4428   71.0430   17.8942 C   0  0  0  0  0  0
   21.0410   69.8620   16.7378 S   0  0  0  0  0  0
   20.3368   72.5598   19.5322 C   0  0  0  0  0  0
   19.4273   69.7579   17.2610 C   0  0  0  0  0  0
   17.7657   68.2620   15.9384 N   0  0  0  0  0  0
   18.5038   68.9169   16.5364 C   0  0  0  0  0  0
   16.2048   75.8620   22.5058 O   0  0  0  0  0  0
   21.2716   74.0665   21.1717 C   0  0  0  0  0  0
   21.4410   73.0797   20.1982 C   0  0  0  0  0  0
   17.0410   75.3327   19.8698 C   0  0  0  0  0  0
   16.6410   73.1409   21.2699 C   0  0  0  0  0  0
   18.3464   74.2096   24.1962 C   0  0  0  0  0  0
   18.3941   76.7406   23.8610 C   0  0  0  0  0  0
   20.5473   75.6050   23.1409 H   0  0  0  0  0  0
   18.2614   72.8048   19.1545 H   0  0  0  0  0  0
   18.2541   70.6984   18.7983 H   0  0  0  0  0  0
   22.4376   71.4620   17.9263 H   0  0  0  0  0  0
   22.1253   74.4278   21.7275 H   0  0  0  0  0  0
   22.4200   72.6621   20.0221 H   0  0  0  0  0  0
   17.4412   76.3312   19.9604 H   0  0  0  0  0  0
   17.4410   74.9575   18.9322 H   0  0  0  0  0  0
   15.9635   75.4620   19.7906 H   0  0  0  0  0  0
   17.0415   72.5290   22.0700 H   0  0  0  0  0  0
   15.5956   73.3667   21.4832 H   0  0  0  0  0  0
   16.6410   72.4628   20.4245 H   0  0  0  0  0  0
   17.4410   74.2619   24.8044 H   0  0  0  0  0  0
   18.3939   73.2342   23.7119 H   0  0  0  0  0  0
   19.1747   74.2622   24.8700 H   0  0  0  0  0  0
   17.4973   76.8613   24.4700 H   0  0  0  0  0  0
   19.2617   76.9945   24.4700 H   0  0  0  0  0  0
   18.3304   77.4620   23.0677 H   0  0  0  0  0  0
  1  2  1  0  0  0
  1  4  1  0  0  0
  1 19  1  0  0  0
  1 20  1  0  0  0
  2  7  1  0  0  0
  2  8  2  0  0  0
  3  5  1  0  0  0
  3  7  1  0  0  0
  3 23  1  0  0  0
  4  5  1  0  0  0
  4 16  2  0  0  0
  5 21  1  0  0  0
  5 22  1  0  0  0
  6 12  1  0  0  0
  6  9  1  0  0  0
  6 10  2  0  0  0
  7 17  2  0  0  0
  8 12  1  0  0  0
  8 24  1  0  0  0
  9 13  2  0  0  0
  9 25  1  0  0  0
 10 11  1  0  0  0
 10 26  1  0  0  0
 11 13  1  0  0  0
 12 18  2  0  0  0
 13 15  1  0  0  0
 14 15  3  0  0  0
 17 18  1  0  0  0
 17 27  1  0  0  0
 18 28  1  0  0  0
 19 29  1  0  0  0
 19 30  1  0  0  0
 19 31  1  0  0  0
 20 32  1  0  0  0
 20 33  1  0  0  0
 20 34  1  0  0  0
 21 35  1  0  0  0
 21 36  1  0  0  0
 21 37  1  0  0  0
 22 38  1  0  0  0
 22 39  1  0  0  0
 22 40  1  0  0  0
M  END
> <s_m_entry_id>
9767

> <s_m_entry_name>
dock_pv.207

> <s_m_Source_Path>
/home/csk/Desktop/cluster/DUD-E-result/mcr

> <s_m_Source_File>
dock_pv.maegz

> <i_m_Source_File_Index>
207

> <chembl_id>
CHEMBL131681

> <chembl_pref_name>
None

> <i_lp_mmshare_version>
53161

> <i_f3d_flags>
0

> <r_lp_tautomer_probability>
1

> <s_lp_Force_Field>
OPLS_2005

> <r_lp_Energy>
25.231469

> <b_lp_Chiralities_Consistent>
1

> <s_lp_Variant>
CHEMBL1994_lig14-1

> <s_i_glide_gridfile>
glide-grid_2aa2

> <i_i_glide_lignum>
14

> <i_i_glide_rotatable_bonds>
1

> <r_i_docking_score>
-7.53086736913023

> <r_i_glide_ligand_efficiency>
-0.342312153142283

> <r_i_glide_ligand_efficiency_sa>
-0.959172115477727

> <r_i_glide_ligand_efficiency_ln>
-1.84081868007705

> <r_i_glide_gscore>
-7.53086736913023

> <r_i_glide_lipo>
-3.97601271079491

> <r_i_glide_hbond>
-0.300484642509202

> <r_i_glide_metal>
0

> <r_i_glide_rewards>
-2.53203641377696

> <r_i_glide_evdw>
-8.93171691894531

> <r_i_glide_ecoul>
-3.12038493156433

> <r_i_glide_erotb>
0.192309983632749

> <r_i_glide_esite>
0

> <r_i_glide_emodel>
-42.340681911979

> <r_i_glide_energy>
-12.0521018505096

> <r_i_glide_einternal>
0.15666751563549

> <i_i_glide_confnum>
2

> <i_i_glide_posenum>
1

> <r_i_glide_eff_state_penalty>
0

> <s_user_duplicate_titles>
CHEMBL1994_lig14

> <s_m_subgroup_title>
dock_pv

> <s_m_subgroupid>
dock_pv

> <b_m_subgroup_collapsed>
1

$$$$
CHEMBL1994_lig358
                    3D
 Schrodinger Suite 2021-1.
 47 49  0  0  1  0            999 V2000
   17.0401   76.2618   24.3241 C   0  0  0  0  0  0
   17.2918   75.0657   24.8700 N   0  0  0  0  0  0
   18.2412   74.2620   24.3736 C   0  0  0  0  0  0
   17.7497   76.7598   23.2536 C   0  0  0  0  0  0
   18.7199   75.9264   22.6703 C   0  0  0  0  0  0
   18.9662   74.6724   23.2705 C   0  0  0  0  0  0
   19.9420   74.0620   22.5479 N   0  0  0  0  0  0
   20.2058   74.7596   21.4003 C   0  0  0  0  0  0
   19.5919   75.9903   21.5439 C   0  0  0  0  0  0
   20.9838   74.0957   20.2727 C   0  0  0  0  0  0
   20.1301   73.0453   19.4472 C   0  0  1  0  0  0
   19.5322   72.0318   20.4701 C   0  0  0  0  0  0
   18.9972   73.6577   18.5379 C   0  0  0  0  0  0
   19.4405   74.2620   17.4375 F   0  0  0  0  0  0
   18.1620   72.7423   18.0697 F   0  0  0  0  0  0
   18.2439   74.5302   19.2084 F   0  0  0  0  0  0
   21.0476   72.3383   18.6322 O   0  0  0  0  0  0
   19.2898   70.5159   20.2740 C   0  0  0  0  0  0
   18.5297   70.1226   18.9822 C   0  0  0  0  0  0
   20.6010   69.7150   20.4547 C   0  0  0  0  0  0
   18.4581   70.1214   21.5239 C   0  0  0  0  0  0
   19.1499   69.4654   17.9058 C   0  0  0  0  0  0
   18.3957   68.9167   16.8702 C   0  0  0  0  0  0
   17.0128   69.0608   16.8700 C   0  0  0  0  0  0
   16.3889   69.7872   17.8735 C   0  0  0  0  0  0
   17.1459   70.3154   18.9087 C   0  0  0  0  0  0
   18.9983   68.2369   15.8703 F   0  0  0  0  0  0
   16.2805   76.8543   24.8037 H   0  0  0  0  0  0
   18.3616   73.2953   24.8370 H   0  0  0  0  0  0
   17.4827   77.7278   22.8700 H   0  0  0  0  0  0
   20.3135   73.1388   22.7079 H   0  0  0  0  0  0
   19.6688   76.8219   20.8700 H   0  0  0  0  0  0
   21.8465   73.5848   20.7048 H   0  0  0  0  0  0
   21.4421   74.8630   19.6700 H   0  0  0  0  0  0
   18.6210   72.4910   20.8613 H   0  0  0  0  0  0
   20.2285   72.0117   21.3014 H   0  0  0  0  0  0
   20.5624   71.6584   18.1585 H   0  0  0  0  0  0
   21.0410   69.8694   21.4365 H   0  0  0  0  0  0
   20.3770   68.6618   20.4677 H   0  0  0  0  0  0
   21.3593   69.9187   19.6984 H   0  0  0  0  0  0
   18.9941   70.3091   22.4554 H   0  0  0  0  0  0
   17.5146   70.6613   21.6196 H   0  0  0  0  0  0
   18.2412   69.0623   21.4858 H   0  0  0  0  0  0
   20.2200   69.3547   17.8639 H   0  0  0  0  0  0
   16.4251   68.6379   16.0711 H   0  0  0  0  0  0
   15.3207   69.9321   17.8740 H   0  0  0  0  0  0
   16.6411   70.8643   19.6851 H   0  0  0  0  0  0
  1  2  2  0  0  0
  1  4  1  0  0  0
  1 28  1  0  0  0
  2  3  1  0  0  0
  3  6  2  0  0  0
  3 29  1  0  0  0
  4  5  2  0  0  0
  4 30  1  0  0  0
  5  9  1  0  0  0
  5  6  1  0  0  0
  6  7  1  0  0  0
  7  8  1  0  0  0
  7 31  1  0  0  0
  8  9  2  0  0  0
  8 10  1  0  0  0
  9 32  1  0  0  0
 10 11  1  0  0  0
 10 33  1  0  0  0
 10 34  1  0  0  0
 11 17  1  0  0  0
 11 12  1  0  0  0
 11 13  1  0  0  0
 12 18  1  0  0  0
 12 35  1  0  0  0
 12 36  1  0  0  0
 13 14  1  0  0  0
 13 15  1  0  0  0
 13 16  1  0  0  0
 17 37  1  0  0  0
 18 19  1  0  0  0
 18 20  1  0  0  0
 18 21  1  0  0  0
 19 22  2  0  0  0
 19 26  1  0  0  0
 20 38  1  0  0  0
 20 39  1  0  0  0
 20 40  1  0  0  0
 21 41  1  0  0  0
 21 42  1  0  0  0
 21 43  1  0  0  0
 22 23  1  0  0  0
 22 44  1  0  0  0
 23 24  2  0  0  0
 23 27  1  0  0  0
 24 25  1  0  0  0
 24 45  1  0  0  0
 25 26  2  0  0  0
 25 46  1  0  0  0
 26 47  1  0  0  0
M  END
> <s_m_entry_id>
9768

> <s_m_entry_name>
dock_pv.208

> <s_m_Source_Path>
/home/csk/Desktop/cluster/DUD-E-result/mcr

> <s_m_Source_File>
dock_pv.maegz

> <i_m_Source_File_Index>
208

> <chembl_id>
CHEMBL1253987

> <chembl_pref_name>
None

> <i_lp_mmshare_version>
53161

> <i_f3d_flags>
0

> <r_lp_tautomer_probability>
0.999762906630677

> <s_lp_Force_Field>
OPLS_2005

> <r_lp_Energy>
25.830974

> <b_lp_Chiralities_Consistent>
1

> <s_lp_Variant>
CHEMBL1994_lig358-2

> <s_i_glide_gridfile>
glide-grid_2aa2

> <i_i_glide_lignum>
596

> <i_i_glide_rotatable_bonds>
7

> <r_i_docking_score>
-7.50441038493222

> <r_i_glide_ligand_efficiency>
-0.27794112536786

> <r_i_glide_ligand_efficiency_sa>
-0.833823375187531

> <r_i_glide_ligand_efficiency_ln>
-1.74690301773779

> <r_i_glide_gscore>
-7.50441038493222

> <r_i_glide_lipo>
-4.9695096440627

> <r_i_glide_hbond>
-0.0545090527160357

> <r_i_glide_metal>
0

> <r_i_glide_rewards>
-2.03743432307596

> <r_i_glide_evdw>
-21.0641136169434

> <r_i_glide_ecoul>
1.3867152929306

> <r_i_glide_erotb>
0.402241021830056

> <r_i_glide_esite>
0

> <r_i_glide_emodel>
-40.5813121767273

> <r_i_glide_energy>
-19.6773983240128

> <r_i_glide_einternal>
5.68450260162354

> <i_i_glide_confnum>
17

> <i_i_glide_posenum>
171

> <r_i_glide_eff_state_penalty>
0

> <s_user_duplicate_titles>
CHEMBL1994_lig358

> <s_m_subgroup_title>
dock_pv

> <s_m_subgroupid>
dock_pv

> <b_m_subgroup_collapsed>
1

$$$$
CHEMBL1994_lig157
                    3D
 Schrodinger Suite 2021-1.
 51 52  0  0  1  0            999 V2000
   19.7326   73.1521   22.5701 C   0  0  0  0  0  0
   19.0366   74.4219   23.0013 C   0  0  0  0  0  0
   18.2410   74.3818   24.1449 C   0  0  0  0  0  0
   17.4294   75.4620   24.4699 C   0  0  0  0  0  0
   17.4047   76.5896   23.6700 C   0  0  0  0  0  0
   18.2481   76.6331   22.5727 C   0  0  0  0  0  0
   19.1058   75.5971   22.2483 C   0  0  0  0  0  0
   18.6919   71.0678   18.3140 C   0  0  0  0  0  0
   17.3087   70.8581   18.3883 C   0  0  0  0  0  0
   16.7385   69.6853   17.9204 C   0  0  0  0  0  0
   17.5058   68.7201   17.3076 C   0  0  0  0  0  0
   18.8794   68.8469   17.3056 C   0  0  0  0  0  0
   19.4718   69.9842   17.8645 C   0  0  0  0  0  0
   19.2988   72.4535   18.6779 C   0  0  0  0  0  0
   19.0770   72.3002   21.4150 C   0  0  2  0  0  0
   19.9134   72.4941   20.1095 C   0  0  0  0  0  0
   17.7300   72.7353   21.2512 O   0  0  0  0  0  0
   19.0149   70.7934   21.7990 C   0  0  0  0  0  0
   20.2058   70.2620   22.0688 F   0  0  0  0  0  0
   18.2410   70.6620   22.8700 F   0  0  0  0  0  0
   18.5004   70.0145   20.8613 F   0  0  0  0  0  0
   20.4795   72.8246   17.7507 C   0  0  0  0  0  0
   18.2730   73.5916   18.3917 C   0  0  0  0  0  0
   15.4352   69.4620   18.0700 F   0  0  0  0  0  0
   20.8263   70.0131   17.9693 O   0  0  0  0  0  0
   21.4410   70.0715   16.7131 C   0  0  0  0  0  0
   20.0850   75.8204   21.1063 C   0  0  0  0  0  0
   19.8410   72.5550   23.4773 H   0  0  0  0  0  0
   20.7409   73.4620   22.3140 H   0  0  0  0  0  0
   18.1782   73.4840   24.7429 H   0  0  0  0  0  0
   16.7432   75.3919   25.2872 H   0  0  0  0  0  0
   16.7424   77.4132   23.8936 H   0  0  0  0  0  0
   18.2410   77.4620   21.9104 H   0  0  0  0  0  0
   16.6514   71.5799   18.8333 H   0  0  0  0  0  0
   17.0197   67.8620   16.8927 H   0  0  0  0  0  0
   19.4833   68.0442   16.9093 H   0  0  0  0  0  0
   20.7154   71.7540   20.1337 H   0  0  0  0  0  0
   20.4658   73.4249   20.1764 H   0  0  0  0  0  0
   17.3137   72.8032   22.1192 H   0  0  0  0  0  0
   20.7583   73.8620   17.8682 H   0  0  0  0  0  0
   21.4046   72.3045   17.9887 H   0  0  0  0  0  0
   20.2410   72.6619   16.7064 H   0  0  0  0  0  0
   18.7132   74.5872   18.4097 H   0  0  0  0  0  0
   17.8414   73.4621   17.3978 H   0  0  0  0  0  0
   17.4410   73.6332   19.0814 H   0  0  0  0  0  0
   22.4570   70.4174   16.8769 H   0  0  0  0  0  0
   21.4410   69.1129   16.2017 H   0  0  0  0  0  0
   20.9909   70.8061   16.0700 H   0  0  0  0  0  0
   20.3027   76.8805   20.9727 H   0  0  0  0  0  0
   21.0509   75.3536   21.2925 H   0  0  0  0  0  0
   19.6682   75.4536   20.1748 H   0  0  0  0  0  0
  1  2  1  0  0  0
  1 15  1  0  0  0
  1 28  1  0  0  0
  1 29  1  0  0  0
  2  7  1  0  0  0
  2  3  2  0  0  0
  3  4  1  0  0  0
  3 30  1  0  0  0
  4  5  2  0  0  0
  4 31  1  0  0  0
  5  6  1  0  0  0
  5 32  1  0  0  0
  6  7  2  0  0  0
  6 33  1  0  0  0
  7 27  1  0  0  0
  8  9  2  0  0  0
  8 13  1  0  0  0
  8 14  1  0  0  0
  9 10  1  0  0  0
  9 34  1  0  0  0
 10 11  2  0  0  0
 10 24  1  0  0  0
 11 12  1  0  0  0
 11 35  1  0  0  0
 12 13  2  0  0  0
 12 36  1  0  0  0
 13 25  1  0  0  0
 14 16  1  0  0  0
 14 22  1  0  0  0
 14 23  1  0  0  0
 15 16  1  0  0  0
 15 17  1  0  0  0
 15 18  1  0  0  0
 16 37  1  0  0  0
 16 38  1  0  0  0
 17 39  1  0  0  0
 18 19  1  0  0  0
 18 20  1  0  0  0
 18 21  1  0  0  0
 22 40  1  0  0  0
 22 41  1  0  0  0
 22 42  1  0  0  0
 23 43  1  0  0  0
 23 44  1  0  0  0
 23 45  1  0  0  0
 25 26  1  0  0  0
 26 46  1  0  0  0
 26 47  1  0  0  0
 26 48  1  0  0  0
 27 49  1  0  0  0
 27 50  1  0  0  0
 27 51  1  0  0  0
M  END
> <s_m_entry_id>
9769

> <s_m_entry_name>
dock_pv.209

> <s_m_Source_Path>
/home/csk/Desktop/cluster/DUD-E-result/mcr

> <s_m_Source_File>
dock_pv.maegz

> <i_m_Source_File_Index>
209

> <chembl_id>
CHEMBL236747

> <chembl_pref_name>
None

> <i_lp_mmshare_version>
53161

> <i_f3d_flags>
0

> <r_lp_tautomer_probability>
1

> <s_lp_Force_Field>
OPLS_2005

> <r_lp_Energy>
34.613917

> <b_lp_Chiralities_Consistent>
1

> <s_lp_Variant>
CHEMBL1994_lig157-2

> <s_i_glide_gridfile>
glide-grid_2aa2

> <i_i_glide_lignum>
264

> <i_i_glide_rotatable_bonds>
8

> <r_i_docking_score>
-7.48887334058387

> <r_i_glide_ligand_efficiency>
-0.277365679280884

> <r_i_glide_ligand_efficiency_sa>
-0.8320970369285

> <r_i_glide_ligand_efficiency_ln>
-1.74328624996169

> <r_i_glide_gscore>
-7.48887334058387

> <r_i_glide_lipo>
-5.05521123333299

> <r_i_glide_hbond>
-0.148557629020509

> <r_i_glide_metal>
0

> <r_i_glide_rewards>
-2.02663148377711

> <r_i_glide_evdw>
-15.5744934082031

> <r_i_glide_ecoul>
-0.917384266853333

> <r_i_glide_erotb>
0.657859315984898

> <r_i_glide_esite>
0

> <r_i_glide_emodel>
-16.6156064216841

> <r_i_glide_energy>
-16.4918776750565

> <r_i_glide_einternal>
15.6117887496948

> <i_i_glide_confnum>
13

> <i_i_glide_posenum>
14

> <r_i_glide_eff_state_penalty>
0

> <s_user_duplicate_titles>
CHEMBL1994_lig157

> <s_m_subgroup_title>
dock_pv

> <s_m_subgroupid>
dock_pv

> <b_m_subgroup_collapsed>
1

$$$$
CHEMBL1994_lig1059
                    3D
 Schrodinger Suite 2021-1.
 43 45  0  0  1  0            999 V2000
   19.0281   75.9118   23.2106 C   0  0  0  0  0  0
   17.5779   75.8728   23.2991 C   0  0  0  0  0  0
   17.0248   75.0620   22.3891 N   0  0  0  0  0  0
   19.7780   75.1908   22.3222 C   0  0  0  0  0  0
   19.0832   74.1119   21.5792 C   0  0  0  0  0  0
   17.6927   74.0732   21.6549 C   0  0  0  0  0  0
   17.0062   73.0053   21.0897 C   0  0  0  0  0  0
   17.6730   72.0650   20.2952 C   0  0  0  0  0  0
   19.0459   72.1874   20.0781 C   0  0  0  0  0  0
   19.7271   73.1251   20.8460 C   0  0  0  0  0  0
   19.7654   71.5163   19.0723 N   0  0  0  0  0  0
   19.5787   70.1650   18.5074 C   0  0  2  0  0  0
   21.0165   69.8175   18.0697 C   0  0  0  0  0  0
   21.5671   71.0799   17.5274 C   0  0  0  0  0  0
   21.0882   71.9901   18.6164 C   0  0  1  0  0  0
   21.2806   75.3882   22.0529 C   0  0  0  0  0  0
   21.8410   76.1425   22.9568 F   0  0  0  0  0  0
   21.9719   74.2620   22.0700 F   0  0  0  0  0  0
   21.4456   75.9718   20.8700 F   0  0  0  0  0  0
   16.8716   76.5118   24.0700 O   0  0  0  0  0  0
   18.5100   70.0526   17.3472 C   0  0  1  0  0  0
   21.1654   73.4620   18.2244 C   0  0  0  0  0  0
   19.0410   69.4583   16.1622 O   0  0  0  0  0  0
   17.1709   69.3450   17.7177 C   0  0  0  0  0  0
   16.6410   68.6620   16.6996 F   0  0  0  0  0  0
   16.2410   70.2257   18.0675 F   0  0  0  0  0  0
   17.3159   68.4812   18.7194 F   0  0  0  0  0  0
   19.3147   69.5098   19.3384 H   0  0  0  0  0  0
   19.4410   76.6601   23.8590 H   0  0  0  0  0  0
   16.0217   75.0118   22.4705 H   0  0  0  0  0  0
   15.9474   72.9387   21.2694 H   0  0  0  0  0  0
   17.1064   71.2912   19.8172 H   0  0  0  0  0  0
   20.7897   73.0833   20.8055 H   0  0  0  0  0  0
   21.5988   69.4620   18.9202 H   0  0  0  0  0  0
   21.0932   69.0620   17.2974 H   0  0  0  0  0  0
   22.6486   71.0286   17.4923 H   0  0  0  0  0  0
   21.1877   71.3572   16.5420 H   0  0  0  0  0  0
   21.8231   71.9273   19.4215 H   0  0  0  0  0  0
   18.2571   71.0620   17.0315 H   0  0  0  0  0  0
   22.0701   73.6678   17.6700 H   0  0  0  0  0  0
   20.2828   73.7778   17.6700 H   0  0  0  0  0  0
   21.2633   74.1104   19.0899 H   0  0  0  0  0  0
   19.3413   68.5711   16.3762 H   0  0  0  0  0  0
  1  2  1  0  0  0
  1  4  2  0  0  0
  1 29  1  0  0  0
  2  3  1  0  0  0
  2 20  2  0  0  0
  3  6  1  0  0  0
  3 30  1  0  0  0
  4 16  1  0  0  0
  4  5  1  0  0  0
  5 10  1  0  0  0
  5  6  2  0  0  0
  6  7  1  0  0  0
  7  8  2  0  0  0
  7 31  1  0  0  0
  8  9  1  0  0  0
  8 32  1  0  0  0
  9 11  1  0  0  0
  9 10  2  0  0  0
 10 33  1  0  0  0
 11 15  1  0  0  0
 11 12  1  0  0  0
 12 13  1  0  0  0
 12 21  1  0  0  0
 12 28  1  0  0  0
 13 14  1  0  0  0
 13 34  1  0  0  0
 13 35  1  0  0  0
 14 15  1  0  0  0
 14 36  1  0  0  0
 14 37  1  0  0  0
 15 22  1  0  0  0
 15 38  1  0  0  0
 16 17  1  0  0  0
 16 18  1  0  0  0
 16 19  1  0  0  0
 21 23  1  0  0  0
 21 24  1  0  0  0
 21 39  1  0  0  0
 22 40  1  0  0  0
 22 41  1  0  0  0
 22 42  1  0  0  0
 23 43  1  0  0  0
 24 25  1  0  0  0
 24 26  1  0  0  0
 24 27  1  0  0  0
M  END
> <s_m_entry_id>
9770

> <s_m_entry_name>
dock_pv.210

> <s_m_Source_Path>
/home/csk/Desktop/cluster/DUD-E-result/mcr

> <s_m_Source_File>
dock_pv.maegz

> <i_m_Source_File_Index>
210

> <chembl_id>
CHEMBL467888

> <chembl_pref_name>
LGD-2941

> <i_lp_mmshare_version>
53161

> <i_f3d_flags>
0

> <r_lp_tautomer_probability>
1

> <s_lp_Force_Field>
OPLS_2005

> <r_lp_Energy>
53.038312

> <b_lp_Chiralities_Consistent>
1

> <s_lp_Variant>
CHEMBL1994_lig1059-1

> <s_i_glide_gridfile>
glide-grid_2aa2

> <i_i_glide_lignum>
1537

> <i_i_glide_rotatable_bonds>
5

> <r_i_docking_score>
-7.48462423631959

> <r_i_glide_ligand_efficiency>
-0.277208305048874

> <r_i_glide_ligand_efficiency_sa>
-0.831624914232988

> <r_i_glide_ligand_efficiency_ln>
-1.74229712854093

> <r_i_glide_gscore>
-7.48462423631959

> <r_i_glide_lipo>
-3.88845089703241

> <r_i_glide_hbond>
-0.00705175017665066

> <r_i_glide_metal>
0

> <r_i_glide_rewards>
-2.41353712029113

> <r_i_glide_evdw>
-21.1297817230225

> <r_i_glide_ecoul>
-2.34630370140076

> <r_i_glide_erotb>
0.25139452058503

> <r_i_glide_esite>
-0.0185443480431877

> <r_i_glide_emodel>
-31.0563224116838

> <r_i_glide_energy>
-23.4760854244232

> <r_i_glide_einternal>
11.7818880081177

> <i_i_glide_confnum>
6

> <i_i_glide_posenum>
208

> <r_i_glide_eff_state_penalty>
0

> <s_user_duplicate_titles>
CHEMBL1994_lig1059

> <s_m_subgroup_title>
dock_pv

> <s_m_subgroupid>
dock_pv

> <b_m_subgroup_collapsed>
1

$$$$
CHEMBL1994_lig212
                    3D
 Schrodinger Suite 2021-1.
 41 43  0  0  1  0            999 V2000
   21.0720   70.0967   16.7484 C   0  0  0  0  0  0
   21.0996   70.6836   17.9862 C   0  0  0  0  0  0
   19.8859   70.8032   18.6535 C   0  0  0  0  0  0
   20.0399   69.4335   16.2322 N   0  0  0  0  0  0
   19.8276   71.7759   19.8321 C   0  0  1  0  0  0
   19.0801   73.1145   19.6017 C   0  0  0  0  0  0
   18.1768   73.6179   20.4893 C   0  0  0  0  0  0
   17.8466   72.8427   21.5623 N   0  0  0  0  0  0
   18.3964   71.6218   21.8231 C   0  0  0  0  0  0
   19.3650   71.0909   21.0699 C   0  0  0  0  0  0
   17.4298   74.9546   20.4630 C   0  0  0  0  0  0
   17.6959   70.9317   22.8949 C   0  0  0  0  0  0
   19.9524   69.8175   21.2677 C   0  0  0  0  0  0
   19.4113   73.7077   18.3240 C   0  0  0  0  0  0
   20.3513   73.3168   17.6701 O   0  0  0  0  0  0
   18.6410   74.6612   17.9215 O   0  0  0  0  0  0
   18.6407   75.1571   16.5914 C   0  0  0  0  0  0
   20.5576   68.8382   21.2699 N   0  0  0  0  0  0
   18.9023   69.4026   16.9275 C   0  0  0  0  0  0
   18.7197   70.1451   18.1300 C   0  0  0  0  0  0
   17.4084   70.1888   18.6727 C   0  0  0  0  0  0
   16.3872   69.4531   18.0716 C   0  0  0  0  0  0
   16.6389   68.6639   16.9631 C   0  0  0  0  0  0
   17.8760   68.6472   16.3681 C   0  0  0  0  0  0
   16.8117   75.4618   22.0694 Cl  0  0  0  0  0  0
   21.8411   70.2621   16.0378 H   0  0  0  0  0  0
   21.9796   71.2234   18.3072 H   0  0  0  0  0  0
   20.8615   72.0594   20.0487 H   0  0  0  0  0  0
   17.2035   73.2284   22.2456 H   0  0  0  0  0  0
   18.0845   75.7522   20.1194 H   0  0  0  0  0  0
   16.5831   74.9005   19.7833 H   0  0  0  0  0  0
   17.8503   69.8621   22.8698 H   0  0  0  0  0  0
   17.9530   71.3703   23.8616 H   0  0  0  0  0  0
   16.6405   71.0591   22.7676 H   0  0  0  0  0  0
   18.3462   76.2055   16.5633 H   0  0  0  0  0  0
   17.8650   74.6097   16.0699 H   0  0  0  0  0  0
   19.5914   75.0629   16.0715 H   0  0  0  0  0  0
   17.1923   70.7791   19.5479 H   0  0  0  0  0  0
   15.3865   69.4639   18.4698 H   0  0  0  0  0  0
   15.8416   68.0935   16.5245 H   0  0  0  0  0  0
   18.0494   68.0838   15.4643 H   0  0  0  0  0  0
  1  2  2  0  0  0
  1  4  1  0  0  0
  1 26  1  0  0  0
  2  3  1  0  0  0
  2 27  1  0  0  0
  3 20  2  0  0  0
  3  5  1  0  0  0
  4 19  2  0  0  0
  5 10  1  0  0  0
  5  6  1  0  0  0
  5 28  1  0  0  0
  6 14  1  0  0  0
  6  7  2  0  0  0
  7  8  1  0  0  0
  7 11  1  0  0  0
  8  9  1  0  0  0
  8 29  1  0  0  0
  9 12  1  0  0  0
  9 10  2  0  0  0
 10 13  1  0  0  0
 11 25  1  0  0  0
 11 30  1  0  0  0
 11 31  1  0  0  0
 12 32  1  0  0  0
 12 33  1  0  0  0
 12 34  1  0  0  0
 13 18  3  0  0  0
 14 15  2  0  0  0
 14 16  1  0  0  0
 16 17  1  0  0  0
 17 35  1  0  0  0
 17 36  1  0  0  0
 17 37  1  0  0  0
 19 20  1  0  0  0
 19 24  1  0  0  0
 20 21  1  0  0  0
 21 22  2  0  0  0
 21 38  1  0  0  0
 22 23  1  0  0  0
 22 39  1  0  0  0
 23 24  2  0  0  0
 23 40  1  0  0  0
 24 41  1  0  0  0
M  END
> <s_m_entry_id>
9771

> <s_m_entry_name>
dock_pv.211

> <s_m_Source_Path>
/home/csk/Desktop/cluster/DUD-E-result/mcr

> <s_m_Source_File>
dock_pv.maegz

> <i_m_Source_File_Index>
211

> <chembl_id>
CHEMBL1094798

> <chembl_pref_name>
None

> <i_lp_mmshare_version>
53161

> <i_f3d_flags>
0

> <r_lp_tautomer_probability>
1

> <s_lp_Force_Field>
OPLS_2005

> <r_lp_Energy>
19.038057

> <b_lp_Chiralities_Consistent>
1

> <s_lp_Variant>
CHEMBL1994_lig212-1

> <s_i_glide_gridfile>
glide-grid_2aa2

> <i_i_glide_lignum>
353

> <i_i_glide_rotatable_bonds>
4

> <r_i_docking_score>
-7.48445657946137

> <r_i_glide_ligand_efficiency>
-0.299378263178455

> <r_i_glide_ligand_efficiency_sa>
-0.875387351029908

> <r_i_glide_ligand_efficiency_ln>
-1.77404050039685

> <r_i_glide_gscore>
-7.48445657946137

> <r_i_glide_lipo>
-4.25433247524764

> <r_i_glide_hbond>
-0.295774247439426

> <r_i_glide_metal>
0

> <r_i_glide_rewards>
-2.33754194698416

> <r_i_glide_evdw>
-13.6532831192017

> <r_i_glide_ecoul>
-1.46222138404846

> <r_i_glide_erotb>
0.30518945377721

> <r_i_glide_esite>
0

> <r_i_glide_emodel>
-50.7112480329299

> <r_i_glide_energy>
-15.1155045032501

> <r_i_glide_einternal>
6.90455102920532

> <i_i_glide_confnum>
3

> <i_i_glide_posenum>
169

> <r_i_glide_eff_state_penalty>
0

> <s_user_duplicate_titles>
CHEMBL1994_lig212,625317

> <s_m_subgroup_title>
dock_pv

> <s_m_subgroupid>
dock_pv

> <b_m_subgroup_collapsed>
1

$$$$
CHEMBL1994_lig541
                    3D
 Schrodinger Suite 2021-1.
 49 51  0  0  1  0            999 V2000
   18.7682   71.6893   22.2147 C   0  0  0  0  0  0
   18.9488   72.3951   23.5815 C   0  0  0  0  0  0
   18.5512   73.8322   23.7475 N   0  0  3  0  0  0
   19.2439   75.2503   22.9444 S   0  0  0  0  0  0
   19.2342   74.7246   21.2857 C   0  0  0  0  0  0
   18.3111   76.3683   23.1221 O   0  0  0  0  0  0
   20.6435   75.4620   23.2754 O   0  0  0  0  0  0
   17.5773   71.8090   21.5039 C   0  0  0  0  0  0
   17.4411   71.2271   20.2457 C   0  0  0  0  0  0
   18.4502   70.4175   19.7238 C   0  0  0  0  0  0
   19.6012   70.1961   20.4701 C   0  0  0  0  0  0
   19.7482   70.8291   21.6946 C   0  0  0  0  0  0
   18.2686   69.7739   18.4843 N   0  0  0  0  0  0
   17.0974   69.2202   18.0284 C   0  0  0  0  0  0
   17.3814   68.7062   16.7817 C   0  0  0  0  0  0
   18.6408   68.9040   16.4443 N   0  0  0  0  0  0
   19.1690   69.5638   17.4503 C   0  0  0  0  0  0
   20.6070   70.0560   17.4362 C   0  0  0  0  0  0
   20.4159   74.2674   20.6308 C   0  0  0  0  0  0
   20.3103   73.7831   19.3387 C   0  0  0  0  0  0
   19.1001   73.8604   18.6834 C   0  0  0  0  0  0
   17.9714   74.2589   19.3467 C   0  0  0  0  0  0
   17.9897   74.6935   20.6402 C   0  0  0  0  0  0
   21.8291   74.2143   21.2106 C   0  0  0  0  0  0
   16.6140   74.9570   21.2620 C   0  0  0  0  0  0
   18.9587   73.4655   17.2700 C   0  0  0  0  0  0
   18.2522   71.8621   24.2289 H   0  0  0  0  0  0
   19.8974   72.2294   24.0700 H   0  0  0  0  0  0
   18.0198   74.0424   24.5959 H   0  0  0  0  0  0
   16.7656   72.3828   21.9147 H   0  0  0  0  0  0
   16.5384   71.3995   19.6845 H   0  0  0  0  0  0
   20.3767   69.5280   20.1292 H   0  0  0  0  0  0
   20.6407   70.6037   22.2449 H   0  0  0  0  0  0
   16.1921   69.2480   18.6183 H   0  0  0  0  0  0
   16.6677   68.2535   16.1154 H   0  0  0  0  0  0
   21.0416   70.0234   16.4380 H   0  0  0  0  0  0
   21.2628   69.4626   18.0700 H   0  0  0  0  0  0
   20.6894   71.0858   17.7798 H   0  0  0  0  0  0
   21.1817   73.4231   18.8104 H   0  0  0  0  0  0
   17.0419   74.1501   18.8700 H   0  0  0  0  0  0
   22.4563   73.5021   20.6764 H   0  0  0  0  0  0
   22.2970   75.1985   21.1777 H   0  0  0  0  0  0
   21.8570   73.8617   22.2335 H   0  0  0  0  0  0
   15.9202   74.1695   20.9708 H   0  0  0  0  0  0
   16.5708   74.9640   22.3468 H   0  0  0  0  0  0
   16.1790   75.8625   20.8658 H   0  0  0  0  0  0
   18.6427   74.3148   16.6632 H   0  0  0  0  0  0
   19.8822   73.0526   16.8703 H   0  0  0  0  0  0
   18.1617   72.7183   17.2703 H   0  0  0  0  0  0
  1  2  1  0  0  0
  1  8  2  0  0  0
  1 12  1  0  0  0
  2  3  1  0  0  0
  2 27  1  0  0  0
  2 28  1  0  0  0
  3  4  1  0  0  0
  3 29  1  0  0  0
  4  5  1  0  0  0
  4  6  2  0  0  0
  4  7  2  0  0  0
  5 19  2  0  0  0
  5 23  1  0  0  0
  8  9  1  0  0  0
  8 30  1  0  0  0
  9 10  2  0  0  0
  9 31  1  0  0  0
 10 11  1  0  0  0
 10 13  1  0  0  0
 11 12  2  0  0  0
 11 32  1  0  0  0
 12 33  1  0  0  0
 13 14  1  0  0  0
 13 17  1  0  0  0
 14 15  2  0  0  0
 14 34  1  0  0  0
 15 16  1  0  0  0
 15 35  1  0  0  0
 16 17  2  0  0  0
 17 18  1  0  0  0
 18 36  1  0  0  0
 18 37  1  0  0  0
 18 38  1  0  0  0
 19 20  1  0  0  0
 19 24  1  0  0  0
 20 21  2  0  0  0
 20 39  1  0  0  0
 21 22  1  0  0  0
 21 26  1  0  0  0
 22 23  2  0  0  0
 22 40  1  0  0  0
 23 25  1  0  0  0
 24 41  1  0  0  0
 24 42  1  0  0  0
 24 43  1  0  0  0
 25 44  1  0  0  0
 25 45  1  0  0  0
 25 46  1  0  0  0
 26 47  1  0  0  0
 26 48  1  0  0  0
 26 49  1  0  0  0
M  END
> <s_m_entry_id>
9772

> <s_m_entry_name>
dock_pv.212

> <s_m_Source_Path>
/home/csk/Desktop/cluster/DUD-E-result/mcr

> <s_m_Source_File>
dock_pv.maegz

> <i_m_Source_File_Index>
212

> <chembl_id>
CHEMBL3086020

> <chembl_pref_name>
None

> <i_lp_mmshare_version>
53161

> <i_f3d_flags>
0

> <r_lp_tautomer_probability>
1

> <s_lp_Force_Field>
OPLS_2005

> <r_lp_Energy>
23.967687

> <b_lp_Chiralities_Consistent>
1

> <s_lp_Variant>
CHEMBL1994_lig541-1

> <s_i_glide_gridfile>
glide-grid_2aa2

> <i_i_glide_lignum>
852

> <i_i_glide_rotatable_bonds>
5

> <r_i_docking_score>
-7.47254565812703

> <r_i_glide_ligand_efficiency>
-0.287405602235655

> <r_i_glide_ligand_efficiency_sa>
-0.851437965736692

> <r_i_glide_ligand_efficiency_ln>
-1.75490282838894

> <r_i_glide_gscore>
-7.47254565812703

> <r_i_glide_lipo>
-4.36777450937462

> <r_i_glide_hbond>
0

> <r_i_glide_metal>
0

> <r_i_glide_rewards>
-2.25805772884793

> <r_i_glide_evdw>
-28.2132167816162

> <r_i_glide_ecoul>
-0.860082805156708

> <r_i_glide_erotb>
0.706195368753992

> <r_i_glide_esite>
-0.0132355288041648

> <r_i_glide_emodel>
-34.3564973072826

> <r_i_glide_energy>
-29.0732995867729

> <r_i_glide_einternal>
4.63922643661499

> <i_i_glide_confnum>
51

> <i_i_glide_posenum>
159

> <r_i_glide_eff_state_penalty>
0

> <s_user_duplicate_titles>
CHEMBL1994_lig541

> <s_m_subgroup_title>
dock_pv

> <s_m_subgroupid>
dock_pv

> <b_m_subgroup_collapsed>
1

$$$$
CHEMBL1994_lig788
                    3D
 Schrodinger Suite 2021-1.
 33 34  0  0  1  0            999 V2000
   17.1363   75.5126   22.9130 C   0  0  0  0  0  0
   16.9729   74.7059   21.6081 C   0  0  0  0  0  0
   17.9704   75.0620   20.4800 C   0  0  0  0  0  0
   19.3718   74.8743   20.8700 N   0  0  0  0  0  0
   19.9122   75.8085   21.6700 N   0  0  0  0  0  0
   21.1506   75.4361   21.8489 C   0  0  0  0  0  0
   21.4411   74.2772   21.1501 C   0  0  0  0  0  0
   20.2819   73.8941   20.4979 C   0  0  0  0  0  0
   20.0799   72.7208   19.5949 C   0  0  0  0  0  0
   21.1694   72.2197   18.8700 C   0  0  0  0  0  0
   21.0005   71.1113   18.0447 C   0  0  0  0  0  0
   19.8108   70.4856   17.9076 N   0  0  0  0  0  0
   18.7536   70.9601   18.6255 C   0  0  0  0  0  0
   17.5020   70.3532   18.5828 N   0  0  0  0  0  0
   17.0820   69.3796   17.7697 C   0  0  0  0  0  0
   17.7058   68.8227   16.8700 O   0  0  0  0  0  0
   15.8410   69.0620   18.0700 N   0  0  0  0  0  0
   18.8565   72.0593   19.4796 C   0  0  0  0  0  0
   16.2410   75.4620   23.5295 H   0  0  0  0  0  0
   17.3294   76.5680   22.7253 H   0  0  0  0  0  0
   17.9641   75.1304   23.5112 H   0  0  0  0  0  0
   17.0410   73.6414   21.8334 H   0  0  0  0  0  0
   15.9598   74.8609   21.2341 H   0  0  0  0  0  0
   17.7662   74.5123   19.5632 H   0  0  0  0  0  0
   17.8410   76.1118   20.2201 H   0  0  0  0  0  0
   21.8410   75.9832   22.4700 H   0  0  0  0  0  0
   22.3898   73.7740   21.1278 H   0  0  0  0  0  0
   22.1432   72.6620   18.9559 H   0  0  0  0  0  0
   21.8279   70.7030   17.4828 H   0  0  0  0  0  0
   16.8248   70.7186   19.2325 H   0  0  0  0  0  0
   15.4191   68.2888   17.5825 H   0  0  0  0  0  0
   15.3260   69.5568   18.7882 H   0  0  0  0  0  0
   18.0056   72.3753   20.0626 H   0  0  0  0  0  0
  1  2  1  0  0  0
  1 19  1  0  0  0
  1 20  1  0  0  0
  1 21  1  0  0  0
  2  3  1  0  0  0
  2 22  1  0  0  0
  2 23  1  0  0  0
  3  4  1  0  0  0
  3 24  1  0  0  0
  3 25  1  0  0  0
  4  5  1  0  0  0
  4  8  1  0  0  0
  5  6  2  0  0  0
  6  7  1  0  0  0
  6 26  1  0  0  0
  7  8  2  0  0  0
  7 27  1  0  0  0
  8  9  1  0  0  0
  9 10  2  0  0  0
  9 18  1  0  0  0
 10 11  1  0  0  0
 10 28  1  0  0  0
 11 12  2  0  0  0
 11 29  1  0  0  0
 12 13  1  0  0  0
 13 14  1  0  0  0
 13 18  2  0  0  0
 14 15  1  0  0  0
 14 30  1  0  0  0
 15 16  2  0  0  0
 15 17  1  0  0  0
 17 31  1  0  0  0
 17 32  1  0  0  0
 18 33  1  0  0  0
M  END
> <s_m_entry_id>
9773

> <s_m_entry_name>
dock_pv.213

> <s_m_Source_Path>
/home/csk/Desktop/cluster/DUD-E-result/mcr

> <s_m_Source_File>
dock_pv.maegz

> <i_m_Source_File_Index>
213

> <chembl_id>
CHEMBL3643654

> <chembl_pref_name>
None

> <i_lp_mmshare_version>
53161

> <i_f3d_flags>
0

> <r_lp_tautomer_probability>
1

> <s_lp_Force_Field>
OPLS_2005

> <r_lp_Energy>
6.376405

> <b_lp_Chiralities_Consistent>
1

> <s_lp_Variant>
CHEMBL1994_lig788-1

> <s_i_glide_gridfile>
glide-grid_2aa2

> <i_i_glide_lignum>
1204

> <i_i_glide_rotatable_bonds>
5

> <r_i_docking_score>
-7.46127299106625

> <r_i_glide_ligand_efficiency>
-0.414515166170347

> <r_i_glide_ligand_efficiency_sa>
-1.08633705346337

> <r_i_glide_ligand_efficiency_ln>
-1.91788174894143

> <r_i_glide_gscore>
-7.46127299106625

> <r_i_glide_lipo>
-2.84580058812121

> <r_i_glide_hbond>
-0.32

> <r_i_glide_metal>
0

> <r_i_glide_rewards>
-2.81890809946355

> <r_i_glide_evdw>
-36.6018180847168

> <r_i_glide_ecoul>
-3.42892789840698

> <r_i_glide_erotb>
0.867865785515399

> <r_i_glide_esite>
0

> <r_i_glide_emodel>
-56.1628868278961

> <r_i_glide_energy>
-40.0307459831238

> <r_i_glide_einternal>
1.52567720413208

> <i_i_glide_confnum>
5

> <i_i_glide_posenum>
37

> <r_i_glide_eff_state_penalty>
0

> <s_user_duplicate_titles>
CHEMBL1994_lig788

> <s_m_subgroup_title>
dock_pv

> <s_m_subgroupid>
dock_pv

> <b_m_subgroup_collapsed>
1

$$$$
CHEMBL1994_lig797
                    3D
 Schrodinger Suite 2021-1.
 34 36  0  0  1  0            999 V2000
   17.5744   68.6620   17.9323 N   0  0  0  0  0  0
   18.5751   69.2341   17.2699 C   0  0  0  0  0  0
   18.8900   68.8322   16.1551 O   0  0  0  0  0  0
   19.2294   70.2576   17.8629 N   0  0  0  0  0  0
   19.0875   70.8227   19.1499 C   0  0  0  0  0  0
   19.8316   71.9722   19.4195 C   0  0  0  0  0  0
   19.7359   72.5547   20.6878 C   0  0  0  0  0  0
   18.9387   71.9694   21.6700 C   0  0  0  0  0  0
   18.2410   70.8190   21.3398 C   0  0  0  0  0  0
   18.2949   70.2620   20.1055 N   0  0  0  0  0  0
   20.4985   73.7744   20.9953 C   0  0  0  0  0  0
   21.8415   73.9809   20.8700 C   0  0  0  0  0  0
   22.0839   75.2839   21.2700 C   0  0  0  0  0  0
   20.9890   75.8620   21.6700 N   0  0  0  0  0  0
   20.0153   74.9593   21.5082 N   0  0  0  0  0  0
   18.6921   75.2945   21.8384 C   0  0  0  0  0  0
   17.6513   74.8546   21.0108 C   0  0  0  0  0  0
   16.3377   75.0620   21.3982 C   0  0  0  0  0  0
   16.0636   75.7707   22.5511 C   0  0  0  0  0  0
   17.0750   76.2554   23.3531 C   0  0  0  0  0  0
   16.7306   76.9174   24.4700 F   0  0  0  0  0  0
   18.4025   76.0121   23.0117 C   0  0  0  0  0  0
   17.2929   69.0495   18.8208 H   0  0  0  0  0  0
   17.2680   67.7324   17.6700 H   0  0  0  0  0  0
   19.9359   70.6916   17.2904 H   0  0  0  0  0  0
   20.4655   72.4163   18.6650 H   0  0  0  0  0  0
   18.8589   72.3980   22.6594 H   0  0  0  0  0  0
   17.6076   70.3367   22.0700 H   0  0  0  0  0  0
   22.5621   73.2629   20.5076 H   0  0  0  0  0  0
   23.0402   75.7861   21.2890 H   0  0  0  0  0  0
   17.8463   74.3036   20.1026 H   0  0  0  0  0  0
   15.5109   74.6353   20.8700 H   0  0  0  0  0  0
   15.0410   75.8620   22.8700 H   0  0  0  0  0  0
   19.1868   76.3547   23.6699 H   0  0  0  0  0  0
  1  2  1  0  0  0
  1 23  1  0  0  0
  1 24  1  0  0  0
  2  3  2  0  0  0
  2  4  1  0  0  0
  4  5  1  0  0  0
  4 25  1  0  0  0
  5  6  2  0  0  0
  5 10  1  0  0  0
  6  7  1  0  0  0
  6 26  1  0  0  0
  7  8  2  0  0  0
  7 11  1  0  0  0
  8  9  1  0  0  0
  8 27  1  0  0  0
  9 10  2  0  0  0
  9 28  1  0  0  0
 11 12  2  0  0  0
 11 15  1  0  0  0
 12 13  1  0  0  0
 12 29  1  0  0  0
 13 14  2  0  0  0
 13 30  1  0  0  0
 14 15  1  0  0  0
 15 16  1  0  0  0
 16 17  2  0  0  0
 16 22  1  0  0  0
 17 18  1  0  0  0
 17 31  1  0  0  0
 18 19  2  0  0  0
 18 32  1  0  0  0
 19 20  1  0  0  0
 19 33  1  0  0  0
 20 21  1  0  0  0
 20 22  2  0  0  0
 22 34  1  0  0  0
M  END
> <s_m_entry_id>
9774

> <s_m_entry_name>
dock_pv.214

> <s_m_Source_Path>
/home/csk/Desktop/cluster/DUD-E-result/mcr

> <s_m_Source_File>
dock_pv.maegz

> <i_m_Source_File_Index>
214

> <chembl_id>
CHEMBL3643663

> <chembl_pref_name>
None

> <i_lp_mmshare_version>
53161

> <i_f3d_flags>
0

> <r_lp_tautomer_probability>
1

> <s_lp_Force_Field>
OPLS_2005

> <r_lp_Energy>
10.225745

> <b_lp_Chiralities_Consistent>
1

> <s_lp_Variant>
CHEMBL1994_lig797-1

> <s_i_glide_gridfile>
glide-grid_2aa2

> <i_i_glide_lignum>
1213

> <i_i_glide_rotatable_bonds>
4

> <r_i_docking_score>
-7.45730733376895

> <r_i_glide_ligand_efficiency>
-0.338968515171316

> <r_i_glide_ligand_efficiency_sa>
-0.949803110385258

> <r_i_glide_ligand_efficiency_ln>
-1.82283792426727

> <r_i_glide_gscore>
-7.45730733376895

> <r_i_glide_lipo>
-3.71904710378247

> <r_i_glide_hbond>
-0.32

> <r_i_glide_metal>
0

> <r_i_glide_rewards>
-1.99692949673162

> <r_i_glide_evdw>
-33.2824249267578

> <r_i_glide_ecoul>
-2.53013062477112

> <r_i_glide_erotb>
0.622310106798698

> <r_i_glide_esite>
0

> <r_i_glide_emodel>
-45.5810569134935

> <r_i_glide_energy>
-35.8125555515289

> <r_i_glide_einternal>
0.934211194515228

> <i_i_glide_confnum>
23

> <i_i_glide_posenum>
303

> <r_i_glide_eff_state_penalty>
0

> <s_user_duplicate_titles>
CHEMBL1994_lig797

> <s_m_subgroup_title>
dock_pv

> <s_m_subgroupid>
dock_pv

> <b_m_subgroup_collapsed>
1

$$$$
CHEMBL1994_lig814
                    3D
 Schrodinger Suite 2021-1.
 40 41  0  0  1  0            999 V2000
   18.3640   76.2620   24.0698 N   0  0  0  0  0  0
   17.3770   75.8843   23.2701 C   0  0  0  0  0  0
   16.2409   76.2619   23.5049 O   0  0  0  0  0  0
   17.6705   75.1113   22.1977 N   0  0  0  0  0  0
   18.9178   74.6408   21.7346 C   0  0  0  0  0  0
   18.9869   74.1357   20.4265 C   0  0  0  0  0  0
   20.2238   73.7066   19.9131 C   0  0  0  0  0  0
   20.3708   73.3326   18.4259 C   0  0  0  0  0  0
   20.6443   71.8751   17.9531 C   0  0  1  0  0  0
   21.9908   71.2845   18.4705 C   0  0  0  0  0  0
   21.9838   69.8618   19.0225 C   0  0  0  0  0  0
   20.9735   69.6368   20.0702 C   0  0  0  0  0  0
   20.1759   69.4622   20.8877 N   0  0  0  0  0  0
   19.4582   70.9003   17.8528 C   0  0  0  0  0  0
   18.2800   71.0780   18.5862 C   0  0  0  0  0  0
   17.2351   70.1652   18.4663 C   0  0  0  0  0  0
   17.3640   69.0659   17.6218 C   0  0  0  0  0  0
   18.5232   68.8853   16.8733 C   0  0  0  0  0  0
   19.5592   69.8077   16.9794 C   0  0  0  0  0  0
   21.3476   73.8212   20.7461 C   0  0  0  0  0  0
   21.2050   74.3199   22.0285 C   0  0  0  0  0  0
   20.0202   74.7045   22.5312 N   0  0  0  0  0  0
   19.2915   75.9054   23.8975 H   0  0  0  0  0  0
   18.1773   76.8702   24.8614 H   0  0  0  0  0  0
   16.8840   74.8938   21.6067 H   0  0  0  0  0  0
   18.1060   74.1277   19.8008 H   0  0  0  0  0  0
   21.2553   73.8620   18.0846 H   0  0  0  0  0  0
   19.5455   73.7646   17.8565 H   0  0  0  0  0  0
   20.8341   72.0362   16.8888 H   0  0  0  0  0  0
   22.7232   71.3161   17.6703 H   0  0  0  0  0  0
   22.4258   71.9173   19.2321 H   0  0  0  0  0  0
   21.8282   69.1555   18.2112 H   0  0  0  0  0  0
   22.9612   69.6024   19.4265 H   0  0  0  0  0  0
   18.1661   71.9049   19.2656 H   0  0  0  0  0  0
   16.3275   70.3040   19.0313 H   0  0  0  0  0  0
   16.5591   68.3486   17.5500 H   0  0  0  0  0  0
   18.6218   68.0302   16.2221 H   0  0  0  0  0  0
   20.4544   69.6596   16.3927 H   0  0  0  0  0  0
   22.3467   73.5500   20.4702 H   0  0  0  0  0  0
   22.0615   74.4075   22.6771 H   0  0  0  0  0  0
  1  2  1  0  0  0
  1 23  1  0  0  0
  1 24  1  0  0  0
  2  3  2  0  0  0
  2  4  1  0  0  0
  4  5  1  0  0  0
  4 25  1  0  0  0
  5  6  2  0  0  0
  5 22  1  0  0  0
  6  7  1  0  0  0
  6 26  1  0  0  0
  7  8  1  0  0  0
  7 20  2  0  0  0
  8  9  1  0  0  0
  8 27  1  0  0  0
  8 28  1  0  0  0
  9 10  1  0  0  0
  9 14  1  0  0  0
  9 29  1  0  0  0
 10 11  1  0  0  0
 10 30  1  0  0  0
 10 31  1  0  0  0
 11 12  1  0  0  0
 11 32  1  0  0  0
 11 33  1  0  0  0
 12 13  3  0  0  0
 14 15  2  0  0  0
 14 19  1  0  0  0
 15 16  1  0  0  0
 15 34  1  0  0  0
 16 17  2  0  0  0
 16 35  1  0  0  0
 17 18  1  0  0  0
 17 36  1  0  0  0
 18 19  2  0  0  0
 18 37  1  0  0  0
 19 38  1  0  0  0
 20 21  1  0  0  0
 20 39  1  0  0  0
 21 22  2  0  0  0
 21 40  1  0  0  0
M  END
> <s_m_entry_id>
9775

> <s_m_entry_name>
dock_pv.215

> <s_m_Source_Path>
/home/csk/Desktop/cluster/DUD-E-result/mcr

> <s_m_Source_File>
dock_pv.maegz

> <i_m_Source_File_Index>
215

> <chembl_id>
CHEMBL3643679

> <chembl_pref_name>
None

> <i_lp_mmshare_version>
53161

> <i_f3d_flags>
0

> <r_lp_tautomer_probability>
1

> <s_lp_Force_Field>
OPLS_2005

> <r_lp_Energy>
9.691681

> <b_lp_Chiralities_Consistent>
1

> <s_lp_Variant>
CHEMBL1994_lig814-2

> <s_i_glide_gridfile>
glide-grid_2aa2

> <i_i_glide_lignum>
1238

> <i_i_glide_rotatable_bonds>
7

> <r_i_docking_score>
-7.45578040268597

> <r_i_glide_ligand_efficiency>
-0.338899109212998

> <r_i_glide_ligand_efficiency_sa>
-0.94960863216047

> <r_i_glide_ligand_efficiency_ln>
-1.82246468661442

> <r_i_glide_gscore>
-7.45578040268597

> <r_i_glide_lipo>
-3.74461634975891

> <r_i_glide_hbond>
-0.455590814464089

> <r_i_glide_metal>
0

> <r_i_glide_rewards>
-1.77091955800314

> <r_i_glide_evdw>
-38.5248107910156

> <r_i_glide_ecoul>
-4.06740760803223

> <r_i_glide_erotb>
1.05532827731736

> <r_i_glide_esite>
-0.00363027702157678

> <r_i_glide_emodel>
-50.8991463735315

> <r_i_glide_energy>
-42.5922183990479

> <r_i_glide_einternal>
3.6946804523468

> <i_i_glide_confnum>
6

> <i_i_glide_posenum>
68

> <r_i_glide_eff_state_penalty>
0

> <s_user_duplicate_titles>
CHEMBL1994_lig814

> <s_m_subgroup_title>
dock_pv

> <s_m_subgroupid>
dock_pv

> <b_m_subgroup_collapsed>
1

$$$$
CHEMBL1994_lig806
                    3D
 Schrodinger Suite 2021-1.
 37 38  0  0  1  0            999 V2000
   15.9421   68.6620   17.8493 C   0  0  0  0  0  0
   17.1933   69.4857   17.9206 C   0  0  0  0  0  0
   18.3700   69.0390   17.3222 C   0  0  0  0  0  0
   19.5106   69.8315   17.3857 C   0  0  0  0  0  0
   19.4740   71.0586   18.0569 C   0  0  0  0  0  0
   18.2864   71.4840   18.6514 C   0  0  0  0  0  0
   17.1492   70.7067   18.5746 C   0  0  0  0  0  0
   20.7319   71.9115   18.0849 C   0  0  2  0  0  0
   21.7491   71.3371   18.8700 O   0  0  0  0  0  0
   20.5553   73.4165   18.4119 C   0  0  0  0  0  0
   20.3584   73.8620   19.8700 C   0  0  0  0  0  0
   21.4410   73.8620   20.7495 C   0  0  0  0  0  0
   21.2860   74.3787   22.0258 C   0  0  0  0  0  0
   20.1089   74.8489   22.4832 N   0  0  0  0  0  0
   19.0362   74.8588   21.6421 C   0  0  0  0  0  0
   17.7673   75.3085   22.0698 N   0  0  0  0  0  0
   17.4010   75.9460   23.2040 C   0  0  0  0  0  0
   16.2410   76.2620   23.4256 O   0  0  0  0  0  0
   18.3507   76.2620   24.0700 N   0  0  0  0  0  0
   19.1407   74.3971   20.3238 C   0  0  0  0  0  0
   15.8410   68.2620   16.8426 H   0  0  0  0  0  0
   16.0011   67.8310   18.5447 H   0  0  0  0  0  0
   15.0506   69.2507   18.0700 H   0  0  0  0  0  0
   18.4015   68.0840   16.8182 H   0  0  0  0  0  0
   20.4195   69.4887   16.9121 H   0  0  0  0  0  0
   18.2077   72.4133   19.1735 H   0  0  0  0  0  0
   16.2410   71.0619   19.0305 H   0  0  0  0  0  0
   21.0988   71.8847   17.0574 H   0  0  0  0  0  0
   21.8406   70.4142   18.6276 H   0  0  0  0  0  0
   21.4848   73.8620   18.0701 H   0  0  0  0  0  0
   19.7793   73.8535   17.7814 H   0  0  0  0  0  0
   22.4007   73.4618   20.4700 H   0  0  0  0  0  0
   22.1158   74.3813   22.7132 H   0  0  0  0  0  0
   17.0163   75.1476   21.4182 H   0  0  0  0  0  0
   18.1323   76.7766   24.9228 H   0  0  0  0  0  0
   19.2898   75.9402   23.8912 H   0  0  0  0  0  0
   18.2929   74.4734   19.6591 H   0  0  0  0  0  0
  1  2  1  0  0  0
  1 21  1  0  0  0
  1 22  1  0  0  0
  1 23  1  0  0  0
  2  3  2  0  0  0
  2  7  1  0  0  0
  3  4  1  0  0  0
  3 24  1  0  0  0
  4  5  2  0  0  0
  4 25  1  0  0  0
  5  6  1  0  0  0
  5  8  1  0  0  0
  6  7  2  0  0  0
  6 26  1  0  0  0
  7 27  1  0  0  0
  8  9  1  0  0  0
  8 10  1  0  0  0
  8 28  1  0  0  0
  9 29  1  0  0  0
 10 11  1  0  0  0
 10 30  1  0  0  0
 10 31  1  0  0  0
 11 12  2  0  0  0
 11 20  1  0  0  0
 12 13  1  0  0  0
 12 32  1  0  0  0
 13 14  2  0  0  0
 13 33  1  0  0  0
 14 15  1  0  0  0
 15 16  1  0  0  0
 15 20  2  0  0  0
 16 17  1  0  0  0
 16 34  1  0  0  0
 17 18  2  0  0  0
 17 19  1  0  0  0
 19 35  1  0  0  0
 19 36  1  0  0  0
 20 37  1  0  0  0
M  END
> <s_m_entry_id>
9776

> <s_m_entry_name>
dock_pv.216

> <s_m_Source_Path>
/home/csk/Desktop/cluster/DUD-E-result/mcr

> <s_m_Source_File>
dock_pv.maegz

> <i_m_Source_File_Index>
216

> <chembl_id>
CHEMBL3643671

> <chembl_pref_name>
None

> <i_lp_mmshare_version>
53161

> <i_f3d_flags>
0

> <r_lp_tautomer_probability>
1

> <s_lp_Force_Field>
OPLS_2005

> <r_lp_Energy>
9.397291

> <b_lp_Chiralities_Consistent>
1

> <s_lp_Variant>
CHEMBL1994_lig806-1

> <s_i_glide_gridfile>
glide-grid_2aa2

> <i_i_glide_lignum>
1222

> <i_i_glide_rotatable_bonds>
6

> <r_i_docking_score>
-7.45500748564773

> <r_i_glide_ligand_efficiency>
-0.372750374282386

> <r_i_glide_ligand_efficiency_sa>
-1.01180018153409

> <r_i_glide_ligand_efficiency_ln>
-1.86574249105456

> <r_i_glide_gscore>
-7.45500748564773

> <r_i_glide_lipo>
-3.87474104136535

> <r_i_glide_hbond>
-0.424230035798162

> <r_i_glide_metal>
0

> <r_i_glide_rewards>
-1.82845923700116

> <r_i_glide_evdw>
-34.5599098205566

> <r_i_glide_ecoul>
-3.81569766998291

> <r_i_glide_erotb>
0.972772970042216

> <r_i_glide_esite>
0

> <r_i_glide_emodel>
-49.8261624660838

> <r_i_glide_energy>
-38.3756074905396

> <r_i_glide_einternal>
3.84481573104858

> <i_i_glide_confnum>
24

> <i_i_glide_posenum>
333

> <r_i_glide_eff_state_penalty>
0

> <s_user_duplicate_titles>
CHEMBL1994_lig806

> <s_m_subgroup_title>
dock_pv

> <s_m_subgroupid>
dock_pv

> <b_m_subgroup_collapsed>
1

$$$$
CHEMBL1994_lig832
                    3D
 Schrodinger Suite 2021-1.
 39 41  0  0  1  0            999 V2000
   18.2398   68.2619   18.2527 N   0  0  0  0  0  0
   18.8057   69.0558   17.3352 C   0  0  0  0  0  0
   19.0051   68.6603   16.1950 O   0  0  0  0  0  0
   19.2153   70.2841   17.7289 N   0  0  0  0  0  0
   18.9600   70.9554   18.9350 C   0  0  0  0  0  0
   19.8526   71.9530   19.3502 C   0  0  0  0  0  0
   19.5906   72.6388   20.5470 C   0  0  0  0  0  0
   18.4385   72.3024   21.2735 C   0  0  0  0  0  0
   17.5770   71.3421   20.7784 C   0  0  0  0  0  0
   17.8253   70.6798   19.6310 N   0  0  0  0  0  0
   20.3743   73.7063   20.9940 N   0  0  0  0  0  0
   21.8219   73.8595   20.8817 C   0  0  0  0  0  0
   22.1097   75.3324   20.6325 C   0  0  0  0  0  0
   20.9873   76.0420   21.2764 C   0  0  0  0  0  0
   19.8432   75.0649   21.0831 C   0  0  2  0  0  0
   18.8010   75.2114   22.1488 C   0  0  0  0  0  0
   19.1614   75.0182   23.4797 C   0  0  0  0  0  0
   18.2527   75.3158   24.4713 C   0  0  0  0  0  0
   17.0218   75.8119   24.1227 C   0  0  0  0  0  0
   16.2308   76.2639   25.0947 F   0  0  0  0  0  0
   16.5910   75.8111   22.8049 C   0  0  0  0  0  0
   17.4977   75.5297   21.7979 C   0  0  0  0  0  0
   18.0122   68.6584   19.1456 H   0  0  0  0  0  0
   17.9680   67.3031   18.0461 H   0  0  0  0  0  0
   19.8323   70.7631   17.0907 H   0  0  0  0  0  0
   20.7147   72.2055   18.7513 H   0  0  0  0  0  0
   18.1777   72.7808   22.2015 H   0  0  0  0  0  0
   16.6662   71.0893   21.3120 H   0  0  0  0  0  0
   22.2852   73.6241   21.8378 H   0  0  0  0  0  0
   22.2392   73.2600   20.0747 H   0  0  0  0  0  0
   23.0126   75.6428   21.1351 H   0  0  0  0  0  0
   22.2323   75.5390   19.5675 H   0  0  0  0  0  0
   21.2167   76.2507   22.3190 H   0  0  0  0  0  0
   20.8037   76.9968   20.7827 H   0  0  0  0  0  0
   19.3899   75.2887   20.1151 H   0  0  0  0  0  0
   20.1560   74.6915   23.7482 H   0  0  0  0  0  0
   18.5232   75.2311   25.5120 H   0  0  0  0  0  0
   15.5813   76.0935   22.5592 H   0  0  0  0  0  0
   17.1966   75.6050   20.7618 H   0  0  0  0  0  0
  1  2  1  0  0  0
  1 23  1  0  0  0
  1 24  1  0  0  0
  2  3  2  0  0  0
  2  4  1  0  0  0
  4  5  1  0  0  0
  4 25  1  0  0  0
  5  6  2  0  0  0
  5 10  1  0  0  0
  6  7  1  0  0  0
  6 26  1  0  0  0
  7  8  2  0  0  0
  7 11  1  0  0  0
  8  9  1  0  0  0
  8 27  1  0  0  0
  9 10  2  0  0  0
  9 28  1  0  0  0
 11 12  1  0  0  0
 11 15  1  0  0  0
 12 13  1  0  0  0
 12 29  1  0  0  0
 12 30  1  0  0  0
 13 14  1  0  0  0
 13 31  1  0  0  0
 13 32  1  0  0  0
 14 15  1  0  0  0
 14 33  1  0  0  0
 14 34  1  0  0  0
 15 16  1  0  0  0
 15 35  1  0  0  0
 16 17  2  0  0  0
 16 22  1  0  0  0
 17 18  1  0  0  0
 17 36  1  0  0  0
 18 19  2  0  0  0
 18 37  1  0  0  0
 19 20  1  0  0  0
 19 21  1  0  0  0
 21 22  2  0  0  0
 21 38  1  0  0  0
 22 39  1  0  0  0
M  END
> <s_m_entry_id>
9777

> <s_m_entry_name>
dock_pv.217

> <s_m_Source_Path>
/home/csk/Desktop/cluster/DUD-E-result/mcr

> <s_m_Source_File>
dock_pv.maegz

> <i_m_Source_File_Index>
217

> <chembl_id>
CHEMBL3643697

> <chembl_pref_name>
None

> <i_lp_mmshare_version>
53161

> <i_f3d_flags>
0

> <r_lp_tautomer_probability>
1

> <s_lp_Force_Field>
OPLS_2005

> <r_lp_Energy>
34.766078

> <b_lp_Chiralities_Consistent>
1

> <s_lp_Variant>
CHEMBL1994_lig832-2

> <s_i_glide_gridfile>
glide-grid_2aa2

> <i_i_glide_lignum>
1260

> <i_i_glide_rotatable_bonds>
4

> <r_i_docking_score>
-7.45284086665255

> <r_i_glide_ligand_efficiency>
-0.338765493938752

> <r_i_glide_ligand_efficiency_sa>
-0.949234236907243

> <r_i_glide_ligand_efficiency_ln>
-1.82174615678568

> <r_i_glide_gscore>
-7.45284086665255

> <r_i_glide_lipo>
-3.86541615160921

> <r_i_glide_hbond>
-0.32

> <r_i_glide_metal>
0

> <r_i_glide_rewards>
-1.83926311606315

> <r_i_glide_evdw>
-22.2638320922852

> <r_i_glide_ecoul>
-5.85630035400391

> <r_i_glide_erotb>
0.611319859658153

> <r_i_glide_esite>
-0.0478448009235018

> <r_i_glide_emodel>
-20.8720566212783

> <r_i_glide_energy>
-28.1201324462891

> <r_i_glide_einternal>
11.4645910263062

> <i_i_glide_confnum>
6

> <i_i_glide_posenum>
341

> <r_i_glide_eff_state_penalty>
0

> <s_user_duplicate_titles>
CHEMBL1994_lig832

> <s_m_subgroup_title>
dock_pv

> <s_m_subgroupid>
dock_pv

> <b_m_subgroup_collapsed>
1

$$$$
CHEMBL1994_lig813
                    3D
 Schrodinger Suite 2021-1.
 40 42  0  0  1  0            999 V2000
   18.1379   77.0621   23.6699 N   0  0  0  0  0  0
   17.1668   76.2396   23.3258 C   0  0  0  0  0  0
   16.1140   76.2621   23.9349 O   0  0  0  0  0  0
   17.4000   75.3651   22.3339 N   0  0  0  0  0  0
   18.6298   75.0063   21.7650 C   0  0  0  0  0  0
   18.7387   73.6857   21.3547 C   0  0  0  0  0  0
   19.9764   73.2307   20.9078 C   0  0  0  0  0  0
   20.0906   71.8054   20.4469 C   0  0  0  0  0  0
   19.8402   71.6727   18.9255 C   0  0  1  0  0  0
   21.0605   71.2764   18.0592 C   0  0  0  0  0  0
   22.4850   71.5560   18.4700 C   0  0  0  0  0  0
   21.9552   70.1424   18.4822 C   0  0  0  0  0  0
   18.6882   70.7192   18.6833 C   0  0  0  0  0  0
   17.5309   71.1598   18.0495 C   0  0  0  0  0  0
   16.5057   70.2617   17.7833 C   0  0  0  0  0  0
   16.6366   68.9360   18.1832 C   0  0  0  0  0  0
   17.7675   68.5068   18.8698 C   0  0  0  0  0  0
   18.7864   69.4030   19.1280 C   0  0  0  0  0  0
   21.0727   74.0970   20.8704 C   0  0  0  0  0  0
   20.8804   75.4164   21.2595 C   0  0  0  0  0  0
   19.6783   75.8727   21.6781 N   0  0  0  0  0  0
   18.9856   77.0945   23.1249 H   0  0  0  0  0  0
   18.0891   77.4620   24.6078 H   0  0  0  0  0  0
   16.6511   74.7054   22.1854 H   0  0  0  0  0  0
   17.8925   73.0139   21.4126 H   0  0  0  0  0  0
   19.3854   71.2151   21.0365 H   0  0  0  0  0  0
   21.0406   71.3968   20.7437 H   0  0  0  0  0  0
   19.5329   72.6502   18.5445 H   0  0  0  0  0  0
   20.8263   71.3275   16.9942 H   0  0  0  0  0  0
   23.2467   71.7641   17.7338 H   0  0  0  0  0  0
   22.6670   72.1087   19.3814 H   0  0  0  0  0  0
   21.8178   69.6457   19.4413 H   0  0  0  0  0  0
   22.2408   69.4621   17.6901 H   0  0  0  0  0  0
   17.4406   72.1882   17.7315 H   0  0  0  0  0  0
   15.6109   70.6019   17.2858 H   0  0  0  0  0  0
   15.8412   68.2335   18.0013 H   0  0  0  0  0  0
   17.8465   67.4893   19.2234 H   0  0  0  0  0  0
   19.6523   69.0655   19.6754 H   0  0  0  0  0  0
   22.0481   73.7700   20.5502 H   0  0  0  0  0  0
   21.6917   76.1298   21.2359 H   0  0  0  0  0  0
  1  2  1  0  0  0
  1 22  1  0  0  0
  1 23  1  0  0  0
  2  3  2  0  0  0
  2  4  1  0  0  0
  4  5  1  0  0  0
  4 24  1  0  0  0
  5  6  2  0  0  0
  5 21  1  0  0  0
  6  7  1  0  0  0
  6 25  1  0  0  0
  7  8  1  0  0  0
  7 19  2  0  0  0
  8  9  1  0  0  0
  8 26  1  0  0  0
  8 27  1  0  0  0
  9 10  1  0  0  0
  9 13  1  0  0  0
  9 28  1  0  0  0
 10 11  1  0  0  0
 10 12  1  0  0  0
 10 29  1  0  0  0
 11 12  1  0  0  0
 11 30  1  0  0  0
 11 31  1  0  0  0
 12 32  1  0  0  0
 12 33  1  0  0  0
 13 14  2  0  0  0
 13 18  1  0  0  0
 14 15  1  0  0  0
 14 34  1  0  0  0
 15 16  2  0  0  0
 15 35  1  0  0  0
 16 17  1  0  0  0
 16 36  1  0  0  0
 17 18  2  0  0  0
 17 37  1  0  0  0
 18 38  1  0  0  0
 19 20  1  0  0  0
 19 39  1  0  0  0
 20 21  2  0  0  0
 20 40  1  0  0  0
M  END
> <s_m_entry_id>
9778

> <s_m_entry_name>
dock_pv.218

> <s_m_Source_Path>
/home/csk/Desktop/cluster/DUD-E-result/mcr

> <s_m_Source_File>
dock_pv.maegz

> <i_m_Source_File_Index>
218

> <chembl_id>
CHEMBL3643678

> <chembl_pref_name>
None

> <i_lp_mmshare_version>
53161

> <i_f3d_flags>
0

> <r_lp_tautomer_probability>
1

> <s_lp_Force_Field>
OPLS_2005

> <r_lp_Energy>
16.940468

> <b_lp_Chiralities_Consistent>
1

> <s_lp_Variant>
CHEMBL1994_lig813-2

> <s_i_glide_gridfile>
glide-grid_2aa2

> <i_i_glide_lignum>
1236

> <i_i_glide_rotatable_bonds>
6

> <r_i_docking_score>
-7.45082356496965

> <r_i_glide_ligand_efficiency>
-0.354801122141412

> <r_i_glide_ligand_efficiency_sa>
-0.978869392689696

> <r_i_glide_ligand_efficiency_ln>
-1.8422010706321

> <r_i_glide_gscore>
-7.45082356496965

> <r_i_glide_lipo>
-3.74022380145916

> <r_i_glide_hbond>
-0.580974448076912

> <r_i_glide_metal>
0

> <r_i_glide_rewards>
-1.75761681020656

> <r_i_glide_evdw>
-28.9124450683594

> <r_i_glide_ecoul>
-7.06212949752808

> <r_i_glide_erotb>
1.14171933578163

> <r_i_glide_esite>
-0.00878616296146544

> <r_i_glide_emodel>
-42.4005910950449

> <r_i_glide_energy>
-35.9745745658875

> <r_i_glide_einternal>
10.0998544692993

> <i_i_glide_confnum>
48

> <i_i_glide_posenum>
83

> <r_i_glide_eff_state_penalty>
0

> <s_user_duplicate_titles>
CHEMBL1994_lig813

> <s_m_subgroup_title>
dock_pv

> <s_m_subgroupid>
dock_pv

> <b_m_subgroup_collapsed>
1

$$$$
CHEMBL1994_lig511
                    3D
 Schrodinger Suite 2021-1.
 40 43  0  0  1  0            999 V2000
   17.0966   76.2525   23.7203 C   0  0  0  0  0  0
   17.9004   75.1120   24.4230 C   0  0  0  0  0  0
   18.2432   74.1214   23.6065 N   0  0  0  0  0  0
   16.4630   75.8620   22.4701 O   0  0  0  0  0  0
   17.2254   75.0449   21.6592 C   0  0  0  0  0  0
   18.0901   74.1260   22.2447 C   0  0  0  0  0  0
   18.8813   73.3030   21.4727 C   0  0  0  0  0  0
   18.9315   73.5106   20.0977 C   0  0  0  0  0  0
   18.0571   74.4063   19.4991 C   0  0  0  0  0  0
   17.1569   75.1446   20.2731 C   0  0  0  0  0  0
   20.0380   72.9274   19.3546 C   0  0  0  0  0  0
   19.9895   72.0017   18.1945 C   0  0  1  0  0  0
   21.4162   71.4630   18.1808 C   0  0  0  0  0  0
   22.0935   72.2620   19.0158 N   0  0  0  0  0  0
   21.2899   73.0625   19.7677 C   0  0  0  0  0  0
   18.8925   70.9587   18.3090 C   0  0  0  0  0  0
   21.8407   70.5038   17.5426 O   0  0  0  0  0  0
   19.1157   69.6979   18.8602 C   0  0  0  0  0  0
   18.1026   68.7537   18.8723 C   0  0  0  0  0  0
   16.8458   69.1183   18.4126 C   0  0  0  0  0  0
   16.5896   70.3928   17.9388 C   0  0  0  0  0  0
   17.6181   71.3160   17.8922 C   0  0  0  0  0  0
   15.8411   68.2428   18.4700 F   0  0  0  0  0  0
   18.2409   75.0620   25.5915 O   0  0  0  0  0  0
   21.8409   73.9539   20.8873 C   0  0  0  0  0  0
   17.8222   77.0411   23.5188 H   0  0  0  0  0  0
   16.3645   76.6432   24.4253 H   0  0  0  0  0  0
   18.7960   73.4044   24.0499 H   0  0  0  0  0  0
   19.5610   72.6094   21.9465 H   0  0  0  0  0  0
   18.1747   74.5950   18.4463 H   0  0  0  0  0  0
   16.4999   75.8621   19.8104 H   0  0  0  0  0  0
   23.0822   72.1653   19.1885 H   0  0  0  0  0  0
   19.8425   72.5580   17.2691 H   0  0  0  0  0  0
   20.0834   69.4625   19.2716 H   0  0  0  0  0  0
   18.2705   67.7628   19.2712 H   0  0  0  0  0  0
   15.5924   70.6631   17.6266 H   0  0  0  0  0  0
   17.4411   72.3155   17.5273 H   0  0  0  0  0  0
   21.2584   74.8744   20.9334 H   0  0  0  0  0  0
   21.7034   73.4620   21.8396 H   0  0  0  0  0  0
   22.8815   74.2614   20.8699 H   0  0  0  0  0  0
  1  2  1  0  0  0
  1  4  1  0  0  0
  1 26  1  0  0  0
  1 27  1  0  0  0
  2  3  1  0  0  0
  2 24  2  0  0  0
  3  6  1  0  0  0
  3 28  1  0  0  0
  4  5  1  0  0  0
  5  6  2  0  0  0
  5 10  1  0  0  0
  6  7  1  0  0  0
  7  8  2  0  0  0
  7 29  1  0  0  0
  8  9  1  0  0  0
  8 11  1  0  0  0
  9 10  2  0  0  0
  9 30  1  0  0  0
 10 31  1  0  0  0
 11 12  1  0  0  0
 11 15  2  0  0  0
 12 13  1  0  0  0
 12 16  1  0  0  0
 12 33  1  0  0  0
 13 14  1  0  0  0
 13 17  2  0  0  0
 14 15  1  0  0  0
 14 32  1  0  0  0
 15 25  1  0  0  0
 16 18  2  0  0  0
 16 22  1  0  0  0
 18 19  1  0  0  0
 18 34  1  0  0  0
 19 20  2  0  0  0
 19 35  1  0  0  0
 20 21  1  0  0  0
 20 23  1  0  0  0
 21 22  2  0  0  0
 21 36  1  0  0  0
 22 37  1  0  0  0
 25 38  1  0  0  0
 25 39  1  0  0  0
 25 40  1  0  0  0
M  END
> <s_m_entry_id>
9779

> <s_m_entry_name>
dock_pv.219

> <s_m_Source_Path>
/home/csk/Desktop/cluster/DUD-E-result/mcr

> <s_m_Source_File>
dock_pv.maegz

> <i_m_Source_File_Index>
219

> <chembl_id>
CHEMBL2419298

> <chembl_pref_name>
None

> <i_lp_mmshare_version>
53161

> <i_f3d_flags>
0

> <r_lp_tautomer_probability>
0.0382383722795562

> <s_lp_Force_Field>
OPLS_2005

> <r_lp_Energy>
42.121248

> <b_lp_Chiralities_Consistent>
1

> <s_lp_Variant>
CHEMBL1994_lig511-3

> <s_i_glide_gridfile>
glide-grid_2aa2

> <i_i_glide_lignum>
806

> <i_i_glide_rotatable_bonds>
2

> <r_i_docking_score>
-7.4340856401647

> <r_i_glide_ligand_efficiency>
-0.297363425606588

> <r_i_glide_ligand_efficiency_sa>
-0.869495930236472

> <r_i_glide_ligand_efficiency_ln>
-1.7621010782883

> <r_i_glide_gscore>
-7.4340856401647

> <r_i_glide_lipo>
-3.81803475178708

> <r_i_glide_hbond>
0

> <r_i_glide_metal>
0

> <r_i_glide_rewards>
-2.96929080149114

> <r_i_glide_evdw>
-21.1506690979004

> <r_i_glide_ecoul>
0.667456686496735

> <r_i_glide_erotb>
0.330406749437097

> <r_i_glide_esite>
-0.0197518844030676

> <r_i_glide_emodel>
-53.4565702811682

> <r_i_glide_energy>
-20.4832124114037

> <r_i_glide_einternal>
1.97604370117188

> <i_i_glide_confnum>
1

> <i_i_glide_posenum>
129

> <r_i_glide_eff_state_penalty>
0

> <s_user_duplicate_titles>
CHEMBL1994_lig511

> <s_m_subgroup_title>
dock_pv

> <s_m_subgroupid>
dock_pv

> <b_m_subgroup_collapsed>
1

$$$$
CHEMBL1994_lig30
                    3D
 Schrodinger Suite 2021-1.
 43 44  0  0  1  0            999 V2000
   20.6220   69.9470   17.2698 C   0  0  0  0  0  0
   20.8678   70.9302   18.2258 C   0  0  0  0  0  0
   19.8053   71.5603   18.9071 C   0  0  0  0  0  0
   18.4971   71.1931   18.5444 C   0  0  0  0  0  0
   18.2493   70.1558   17.6239 C   0  0  0  0  0  0
   19.3255   69.5392   16.9922 C   0  0  0  0  0  0
   20.1115   72.5816   20.0380 C   0  0  0  0  0  0
   19.0178   73.6014   20.5314 C   0  0  2  0  0  0
   19.5049   74.7116   21.5601 C   0  0  0  0  0  0
   18.3800   75.7920   21.6169 C   0  0  0  0  0  0
   17.0366   75.2182   22.1103 C   0  0  0  0  0  0
   16.6055   74.0185   21.2433 C   0  0  0  0  0  0
   17.7344   72.9894   21.1368 C   0  0  0  0  0  0
   19.0311   68.0967   15.7811 Br  0  0  0  0  0  0
   16.9986   69.6647   17.3061 O   0  0  0  0  0  0
   15.9291   69.9547   18.1802 C   0  0  0  0  0  0
   22.1787   71.2389   18.4701 O   0  0  0  0  0  0
   17.5997   71.7253   21.5818 C   0  0  0  0  0  0
   20.7922   75.4146   21.0715 C   0  0  0  0  0  0
   19.7410   74.1571   22.9890 C   0  0  0  0  0  0
   21.4395   69.4612   16.7635 H   0  0  0  0  0  0
   17.6545   71.6892   18.9906 H   0  0  0  0  0  0
   20.9378   73.1799   19.6573 H   0  0  0  0  0  0
   20.5147   72.0300   20.8866 H   0  0  0  0  0  0
   18.7117   74.1156   19.6175 H   0  0  0  0  0  0
   18.2430   76.2583   20.6412 H   0  0  0  0  0  0
   18.6738   76.6043   22.2850 H   0  0  0  0  0  0
   17.1043   74.9368   23.1602 H   0  0  0  0  0  0
   16.2560   75.9754   22.0753 H   0  0  0  0  0  0
   15.6910   73.5811   21.6425 H   0  0  0  0  0  0
   16.3459   74.3900   20.2544 H   0  0  0  0  0  0
   15.1080   69.2523   18.0536 H   0  0  0  0  0  0
   16.2440   69.8541   19.2173 H   0  0  0  0  0  0
   15.5528   70.9677   18.0386 H   0  0  0  0  0  0
   22.3102   71.6809   19.3118 H   0  0  0  0  0  0
   18.4072   71.0105   21.5302 H   0  0  0  0  0  0
   16.6660   71.3871   22.0117 H   0  0  0  0  0  0
   21.6547   74.7482   21.0782 H   0  0  0  0  0  0
   20.6778   75.8049   20.0701 H   0  0  0  0  0  0
   21.0581   76.2616   21.7028 H   0  0  0  0  0  0
   20.5672   73.4626   23.0044 H   0  0  0  0  0  0
   19.9961   74.9653   23.6728 H   0  0  0  0  0  0
   18.8880   73.6326   23.4164 H   0  0  0  0  0  0
  1  6  1  0  0  0
  1  2  2  0  0  0
  1 21  1  0  0  0
  2  3  1  0  0  0
  2 17  1  0  0  0
  3  7  1  0  0  0
  3  4  2  0  0  0
  4  5  1  0  0  0
  4 22  1  0  0  0
  5  6  2  0  0  0
  5 15  1  0  0  0
  6 14  1  0  0  0
  7  8  1  0  0  0
  7 23  1  0  0  0
  7 24  1  0  0  0
  8 13  1  0  0  0
  8  9  1  0  0  0
  8 25  1  0  0  0
  9 10  1  0  0  0
  9 19  1  0  0  0
  9 20  1  0  0  0
 10 11  1  0  0  0
 10 26  1  0  0  0
 10 27  1  0  0  0
 11 12  1  0  0  0
 11 28  1  0  0  0
 11 29  1  0  0  0
 12 13  1  0  0  0
 12 30  1  0  0  0
 12 31  1  0  0  0
 13 18  2  0  0  0
 15 16  1  0  0  0
 16 32  1  0  0  0
 16 33  1  0  0  0
 16 34  1  0  0  0
 17 35  1  0  0  0
 18 36  1  0  0  0
 18 37  1  0  0  0
 19 38  1  0  0  0
 19 39  1  0  0  0
 19 40  1  0  0  0
 20 41  1  0  0  0
 20 42  1  0  0  0
 20 43  1  0  0  0
M  END
> <s_m_entry_id>
9780

> <s_m_entry_name>
dock_pv.220

> <s_m_Source_Path>
/home/csk/Desktop/cluster/DUD-E-result/mcr

> <s_m_Source_File>
dock_pv.maegz

> <i_m_Source_File_Index>
220

> <chembl_id>
CHEMBL417729

> <chembl_pref_name>
None

> <i_lp_mmshare_version>
53161

> <i_f3d_flags>
0

> <r_lp_tautomer_probability>
0.999999999999998

> <s_lp_Force_Field>
OPLS_2005

> <r_lp_Energy>
23.700483

> <b_lp_Chiralities_Consistent>
1

> <s_lp_Variant>
CHEMBL1994_lig30-1

> <s_i_glide_gridfile>
glide-grid_2aa2

> <i_i_glide_lignum>
32

> <i_i_glide_rotatable_bonds>
4

> <r_i_docking_score>
-7.40888338465966

> <r_i_glide_ligand_efficiency>
-0.370444169232983

> <r_i_glide_ligand_efficiency_sa>
-1.00554017792676

> <r_i_glide_ligand_efficiency_ln>
-1.85419914985191

> <r_i_glide_gscore>
-7.40888338465966

> <r_i_glide_lipo>
-4.05983531010343

> <r_i_glide_hbond>
0

> <r_i_glide_metal>
0

> <r_i_glide_rewards>
-1.75399254425102

> <r_i_glide_evdw>
-33.388542175293

> <r_i_glide_ecoul>
-1.69615590572357

> <r_i_glide_erotb>
0.328794964317975

> <r_i_glide_esite>
0

> <r_i_glide_emodel>
-42.2034000164435

> <r_i_glide_energy>
-35.0846980810165

> <r_i_glide_einternal>
2.84260296821594

> <i_i_glide_confnum>
5

> <i_i_glide_posenum>
261

> <r_i_glide_eff_state_penalty>
0

> <s_user_duplicate_titles>
CHEMBL1994_lig30

> <s_m_subgroup_title>
dock_pv

> <s_m_subgroupid>
dock_pv

> <b_m_subgroup_collapsed>
1

$$$$
CHEMBL1994_lig799
                    3D
 Schrodinger Suite 2021-1.
 30 32  0  0  1  0            999 V2000
   17.6592   68.6620   17.9328 N   0  0  0  0  0  0
   18.5594   69.3545   17.2430 C   0  0  0  0  0  0
   18.9348   68.9625   16.1437 O   0  0  0  0  0  0
   19.0525   70.4849   17.7934 N   0  0  0  0  0  0
   18.8443   71.0562   19.0669 C   0  0  0  0  0  0
   19.7253   72.0671   19.4485 C   0  0  0  0  0  0
   19.5938   72.6346   20.7202 C   0  0  0  0  0  0
   18.6410   72.1352   21.6091 C   0  0  0  0  0  0
   17.7675   71.1628   21.1475 C   0  0  0  0  0  0
   17.8410   70.6526   19.8943 N   0  0  0  0  0  0
   20.4422   73.7894   21.0654 C   0  0  0  0  0  0
   21.7970   73.9584   20.8700 C   0  0  0  0  0  0
   22.0827   75.2544   21.2700 C   0  0  0  0  0  0
   21.0252   75.8620   21.7199 N   0  0  0  0  0  0
   20.0300   74.9722   21.6463 N   0  0  0  0  0  0
   18.7942   75.3429   22.1391 C   0  0  0  0  0  0
   18.6403   75.9260   23.3075 N   0  0  0  0  0  0
   17.3776   76.1866   23.5695 C   0  0  0  0  0  0
   16.4663   75.7976   22.5976 C   0  0  0  0  0  0
   17.3097   75.0620   21.2700 S   0  0  0  0  0  0
   17.3079   69.0396   18.8006 H   0  0  0  0  0  0
   17.4410   67.7072   17.6700 H   0  0  0  0  0  0
   19.7615   70.9419   17.2423 H   0  0  0  0  0  0
   20.4868   72.4244   18.7695 H   0  0  0  0  0  0
   18.5302   72.5410   22.6051 H   0  0  0  0  0  0
   16.9721   70.7983   21.7809 H   0  0  0  0  0  0
   22.4821   73.2270   20.4700 H   0  0  0  0  0  0
   23.0410   75.7445   21.2521 H   0  0  0  0  0  0
   17.1275   76.6620   24.5067 H   0  0  0  0  0  0
   15.3901   75.8620   22.5996 H   0  0  0  0  0  0
  1  2  1  0  0  0
  1 21  1  0  0  0
  1 22  1  0  0  0
  2  3  2  0  0  0
  2  4  1  0  0  0
  4  5  1  0  0  0
  4 23  1  0  0  0
  5  6  2  0  0  0
  5 10  1  0  0  0
  6  7  1  0  0  0
  6 24  1  0  0  0
  7  8  2  0  0  0
  7 11  1  0  0  0
  8  9  1  0  0  0
  8 25  1  0  0  0
  9 10  2  0  0  0
  9 26  1  0  0  0
 11 12  2  0  0  0
 11 15  1  0  0  0
 12 13  1  0  0  0
 12 27  1  0  0  0
 13 14  2  0  0  0
 13 28  1  0  0  0
 14 15  1  0  0  0
 15 16  1  0  0  0
 16 17  2  0  0  0
 16 20  1  0  0  0
 17 18  1  0  0  0
 18 19  2  0  0  0
 18 29  1  0  0  0
 19 20  1  0  0  0
 19 30  1  0  0  0
M  END
> <s_m_entry_id>
9781

> <s_m_entry_name>
dock_pv.221

> <s_m_Source_Path>
/home/csk/Desktop/cluster/DUD-E-result/mcr

> <s_m_Source_File>
dock_pv.maegz

> <i_m_Source_File_Index>
221

> <chembl_id>
CHEMBL3643665

> <chembl_pref_name>
None

> <i_lp_mmshare_version>
53161

> <i_f3d_flags>
0

> <r_lp_tautomer_probability>
1

> <s_lp_Force_Field>
OPLS_2005

> <r_lp_Energy>
8.425092

> <b_lp_Chiralities_Consistent>
1

> <s_lp_Variant>
CHEMBL1994_lig799-1

> <s_i_glide_gridfile>
glide-grid_2aa2

> <i_i_glide_lignum>
1215

> <i_i_glide_rotatable_bonds>
4

> <r_i_docking_score>
-7.40127898293745

> <r_i_glide_ligand_efficiency>
-0.370063949146872

> <r_i_glide_ligand_efficiency_sa>
-1.00450810182787

> <r_i_glide_ligand_efficiency_ln>
-1.8522960189108

> <r_i_glide_gscore>
-7.40127898293745

> <r_i_glide_lipo>
-2.78686872487141

> <r_i_glide_hbond>
-0.32

> <r_i_glide_metal>
0

> <r_i_glide_rewards>
-2.4012927119888

> <r_i_glide_evdw>
-39.0665092468262

> <r_i_glide_ecoul>
-4.02872514724731

> <r_i_glide_erotb>
0.664516688351175

> <r_i_glide_esite>
0

> <r_i_glide_emodel>
-59.5100231165667

> <r_i_glide_energy>
-43.0952343940735

> <r_i_glide_einternal>
1.14127051830292

> <i_i_glide_confnum>
24

> <i_i_glide_posenum>
49

> <r_i_glide_eff_state_penalty>
0

> <s_user_duplicate_titles>
CHEMBL1994_lig799

> <s_m_subgroup_title>
dock_pv

> <s_m_subgroupid>
dock_pv

> <b_m_subgroup_collapsed>
1

$$$$
CHEMBL1994_lig1116
                    3D
 Schrodinger Suite 2021-1.
 35 36  0  0  1  0            999 V2000
   19.1779   71.8622   19.9518 C   0  0  0  0  0  0
   19.3535   72.8829   20.9082 N   0  0  0  0  0  0
   17.9970   71.1061   19.9062 C   0  0  0  0  0  0
   17.7877   70.1763   18.8951 C   0  0  0  0  0  0
   18.7747   69.9348   17.9425 C   0  0  0  0  0  0
   19.9972   70.6253   18.0132 C   0  0  0  0  0  0
   20.1942   71.6082   19.0035 C   0  0  0  0  0  0
   18.4812   68.9944   16.8706 C   0  0  0  0  0  0
   18.2449   68.2607   16.0078 N   0  0  0  0  0  0
   21.2628   70.2752   16.8698 Cl  0  0  0  0  0  0
   21.5114   72.3937   19.0131 C   0  0  0  0  0  0
   18.3224   73.4171   21.8100 C   0  0  1  0  0  0
   18.8538   74.6740   22.5744 C   0  0  1  0  0  0
   18.4916   75.8398   21.6451 C   0  0  0  0  0  0
   17.1440   75.4619   21.0265 C   0  0  0  0  0  0
   17.0808   73.9359   21.0402 C   0  0  0  0  0  0
   18.2048   74.8421   23.9653 C   0  0  0  0  0  0
   20.2405   74.6648   22.8695 O   0  0  0  0  0  0
   20.1769   73.4589   20.8239 H   0  0  0  0  0  0
   17.2134   71.2581   20.6331 H   0  0  0  0  0  0
   16.8439   69.6454   18.8641 H   0  0  0  0  0  0
   21.6830   72.9649   19.9250 H   0  0  0  0  0  0
   22.3606   71.7138   18.9247 H   0  0  0  0  0  0
   21.5493   73.0705   18.1558 H   0  0  0  0  0  0
   18.0352   72.6427   22.5240 H   0  0  0  0  0  0
   18.4222   76.7859   22.1838 H   0  0  0  0  0  0
   19.2551   75.9724   20.8767 H   0  0  0  0  0  0
   17.0395   75.8628   20.0180 H   0  0  0  0  0  0
   16.3225   75.8613   21.6241 H   0  0  0  0  0  0
   17.0410   73.5795   20.0141 H   0  0  0  0  0  0
   16.1627   73.5911   21.5153 H   0  0  0  0  0  0
   17.1384   75.0576   23.8847 H   0  0  0  0  0  0
   18.3177   73.9513   24.5829 H   0  0  0  0  0  0
   18.6371   75.6805   24.5107 H   0  0  0  0  0  0
   20.5021   75.5581   23.0942 H   0  0  0  0  0  0
  1  2  1  0  0  0
  1  3  2  0  0  0
  1  7  1  0  0  0
  2 12  1  0  0  0
  2 19  1  0  0  0
  3  4  1  0  0  0
  3 20  1  0  0  0
  4  5  2  0  0  0
  4 21  1  0  0  0
  5  6  1  0  0  0
  5  8  1  0  0  0
  6  7  2  0  0  0
  6 10  1  0  0  0
  7 11  1  0  0  0
  8  9  3  0  0  0
 11 22  1  0  0  0
 11 23  1  0  0  0
 11 24  1  0  0  0
 12 13  1  0  0  0
 12 16  1  0  0  0
 12 25  1  0  0  0
 13 14  1  0  0  0
 13 17  1  0  0  0
 13 18  1  0  0  0
 14 15  1  0  0  0
 14 26  1  0  0  0
 14 27  1  0  0  0
 15 16  1  0  0  0
 15 28  1  0  0  0
 15 29  1  0  0  0
 16 30  1  0  0  0
 16 31  1  0  0  0
 17 32  1  0  0  0
 17 33  1  0  0  0
 17 34  1  0  0  0
 18 35  1  0  0  0
M  END
> <s_m_entry_id>
9782

> <s_m_entry_name>
dock_pv.222

> <s_m_Source_Path>
/home/csk/Desktop/cluster/DUD-E-result/mcr

> <s_m_Source_File>
dock_pv.maegz

> <i_m_Source_File_Index>
222

> <chembl_id>
CHEMBL3765171

> <chembl_pref_name>
None

> <i_lp_mmshare_version>
53161

> <i_f3d_flags>
0

> <r_lp_tautomer_probability>
1

> <s_lp_Force_Field>
OPLS_2005

> <r_lp_Energy>
34.916982

> <b_lp_Chiralities_Consistent>
1

> <s_lp_Variant>
CHEMBL1994_lig1116-1

> <s_i_glide_gridfile>
glide-grid_2aa2

> <i_i_glide_lignum>
1602

> <i_i_glide_rotatable_bonds>
3

> <r_i_docking_score>
-7.39568968156943

> <r_i_glide_ligand_efficiency>
-0.410871648976079

> <r_i_glide_ligand_efficiency_sa>
-1.07678833714104

> <r_i_glide_ligand_efficiency_ln>
-1.90102389740997

> <r_i_glide_gscore>
-7.39568968156943

> <r_i_glide_lipo>
-3.21392731294745

> <r_i_glide_hbond>
-0.0531059033504623

> <r_i_glide_metal>
0

> <r_i_glide_rewards>
-2.39127343943948

> <r_i_glide_evdw>
-37.2848358154297

> <r_i_glide_ecoul>
-2.53704714775085

> <r_i_glide_erotb>
0.507415837102078

> <r_i_glide_esite>
0

> <r_i_glide_emodel>
-56.9202863680668

> <r_i_glide_energy>
-39.8218829631805

> <r_i_glide_einternal>
1.57522761821747

> <i_i_glide_confnum>
5

> <i_i_glide_posenum>
345

> <r_i_glide_eff_state_penalty>
0

> <s_user_duplicate_titles>
CHEMBL1994_lig1116

> <s_m_subgroup_title>
dock_pv

> <s_m_subgroupid>
dock_pv

> <b_m_subgroup_collapsed>
1

$$$$
CHEMBL1994_lig790
                    3D
 Schrodinger Suite 2021-1.
 37 39  0  0  1  0            999 V2000
   17.4969   75.0364   21.8458 C   0  0  0  0  0  0
   19.0031   75.0581   21.5874 C   0  0  0  0  0  0
   19.6060   76.2448   21.2687 C   0  0  0  0  0  0
   20.9637   76.2907   21.0001 C   0  0  0  0  0  0
   21.4513   77.4920   20.6881 F   0  0  0  0  0  0
   21.7735   75.1692   21.0475 C   0  0  0  0  0  0
   21.1860   73.9538   21.3378 C   0  0  0  0  0  0
   19.8201   73.9213   21.6400 C   0  0  0  0  0  0
   19.2316   72.7596   22.0482 N   0  0  0  0  0  0
   18.8631   72.7790   23.3208 N   0  0  0  0  0  0
   18.0050   71.8326   23.3900 C   0  0  0  0  0  0
   17.9084   71.1015   22.2054 C   0  0  0  0  0  0
   18.7520   71.7129   21.2912 C   0  0  0  0  0  0
   19.0778   71.4144   19.8563 C   0  0  0  0  0  0
   19.7466   72.3076   19.0011 C   0  0  0  0  0  0
   20.1665   71.8755   17.7502 C   0  0  0  0  0  0
   19.8485   70.6610   17.2668 N   0  0  0  0  0  0
   19.0712   69.8399   18.0254 C   0  0  0  0  0  0
   18.6514   68.6033   17.5240 N   0  0  0  0  0  0
   18.6931   68.2526   16.2351 C   0  0  0  0  0  0
   18.6412   68.9986   15.2723 O   0  0  0  0  0  0
   19.0411   66.9887   16.0786 N   0  0  0  0  0  0
   18.7326   70.1585   19.3413 C   0  0  0  0  0  0
   16.9978   75.9173   21.4533 H   0  0  0  0  0  0
   17.0283   74.1781   21.3586 H   0  0  0  0  0  0
   17.2903   74.9712   22.9142 H   0  0  0  0  0  0
   19.0205   77.1462   21.1817 H   0  0  0  0  0  0
   22.8314   75.2429   20.8637 H   0  0  0  0  0  0
   21.7917   73.0636   21.3288 H   0  0  0  0  0  0
   17.4513   71.6561   24.3048 H   0  0  0  0  0  0
   17.2624   70.2620   22.0410 H   0  0  0  0  0  0
   19.9779   73.3222   19.2671 H   0  0  0  0  0  0
   20.7510   72.5112   17.1027 H   0  0  0  0  0  0
   18.3465   67.9183   18.1963 H   0  0  0  0  0  0
   19.8855   66.8279   15.5420 H   0  0  0  0  0  0
   18.7734   66.3322   16.8062 H   0  0  0  0  0  0
   18.2282   69.4377   19.9598 H   0  0  0  0  0  0
  1  2  1  0  0  0
  1 24  1  0  0  0
  1 25  1  0  0  0
  1 26  1  0  0  0
  2  3  2  0  0  0
  2  8  1  0  0  0
  3  4  1  0  0  0
  3 27  1  0  0  0
  4  5  1  0  0  0
  4  6  2  0  0  0
  6  7  1  0  0  0
  6 28  1  0  0  0
  7  8  2  0  0  0
  7 29  1  0  0  0
  8  9  1  0  0  0
  9 10  1  0  0  0
  9 13  1  0  0  0
 10 11  2  0  0  0
 11 12  1  0  0  0
 11 30  1  0  0  0
 12 13  2  0  0  0
 12 31  1  0  0  0
 13 14  1  0  0  0
 14 15  2  0  0  0
 14 23  1  0  0  0
 15 16  1  0  0  0
 15 32  1  0  0  0
 16 17  2  0  0  0
 16 33  1  0  0  0
 17 18  1  0  0  0
 18 19  1  0  0  0
 18 23  2  0  0  0
 19 20  1  0  0  0
 19 34  1  0  0  0
 20 21  2  0  0  0
 20 22  1  0  0  0
 22 35  1  0  0  0
 22 36  1  0  0  0
 23 37  1  0  0  0
M  END
> <s_m_entry_id>
9783

> <s_m_entry_name>
dock_pv.223

> <s_m_Source_Path>
/home/csk/Desktop/cluster/DUD-E-result/mcr

> <s_m_Source_File>
dock_pv.maegz

> <i_m_Source_File_Index>
223

> <chembl_id>
CHEMBL3643656

> <chembl_pref_name>
None

> <i_lp_mmshare_version>
53161

> <i_f3d_flags>
0

> <r_lp_tautomer_probability>
1

> <s_lp_Force_Field>
OPLS_2005

> <r_lp_Energy>
14.77269

> <b_lp_Chiralities_Consistent>
1

> <s_lp_Variant>
CHEMBL1994_lig790-1

> <s_i_glide_gridfile>
glide-grid_2aa2

> <i_i_glide_lignum>
1206

> <i_i_glide_rotatable_bonds>
4

> <r_i_docking_score>
-7.39142533754066

> <r_i_glide_ligand_efficiency>
-0.321366319023507

> <r_i_glide_ligand_efficiency_sa>
-0.913923062152195

> <r_i_glide_ligand_efficiency_ln>
-1.7873136683568

> <r_i_glide_gscore>
-7.39142533754066

> <r_i_glide_lipo>
-3.43511351020085

> <r_i_glide_hbond>
-0.501507133934271

> <r_i_glide_metal>
0

> <r_i_glide_rewards>
-2.15108340512802

> <r_i_glide_evdw>
-10.2427816390991

> <r_i_glide_ecoul>
-8.43725109100342

> <r_i_glide_erotb>
0.574005457327957

> <r_i_glide_esite>
-0.1

> <r_i_glide_emodel>
-29.4536091102892

> <r_i_glide_energy>
-18.6800327301025

> <r_i_glide_einternal>
1.90579211711884

> <i_i_glide_confnum>
5

> <i_i_glide_posenum>
333

> <r_i_glide_eff_state_penalty>
0

> <s_user_duplicate_titles>
CHEMBL1994_lig790

> <s_m_subgroup_title>
dock_pv

> <s_m_subgroupid>
dock_pv

> <b_m_subgroup_collapsed>
1

$$$$
CHEMBL1994_lig22
                    3D
 Schrodinger Suite 2021-1.
 40 43  0  0  1  0            999 V2000
   19.6180   73.9398   22.0195 C   0  0  0  0  0  0
   19.7899   73.1385   20.8479 C   0  0  0  0  0  0
   19.3340   71.3008   19.3427 C   0  0  0  0  0  0
   20.2468   71.8029   18.4229 C   0  0  0  0  0  0
   20.7280   73.6026   19.8944 C   0  0  0  0  0  0
   18.7806   70.0174   18.8281 C   0  0  1  0  0  0
   20.3201   71.0352   17.2700 N   0  0  0  0  0  0
   18.4534   73.6673   22.9260 C   0  0  0  0  0  0
   21.4410   74.7036   20.0932 N   0  0  0  0  0  0
   21.2560   75.4570   21.1770 C   0  0  0  0  0  0
   19.0696   71.9595   20.5373 C   0  0  0  0  0  0
   20.3842   75.0907   22.1873 C   0  0  0  0  0  0
   20.9146   72.9737   18.6618 C   0  0  0  0  0  0
   19.9207   69.7595   17.8194 C   0  0  2  0  0  0
   21.8410   76.6620   21.2700 O   0  0  0  0  0  0
   17.4410   73.7740   22.0700 F   0  0  0  0  0  0
   18.5213   72.4441   23.4549 F   0  0  0  0  0  0
   18.3007   74.5666   23.9024 F   0  0  0  0  0  0
   18.7690   68.8947   19.8852 C   0  0  0  0  0  0
   17.4299   70.1672   18.0701 C   0  0  0  0  0  0
   19.6435   68.6620   16.8005 C   0  0  0  0  0  0
   17.1736   69.0620   17.0220 C   0  0  0  0  0  0
   18.3688   68.8598   16.0539 C   0  0  0  0  0  0
   20.8195   69.4620   18.3651 H   0  0  0  0  0  0
   21.1723   70.8713   16.7546 H   0  0  0  0  0  0
   18.3407   71.5643   21.2279 H   0  0  0  0  0  0
   20.2263   75.7399   23.0362 H   0  0  0  0  0  0
   21.6196   73.3777   17.9524 H   0  0  0  0  0  0
   21.6203   77.1381   22.0699 H   0  0  0  0  0  0
   18.3236   67.9697   19.5175 H   0  0  0  0  0  0
   19.7737   68.6620   20.2383 H   0  0  0  0  0  0
   18.2410   69.2082   20.7789 H   0  0  0  0  0  0
   17.4087   71.1338   17.5630 H   0  0  0  0  0  0
   16.6092   70.2337   18.7854 H   0  0  0  0  0  0
   19.5936   67.6802   17.2699 H   0  0  0  0  0  0
   20.4650   68.6620   16.0869 H   0  0  0  0  0  0
   16.2624   69.2889   16.4700 H   0  0  0  0  0  0
   16.9644   68.1303   17.5434 H   0  0  0  0  0  0
   18.6410   69.7166   15.4308 H   0  0  0  0  0  0
   18.1788   68.0260   15.3795 H   0  0  0  0  0  0
  1  2  1  0  0  0
  1  8  1  0  0  0
  1 12  2  0  0  0
  2  5  2  0  0  0
  2 11  1  0  0  0
  3 11  2  0  0  0
  3  4  1  0  0  0
  3  6  1  0  0  0
  4  7  1  0  0  0
  4 13  2  0  0  0
  5 13  1  0  0  0
  5  9  1  0  0  0
  6 14  1  0  0  0
  6 19  1  0  0  0
  6 20  1  0  0  0
  7 14  1  0  0  0
  7 25  1  0  0  0
  8 16  1  0  0  0
  8 17  1  0  0  0
  8 18  1  0  0  0
  9 10  2  0  0  0
 10 12  1  0  0  0
 10 15  1  0  0  0
 11 26  1  0  0  0
 12 27  1  0  0  0
 13 28  1  0  0  0
 14 21  1  0  0  0
 14 24  1  0  0  0
 15 29  1  0  0  0
 19 30  1  0  0  0
 19 31  1  0  0  0
 19 32  1  0  0  0
 20 22  1  0  0  0
 20 33  1  0  0  0
 20 34  1  0  0  0
 21 23  1  0  0  0
 21 35  1  0  0  0
 21 36  1  0  0  0
 22 23  1  0  0  0
 22 37  1  0  0  0
 22 38  1  0  0  0
 23 39  1  0  0  0
 23 40  1  0  0  0
M  END
> <s_m_entry_id>
9784

> <s_m_entry_name>
dock_pv.224

> <s_m_Source_Path>
/home/csk/Desktop/cluster/DUD-E-result/mcr

> <s_m_Source_File>
dock_pv.maegz

> <i_m_Source_File_Index>
224

> <chembl_id>
CHEMBL351447

> <chembl_pref_name>
None

> <i_lp_mmshare_version>
53161

> <i_f3d_flags>
0

> <r_lp_tautomer_probability>
1

> <s_lp_Force_Field>
OPLS_2005

> <r_lp_Energy>
32.117479

> <b_lp_Chiralities_Consistent>
1

> <s_lp_Variant>
CHEMBL1994_lig22-1

> <s_i_glide_gridfile>
glide-grid_2aa2

> <i_i_glide_lignum>
23

> <i_i_glide_rotatable_bonds>
2

> <r_i_docking_score>
-7.37032930756068

> <r_i_glide_ligand_efficiency>
-0.320449100328725

> <r_i_glide_ligand_efficiency_sa>
-0.91131461419553

> <r_i_glide_ligand_efficiency_ln>
-1.78221245701942

> <r_i_glide_gscore>
-7.37032930756068

> <r_i_glide_lipo>
-4.11449209845548

> <r_i_glide_hbond>
0

> <r_i_glide_metal>
0

> <r_i_glide_rewards>
-2.32352829001512

> <r_i_glide_evdw>
-20.0280857086182

> <r_i_glide_ecoul>
0.96216756105423

> <r_i_glide_erotb>
0

> <r_i_glide_esite>
-0.0752297678173123

> <r_i_glide_emodel>
-28.136448192961

> <r_i_glide_energy>
-19.0659181475639

> <r_i_glide_einternal>
2.15217661857605

> <i_i_glide_confnum>
1

> <i_i_glide_posenum>
347

> <r_i_glide_eff_state_penalty>
0

> <s_user_duplicate_titles>
CHEMBL1994_lig22

> <s_m_subgroup_title>
dock_pv

> <s_m_subgroupid>
dock_pv

> <b_m_subgroup_collapsed>
1

$$$$
CHEMBL1994_lig834
                    3D
 Schrodinger Suite 2021-1.
 43 45  0  0  1  0            999 V2000
   17.7751   68.6628   17.0695 N   0  0  0  0  0  0
   17.2533   69.5715   17.8807 C   0  0  0  0  0  0
   16.3062   70.2667   17.5349 O   0  0  0  0  0  0
   17.9233   69.6570   19.0379 N   0  0  0  0  0  0
   17.8445   70.6578   20.0185 C   0  0  0  0  0  0
   17.5251   71.9781   19.7385 C   0  0  0  0  0  0
   17.7087   72.9120   20.7620 C   0  0  0  0  0  0
   17.8480   72.4624   22.0735 C   0  0  0  0  0  0
   18.0969   71.1209   22.2859 C   0  0  0  0  0  0
   18.2409   70.2623   21.2579 N   0  0  0  0  0  0
   18.2192   74.2828   20.3699 C   0  0  1  0  0  0
   17.7872   75.4527   21.2892 C   0  0  0  0  0  0
   18.6471   75.7051   22.5533 C   0  0  0  0  0  0
   20.1539   75.5430   22.3004 C   0  0  0  0  0  0
   20.5177   74.2656   21.5808 C   0  0  0  0  0  0
   19.7805   74.1887   20.2256 C   0  0  1  0  0  0
   20.2679   72.9964   19.3882 C   0  0  0  0  0  0
   20.6409   71.7927   19.9898 C   0  0  0  0  0  0
   21.0255   70.6919   19.2288 C   0  0  0  0  0  0
   21.0271   70.7934   17.8480 C   0  0  0  0  0  0
   21.3671   69.7430   17.0808 F   0  0  0  0  0  0
   20.6409   71.9717   17.2417 C   0  0  0  0  0  0
   20.2359   73.0619   18.0035 C   0  0  0  0  0  0
   18.3351   67.9056   17.4330 H   0  0  0  0  0  0
   17.4565   68.6468   16.1170 H   0  0  0  0  0  0
   18.5031   68.8708   19.2863 H   0  0  0  0  0  0
   17.4307   72.2939   18.7102 H   0  0  0  0  0  0
   17.9070   73.1259   22.9145 H   0  0  0  0  0  0
   18.2413   70.7377   23.2824 H   0  0  0  0  0  0
   17.8161   74.4999   19.3771 H   0  0  0  0  0  0
   17.8796   76.3363   20.6674 H   0  0  0  0  0  0
   16.7312   75.3746   21.5503 H   0  0  0  0  0  0
   18.4706   76.7172   22.9185 H   0  0  0  0  0  0
   18.3398   75.0695   23.3807 H   0  0  0  0  0  0
   20.4939   76.3674   21.6693 H   0  0  0  0  0  0
   20.7078   75.6165   23.2385 H   0  0  0  0  0  0
   21.6007   74.2478   21.4350 H   0  0  0  0  0  0
   20.2456   73.4468   22.2402 H   0  0  0  0  0  0
   20.0870   75.0655   19.6703 H   0  0  0  0  0  0
   20.5840   71.6767   21.0593 H   0  0  0  0  0  0
   21.3021   69.7677   19.7109 H   0  0  0  0  0  0
   20.6446   72.0384   16.1598 H   0  0  0  0  0  0
   19.8620   73.9458   17.5095 H   0  0  0  0  0  0
  1  2  1  0  0  0
  1 24  1  0  0  0
  1 25  1  0  0  0
  2  3  2  0  0  0
  2  4  1  0  0  0
  4  5  1  0  0  0
  4 26  1  0  0  0
  5  6  2  0  0  0
  5 10  1  0  0  0
  6  7  1  0  0  0
  6 27  1  0  0  0
  7  8  2  0  0  0
  7 11  1  0  0  0
  8  9  1  0  0  0
  8 28  1  0  0  0
  9 10  2  0  0  0
  9 29  1  0  0  0
 11 12  1  0  0  0
 11 16  1  0  0  0
 11 30  1  0  0  0
 12 13  1  0  0  0
 12 31  1  0  0  0
 12 32  1  0  0  0
 13 14  1  0  0  0
 13 33  1  0  0  0
 13 34  1  0  0  0
 14 15  1  0  0  0
 14 35  1  0  0  0
 14 36  1  0  0  0
 15 16  1  0  0  0
 15 37  1  0  0  0
 15 38  1  0  0  0
 16 17  1  0  0  0
 16 39  1  0  0  0
 17 18  2  0  0  0
 17 23  1  0  0  0
 18 19  1  0  0  0
 18 40  1  0  0  0
 19 20  2  0  0  0
 19 41  1  0  0  0
 20 21  1  0  0  0
 20 22  1  0  0  0
 22 23  2  0  0  0
 22 42  1  0  0  0
 23 43  1  0  0  0
M  END
> <s_m_entry_id>
9785

> <s_m_entry_name>
dock_pv.225

> <s_m_Source_Path>
/home/csk/Desktop/cluster/DUD-E-result/mcr

> <s_m_Source_File>
dock_pv.maegz

> <i_m_Source_File_Index>
225

> <chembl_id>
CHEMBL3643699

> <chembl_pref_name>
None

> <i_lp_mmshare_version>
53161

> <i_f3d_flags>
0

> <r_lp_tautomer_probability>
1

> <s_lp_Force_Field>
OPLS_2005

> <r_lp_Energy>
19.162944

> <b_lp_Chiralities_Consistent>
1

> <s_lp_Variant>
CHEMBL1994_lig834-2

> <s_i_glide_gridfile>
glide-grid_2aa2

> <i_i_glide_lignum>
1263

> <i_i_glide_rotatable_bonds>
4

> <r_i_docking_score>
-7.35974730745388

> <r_i_glide_ligand_efficiency>
-0.31998901336756

> <r_i_glide_ligand_efficiency_sa>
-0.910006188080178

> <r_i_glide_ligand_efficiency_ln>
-1.77965363344132

> <r_i_glide_gscore>
-7.35974730745388

> <r_i_glide_lipo>
-3.79359868844816

> <r_i_glide_hbond>
-0.0221148905793289

> <r_i_glide_metal>
0

> <r_i_glide_rewards>
-2.73506457492696

> <r_i_glide_evdw>
-25.2467250823975

> <r_i_glide_ecoul>
-0.760248363018036

> <r_i_glide_erotb>
0.567404355073148

> <r_i_glide_esite>
0

> <r_i_glide_emodel>
-27.8582849616042

> <r_i_glide_energy>
-26.0069734454155

> <r_i_glide_einternal>
8.31612205505371

> <i_i_glide_confnum>
50

> <i_i_glide_posenum>
22

> <r_i_glide_eff_state_penalty>
0

> <s_user_duplicate_titles>
CHEMBL1994_lig834

> <s_m_subgroup_title>
dock_pv

> <s_m_subgroupid>
dock_pv

> <b_m_subgroup_collapsed>
1

$$$$
CHEMBL1994_lig808
                    3D
 Schrodinger Suite 2021-1.
 43 45  0  0  1  0            999 V2000
   19.4410   68.6894   16.4700 N   0  0  0  0  0  0
   18.1185   68.6581   16.3141 C   0  0  0  0  0  0
   17.6188   68.2620   15.2700 O   0  0  0  0  0  0
   17.3428   69.1066   17.3194 N   0  0  0  0  0  0
   17.7519   69.4967   18.5953 C   0  0  0  0  0  0
   17.2140   70.6603   19.1400 C   0  0  0  0  0  0
   17.6523   71.0620   20.4062 C   0  0  0  0  0  0
   17.0716   72.2831   21.0729 C   0  0  0  0  0  0
   17.7792   73.6214   20.7438 C   0  0  0  0  0  0
   19.0877   73.4699   19.9641 C   0  0  0  0  0  0
   20.3133   73.4870   20.6227 C   0  0  0  0  0  0
   21.4410   73.0692   19.9549 C   0  0  0  0  0  0
   21.3840   72.6620   18.6318 C   0  0  0  0  0  0
   20.1883   72.7230   17.9402 C   0  0  0  0  0  0
   19.0386   73.1559   18.5958 C   0  0  0  0  0  0
   17.8141   74.4517   22.0211 C   0  0  0  0  0  0
   16.9804   75.5558   22.0845 C   0  0  0  0  0  0
   16.8323   76.2620   23.2700 C   0  0  0  0  0  0
   17.4271   75.7808   24.4180 C   0  0  0  0  0  0
   18.2410   74.6620   24.3874 C   0  0  0  0  0  0
   18.4675   74.0099   23.1816 C   0  0  0  0  0  0
   18.6410   70.3231   21.0676 C   0  0  0  0  0  0
   19.0984   69.1546   20.4700 C   0  0  0  0  0  0
   18.6410   68.7261   19.2718 N   0  0  0  0  0  0
   19.8179   69.0030   17.3516 H   0  0  0  0  0  0
   20.0543   68.3090   15.7644 H   0  0  0  0  0  0
   16.3740   69.2724   17.0987 H   0  0  0  0  0  0
   16.4745   71.2329   18.6014 H   0  0  0  0  0  0
   17.0756   72.0598   22.1388 H   0  0  0  0  0  0
   16.0123   72.3779   20.8700 H   0  0  0  0  0  0
   17.1299   74.1440   20.0379 H   0  0  0  0  0  0
   20.4240   73.7622   21.6561 H   0  0  0  0  0  0
   22.3880   73.0620   20.4700 H   0  0  0  0  0  0
   22.2787   72.3229   18.1315 H   0  0  0  0  0  0
   20.1863   72.4274   16.9031 H   0  0  0  0  0  0
   18.0972   73.1573   18.0662 H   0  0  0  0  0  0
   16.4282   75.8620   21.2095 H   0  0  0  0  0  0
   16.2410   77.1589   23.3123 H   0  0  0  0  0  0
   17.2058   76.2620   25.3456 H   0  0  0  0  0  0
   18.6410   74.2763   25.3079 H   0  0  0  0  0  0
   19.0484   73.0997   23.1815 H   0  0  0  0  0  0
   19.0160   70.6295   22.0334 H   0  0  0  0  0  0
   19.8355   68.5296   20.9542 H   0  0  0  0  0  0
  1  2  1  0  0  0
  1 25  1  0  0  0
  1 26  1  0  0  0
  2  3  2  0  0  0
  2  4  1  0  0  0
  4  5  1  0  0  0
  4 27  1  0  0  0
  5  6  2  0  0  0
  5 24  1  0  0  0
  6  7  1  0  0  0
  6 28  1  0  0  0
  7  8  1  0  0  0
  7 22  2  0  0  0
  8  9  1  0  0  0
  8 29  1  0  0  0
  8 30  1  0  0  0
  9 10  1  0  0  0
  9 16  1  0  0  0
  9 31  1  0  0  0
 10 11  2  0  0  0
 10 15  1  0  0  0
 11 12  1  0  0  0
 11 32  1  0  0  0
 12 13  2  0  0  0
 12 33  1  0  0  0
 13 14  1  0  0  0
 13 34  1  0  0  0
 14 15  2  0  0  0
 14 35  1  0  0  0
 15 36  1  0  0  0
 16 17  2  0  0  0
 16 21  1  0  0  0
 17 18  1  0  0  0
 17 37  1  0  0  0
 18 19  2  0  0  0
 18 38  1  0  0  0
 19 20  1  0  0  0
 19 39  1  0  0  0
 20 21  2  0  0  0
 20 40  1  0  0  0
 21 41  1  0  0  0
 22 23  1  0  0  0
 22 42  1  0  0  0
 23 24  2  0  0  0
 23 43  1  0  0  0
M  END
> <s_m_entry_id>
9786

> <s_m_entry_name>
dock_pv.226

> <s_m_Source_Path>
/home/csk/Desktop/cluster/DUD-E-result/mcr

> <s_m_Source_File>
dock_pv.maegz

> <i_m_Source_File_Index>
226

> <chembl_id>
CHEMBL3643673

> <chembl_pref_name>
None

> <i_lp_mmshare_version>
53161

> <i_f3d_flags>
0

> <r_lp_tautomer_probability>
1

> <s_lp_Force_Field>
OPLS_2005

> <r_lp_Energy>
13.431938

> <b_lp_Chiralities_Consistent>
1

> <s_lp_Variant>
CHEMBL1994_lig808-1

> <s_i_glide_gridfile>
glide-grid_2aa2

> <i_i_glide_lignum>
1226

> <i_i_glide_rotatable_bonds>
6

> <r_i_docking_score>
-7.35867178922493

> <r_i_glide_ligand_efficiency>
-0.306611324551039

> <r_i_glide_ligand_efficiency_sa>
-0.884420101233331

> <r_i_glide_ligand_efficiency_ln>
-1.76126782660723

> <r_i_glide_gscore>
-7.35867178922493

> <r_i_glide_lipo>
-4.16649302325868

> <r_i_glide_hbond>
-0.475210588798187

> <r_i_glide_metal>
0

> <r_i_glide_rewards>
-1.54436259356976

> <r_i_glide_evdw>
-29.75563621521

> <r_i_glide_ecoul>
-4.06368398666382

> <r_i_glide_erotb>
0.924728825161759

> <r_i_glide_esite>
0

> <r_i_glide_emodel>
-27.4757504492032

> <r_i_glide_energy>
-33.8193202018738

> <r_i_glide_einternal>
9.93583106994629

> <i_i_glide_confnum>
66

> <i_i_glide_posenum>
96

> <r_i_glide_eff_state_penalty>
0

> <s_user_duplicate_titles>
CHEMBL1994_lig808

> <s_m_subgroup_title>
dock_pv

> <s_m_subgroupid>
dock_pv

> <b_m_subgroup_collapsed>
1

$$$$
CHEMBL1994_lig798
                    3D
 Schrodinger Suite 2021-1.
 34 36  0  0  1  0            999 V2000
   17.6513   68.6620   17.7920 N   0  0  0  0  0  0
   18.6330   69.2693   17.1345 C   0  0  0  0  0  0
   19.0410   68.8200   16.0700 O   0  0  0  0  0  0
   19.1686   70.3783   17.6887 N   0  0  0  0  0  0
   18.9079   71.0021   18.9287 C   0  0  0  0  0  0
   19.7966   72.0024   19.3242 C   0  0  0  0  0  0
   19.5952   72.6349   20.5548 C   0  0  0  0  0  0
   18.5614   72.2125   21.3927 C   0  0  0  0  0  0
   17.6888   71.2472   20.9185 C   0  0  0  0  0  0
   17.8410   70.6618   19.7065 N   0  0  0  0  0  0
   20.4394   73.7873   20.9224 C   0  0  0  0  0  0
   21.8102   73.9238   20.8700 C   0  0  0  0  0  0
   22.0771   75.2232   21.2700 C   0  0  0  0  0  0
   20.9902   75.8620   21.5867 N   0  0  0  0  0  0
   19.9830   74.9993   21.4037 N   0  0  0  0  0  0
   18.6675   75.3780   21.7582 C   0  0  0  0  0  0
   17.5781   75.0620   20.9420 C   0  0  0  0  0  0
   16.2907   75.2645   21.4275 C   0  0  0  0  0  0
   16.0824   75.8620   22.6674 C   0  0  0  0  0  0
   17.1504   76.2467   23.4531 C   0  0  0  0  0  0
   18.4296   75.9801   22.9986 C   0  0  0  0  0  0
   19.4410   76.2620   23.8092 F   0  0  0  0  0  0
   17.2580   69.1141   18.6048 H   0  0  0  0  0  0
   17.4385   67.6894   17.6020 H   0  0  0  0  0  0
   19.9349   70.7779   17.1705 H   0  0  0  0  0  0
   20.6130   72.3066   18.6843 H   0  0  0  0  0  0
   18.3913   72.6718   22.3567 H   0  0  0  0  0  0
   16.8333   70.9513   21.5079 H   0  0  0  0  0  0
   22.5175   73.1759   20.5439 H   0  0  0  0  0  0
   23.0410   75.6983   21.3301 H   0  0  0  0  0  0
   17.7186   74.5925   19.9787 H   0  0  0  0  0  0
   15.4410   74.9361   20.8700 H   0  0  0  0  0  0
   15.0752   75.9064   23.0475 H   0  0  0  0  0  0
   16.9987   76.6788   24.4319 H   0  0  0  0  0  0
  1  2  1  0  0  0
  1 23  1  0  0  0
  1 24  1  0  0  0
  2  3  2  0  0  0
  2  4  1  0  0  0
  4  5  1  0  0  0
  4 25  1  0  0  0
  5  6  2  0  0  0
  5 10  1  0  0  0
  6  7  1  0  0  0
  6 26  1  0  0  0
  7  8  2  0  0  0
  7 11  1  0  0  0
  8  9  1  0  0  0
  8 27  1  0  0  0
  9 10  2  0  0  0
  9 28  1  0  0  0
 11 12  2  0  0  0
 11 15  1  0  0  0
 12 13  1  0  0  0
 12 29  1  0  0  0
 13 14  2  0  0  0
 13 30  1  0  0  0
 14 15  1  0  0  0
 15 16  1  0  0  0
 16 17  2  0  0  0
 16 21  1  0  0  0
 17 18  1  0  0  0
 17 31  1  0  0  0
 18 19  2  0  0  0
 18 32  1  0  0  0
 19 20  1  0  0  0
 19 33  1  0  0  0
 20 21  2  0  0  0
 20 34  1  0  0  0
 21 22  1  0  0  0
M  END
> <s_m_entry_id>
9787

> <s_m_entry_name>
dock_pv.227

> <s_m_Source_Path>
/home/csk/Desktop/cluster/DUD-E-result/mcr

> <s_m_Source_File>
dock_pv.maegz

> <i_m_Source_File_Index>
227

> <chembl_id>
CHEMBL3643664

> <chembl_pref_name>
None

> <i_lp_mmshare_version>
53161

> <i_f3d_flags>
0

> <r_lp_tautomer_probability>
1

> <s_lp_Force_Field>
OPLS_2005

> <r_lp_Energy>
14.992909

> <b_lp_Chiralities_Consistent>
1

> <s_lp_Variant>
CHEMBL1994_lig798-1

> <s_i_glide_gridfile>
glide-grid_2aa2

> <i_i_glide_lignum>
1214

> <i_i_glide_rotatable_bonds>
4

> <r_i_docking_score>
-7.35300256607295

> <r_i_glide_ligand_efficiency>
-0.334227389366952

> <r_i_glide_ligand_efficiency_sa>
-0.936518289423533

> <r_i_glide_ligand_efficiency_ln>
-1.79734203443352

> <r_i_glide_gscore>
-7.35300256607295

> <r_i_glide_lipo>
-3.52481375854451

> <r_i_glide_hbond>
-0.32

> <r_i_glide_metal>
0

> <r_i_glide_rewards>
-1.95936170062016

> <r_i_glide_evdw>
-30.5518703460693

> <r_i_glide_ecoul>
-4.29029130935669

> <r_i_glide_erotb>
0.622310106798698

> <r_i_glide_esite>
0

> <r_i_glide_emodel>
-41.9244487660534

> <r_i_glide_energy>
-34.842161655426

> <r_i_glide_einternal>
0.618509650230408

> <i_i_glide_confnum>
30

> <i_i_glide_posenum>
296

> <r_i_glide_eff_state_penalty>
0

> <s_user_duplicate_titles>
CHEMBL1994_lig798

> <s_m_subgroup_title>
dock_pv

> <s_m_subgroupid>
dock_pv

> <b_m_subgroup_collapsed>
1

$$$$
CHEMBL1994_lig206
                    3D
 Schrodinger Suite 2021-1.
 36 37  0  0  1  0            999 V2000
   17.5304   69.5007   17.3669 C   0  0  0  0  0  0
   17.8661   70.4173   18.3591 C   0  0  0  0  0  0
   19.2060   70.7876   18.5621 C   0  0  0  0  0  0
   20.2023   70.2542   17.7334 C   0  0  0  0  0  0
   19.8412   69.4096   16.6997 C   0  0  0  0  0  0
   18.5216   69.0079   16.5246 C   0  0  0  0  0  0
   19.5518   71.7209   19.7406 C   0  0  1  0  0  0
   19.0625   73.1793   19.6211 C   0  0  0  0  0  0
   18.3692   73.8225   20.6097 C   0  0  0  0  0  0
   18.0486   73.1121   21.7380 N   0  0  0  0  0  0
   18.3792   71.7969   21.9274 C   0  0  0  0  0  0
   19.1059   71.1156   21.0308 C   0  0  0  0  0  0
   17.8023   75.2428   20.6747 C   0  0  0  0  0  0
   17.6889   71.1597   23.0648 C   0  0  0  0  0  0
   19.3084   69.7191   21.0787 C   0  0  0  0  0  0
   19.4022   73.7066   18.3218 C   0  0  0  0  0  0
   20.3107   73.2256   17.6700 O   0  0  0  0  0  0
   18.6410   74.6619   17.9002 O   0  0  0  0  0  0
   18.6410   75.1481   16.5714 C   0  0  0  0  0  0
   18.1962   68.1558   15.5307 F   0  0  0  0  0  0
   19.4411   68.5998   20.8700 N   0  0  0  0  0  0
   21.8915   70.5624   17.9584 Cl  0  0  0  0  0  0
   18.6418   76.2199   21.9108 Cl  0  0  0  0  0  0
   16.5041   69.1894   17.2416 H   0  0  0  0  0  0
   17.0894   70.8074   19.0021 H   0  0  0  0  0  0
   20.6314   69.0620   16.0700 H   0  0  0  0  0  0
   20.6373   71.7731   19.8287 H   0  0  0  0  0  0
   17.5548   73.5839   22.4845 H   0  0  0  0  0  0
   17.8411   75.8040   19.7510 H   0  0  0  0  0  0
   16.7467   75.2089   20.9492 H   0  0  0  0  0  0
   17.7229   70.0888   22.8700 H   0  0  0  0  0  0
   18.1311   71.4620   24.0143 H   0  0  0  0  0  0
   16.6446   71.4545   23.0357 H   0  0  0  0  0  0
   18.3451   76.1964   16.5417 H   0  0  0  0  0  0
   19.6004   75.0624   16.0703 H   0  0  0  0  0  0
   17.8691   74.5968   16.0512 H   0  0  0  0  0  0
  1  6  1  0  0  0
  1  2  2  0  0  0
  1 24  1  0  0  0
  2  3  1  0  0  0
  2 25  1  0  0  0
  3  7  1  0  0  0
  3  4  2  0  0  0
  4  5  1  0  0  0
  4 22  1  0  0  0
  5  6  2  0  0  0
  5 26  1  0  0  0
  6 20  1  0  0  0
  7  8  1  0  0  0
  7 12  1  0  0  0
  7 27  1  0  0  0
  8 16  1  0  0  0
  8  9  2  0  0  0
  9 13  1  0  0  0
  9 10  1  0  0  0
 10 11  1  0  0  0
 10 28  1  0  0  0
 11 12  2  0  0  0
 11 14  1  0  0  0
 12 15  1  0  0  0
 13 23  1  0  0  0
 13 29  1  0  0  0
 13 30  1  0  0  0
 14 31  1  0  0  0
 14 32  1  0  0  0
 14 33  1  0  0  0
 15 21  3  0  0  0
 16 17  2  0  0  0
 16 18  1  0  0  0
 18 19  1  0  0  0
 19 34  1  0  0  0
 19 35  1  0  0  0
 19 36  1  0  0  0
M  END
> <s_m_entry_id>
9788

> <s_m_entry_name>
dock_pv.228

> <s_m_Source_Path>
/home/csk/Desktop/cluster/DUD-E-result/mcr

> <s_m_Source_File>
dock_pv.maegz

> <i_m_Source_File_Index>
228

> <chembl_id>
CHEMBL1094169

> <chembl_pref_name>
None

> <i_lp_mmshare_version>
53161

> <i_f3d_flags>
0

> <r_lp_tautomer_probability>
1

> <s_lp_Force_Field>
OPLS_2005

> <r_lp_Energy>
14.391959

> <b_lp_Chiralities_Consistent>
1

> <s_lp_Variant>
CHEMBL1994_lig206-1

> <s_i_glide_gridfile>
glide-grid_2aa2

> <i_i_glide_lignum>
345

> <i_i_glide_rotatable_bonds>
4

> <r_i_docking_score>
-7.34202621229364

> <r_i_glide_ligand_efficiency>
-0.319218530969289

> <r_i_glide_ligand_efficiency_sa>
-0.907815038631468

> <r_i_glide_ligand_efficiency_ln>
-1.77536851194557

> <r_i_glide_gscore>
-7.34202621229364

> <r_i_glide_lipo>
-3.67953557114801

> <r_i_glide_hbond>
-0.117015880103434

> <r_i_glide_metal>
0

> <r_i_glide_rewards>
-2.31227159457671

> <r_i_glide_evdw>
-18.1213111877441

> <r_i_glide_ecoul>
-3.90558791160583

> <r_i_glide_erotb>
0.303069139942534

> <r_i_glide_esite>
-0.0443685602799396

> <r_i_glide_emodel>
-42.4970894588523

> <r_i_glide_energy>
-22.02689909935

> <r_i_glide_einternal>
2.05564761161804

> <i_i_glide_confnum>
6

> <i_i_glide_posenum>
20

> <r_i_glide_eff_state_penalty>
0

> <s_user_duplicate_titles>
CHEMBL1994_lig206,625436

> <s_m_subgroup_title>
dock_pv

> <s_m_subgroupid>
dock_pv

> <b_m_subgroup_collapsed>
1

$$$$
CHEMBL1994_lig257
                    3D
 Schrodinger Suite 2021-1.
 42 43  0  0  1  0            999 V2000
   19.1647   71.4021   20.6267 C   0  0  0  0  0  0
   19.3867   71.9802   19.2069 C   0  0  2  0  0  0
   18.7268   73.3667   19.0726 C   0  0  0  0  0  0
   18.4040   72.0408   21.5490 C   0  0  0  0  0  0
   17.8280   73.2482   21.2480 N   0  0  0  0  0  0
   17.9964   73.9188   20.0690 C   0  0  0  0  0  0
   18.9915   70.9814   18.1165 C   0  0  0  0  0  0
   19.5785   70.0097   20.8323 C   0  0  0  0  0  0
   19.9502   70.2741   17.3710 C   0  0  0  0  0  0
   18.8970   74.0576   17.8435 C   0  0  0  0  0  0
   19.0405   74.6618   16.8701 N   0  0  0  0  0  0
   19.5448   69.2186   16.5651 C   0  0  0  0  0  0
   17.6407   70.6055   18.0376 C   0  0  0  0  0  0
   20.6406   69.6338   21.3031 O   0  0  0  0  0  0
   18.2116   68.8413   16.5071 C   0  0  0  0  0  0
   21.6451   70.6071   17.4658 Cl  0  0  0  0  0  0
   17.2582   69.5099   17.2703 C   0  0  0  0  0  0
   18.6416   69.1942   20.4140 O   0  0  0  0  0  0
   18.0315   71.5652   22.9375 C   0  0  0  0  0  0
   17.8382   67.8579   15.6700 F   0  0  0  0  0  0
   17.3149   75.2741   20.0686 C   0  0  0  0  0  0
   18.7628   67.7972   20.4577 C   0  0  0  0  0  0
   18.6345   72.4267   24.0703 C   0  0  0  0  0  0
   18.4468   73.9614   24.0542 C   0  0  0  0  0  0
   20.4569   72.1631   19.1232 H   0  0  0  0  0  0
   17.1967   73.6365   21.9360 H   0  0  0  0  0  0
   20.2800   68.6644   16.0138 H   0  0  0  0  0  0
   16.8982   71.1071   18.6429 H   0  0  0  0  0  0
   16.2239   69.2029   17.2386 H   0  0  0  0  0  0
   16.9521   71.4618   23.0087 H   0  0  0  0  0  0
   18.3533   70.5391   23.0758 H   0  0  0  0  0  0
   17.4423   75.8184   19.1386 H   0  0  0  0  0  0
   16.2463   75.1700   20.2472 H   0  0  0  0  0  0
   17.7341   75.8898   20.8642 H   0  0  0  0  0  0
   17.8411   67.2614   20.5750 H   0  0  0  0  0  0
   19.0410   67.4574   19.4678 H   0  0  0  0  0  0
   19.4388   67.4616   21.2528 H   0  0  0  0  0  0
   18.2414   72.0481   25.0160 H   0  0  0  0  0  0
   19.7094   72.2595   24.0698 H   0  0  0  0  0  0
   18.6411   74.3915   25.0358 H   0  0  0  0  0  0
   19.1338   74.4359   23.3527 H   0  0  0  0  0  0
   17.4440   74.2721   23.7867 H   0  0  0  0  0  0
  1  2  1  0  0  0
  1  4  2  0  0  0
  1  8  1  0  0  0
  2  3  1  0  0  0
  2  7  1  0  0  0
  2 25  1  0  0  0
  3  6  2  0  0  0
  3 10  1  0  0  0
  4  5  1  0  0  0
  4 19  1  0  0  0
  5  6  1  0  0  0
  5 26  1  0  0  0
  6 21  1  0  0  0
  7  9  2  0  0  0
  7 13  1  0  0  0
  8 14  2  0  0  0
  8 18  1  0  0  0
  9 12  1  0  0  0
  9 16  1  0  0  0
 10 11  3  0  0  0
 12 15  2  0  0  0
 12 27  1  0  0  0
 13 17  2  0  0  0
 13 28  1  0  0  0
 15 17  1  0  0  0
 15 20  1  0  0  0
 17 29  1  0  0  0
 18 22  1  0  0  0
 19 23  1  0  0  0
 19 30  1  0  0  0
 19 31  1  0  0  0
 21 32  1  0  0  0
 21 33  1  0  0  0
 21 34  1  0  0  0
 22 35  1  0  0  0
 22 36  1  0  0  0
 22 37  1  0  0  0
 23 24  1  0  0  0
 23 38  1  0  0  0
 23 39  1  0  0  0
 24 40  1  0  0  0
 24 41  1  0  0  0
 24 42  1  0  0  0
M  END
> <s_m_entry_id>
9789

> <s_m_entry_name>
dock_pv.229

> <s_m_Source_Path>
/home/csk/Desktop/cluster/DUD-E-result/mcr

> <s_m_Source_File>
dock_pv.maegz

> <i_m_Source_File_Index>
229

> <chembl_id>
CHEMBL1215549

> <chembl_pref_name>
None

> <i_lp_mmshare_version>
53161

> <i_f3d_flags>
0

> <r_lp_tautomer_probability>
1

> <s_lp_Force_Field>
OPLS_2005

> <r_lp_Energy>
14.549671

> <b_lp_Chiralities_Consistent>
1

> <s_lp_Variant>
CHEMBL1994_lig257-1

> <s_i_glide_gridfile>
glide-grid_2aa2

> <i_i_glide_lignum>
434

> <i_i_glide_rotatable_bonds>
5

> <r_i_docking_score>
-7.33979519484059

> <r_i_glide_ligand_efficiency>
-0.305824799785025

> <r_i_glide_ligand_efficiency_sa>
-0.882151371224094

> <r_i_glide_ligand_efficiency_ln>
-1.75674979138058

> <r_i_glide_gscore>
-7.33979519484059

> <r_i_glide_lipo>
-3.44523007655766

> <r_i_glide_hbond>
-0.0622154213622468

> <r_i_glide_metal>
0

> <r_i_glide_rewards>
-2.38389296664179

> <r_i_glide_evdw>
-21.7107353210449

> <r_i_glide_ecoul>
-5.07122611999512

> <r_i_glide_erotb>
0.469527051620972

> <r_i_glide_esite>
-0.0717630978483544

> <r_i_glide_emodel>
-29.8633247047936

> <r_i_glide_energy>
-26.78196144104

> <r_i_glide_einternal>
12.4307136535645

> <i_i_glide_confnum>
7

> <i_i_glide_posenum>
169

> <r_i_glide_eff_state_penalty>
0

> <s_user_duplicate_titles>
CHEMBL1994_lig257

> <s_m_subgroup_title>
dock_pv

> <s_m_subgroupid>
dock_pv

> <b_m_subgroup_collapsed>
1

$$$$
CHEMBL1994_lig113
                    3D
 Schrodinger Suite 2021-1.
 52 53  0  0  1  0            999 V2000
   19.4321   69.3323   20.2484 C   0  0  0  0  0  0
   19.4435   70.6883   20.9899 C   0  0  2  0  0  0
   20.2409   70.2620   22.0700 O   0  0  0  0  0  0
   18.1338   71.1919   21.6729 C   0  0  0  0  0  0
   20.3132   71.7556   20.2659 C   0  0  0  0  0  0
   17.1383   71.4914   20.8467 F   0  0  0  0  0  0
   17.6608   70.2620   22.4700 F   0  0  0  0  0  0
   18.3426   72.2329   22.4767 F   0  0  0  0  0  0
   19.7083   72.9643   19.4798 C   0  0  0  0  0  0
   19.1271   74.0330   20.4702 C   0  0  0  0  0  0
   20.9016   73.4695   18.6282 C   0  0  0  0  0  0
   18.6640   72.5591   18.4062 C   0  0  0  0  0  0
   17.9496   75.6649   22.4668 C   0  0  0  0  0  0
   17.1690   75.1205   21.4578 C   0  0  0  0  0  0
   17.7494   74.3327   20.4710 C   0  0  0  0  0  0
   19.3188   75.4404   22.4632 C   0  0  0  0  0  0
   19.9173   74.6594   21.4632 C   0  0  0  0  0  0
   21.2775   74.4903   21.4878 O   0  0  0  0  0  0
   22.0230   75.6989   21.4913 C   0  0  0  0  0  0
   15.8410   75.3539   21.4372 F   0  0  0  0  0  0
   18.6750   69.3607   19.0014 N   0  0  0  0  0  0
   17.9263   68.1224   18.8650 C   0  0  0  0  0  0
   16.8252   68.3441   17.8197 C   0  0  0  0  0  0
   17.4619   68.6620   16.4698 C   0  0  0  0  0  0
   18.6421   69.6305   16.5177 C   0  0  0  0  0  0
   19.4934   69.4960   17.7792 C   0  0  0  0  0  0
   17.0409   68.2620   15.3907 O   0  0  0  0  0  0
   20.4642   69.0619   20.0251 H   0  0  0  0  0  0
   19.0355   68.5613   20.9143 H   0  0  0  0  0  0
   19.7417   69.6676   22.6346 H   0  0  0  0  0  0
   20.9765   71.1904   19.6135 H   0  0  0  0  0  0
   21.0408   72.1748   20.9564 H   0  0  0  0  0  0
   21.6352   72.7110   18.3516 H   0  0  0  0  0  0
   20.5701   73.8620   17.6700 H   0  0  0  0  0  0
   21.4410   74.2614   19.1345 H   0  0  0  0  0  0
   19.1575   72.0548   17.5945 H   0  0  0  0  0  0
   17.8651   71.9124   18.7500 H   0  0  0  0  0  0
   18.2049   73.4311   17.9382 H   0  0  0  0  0  0
   17.4940   76.2638   23.2415 H   0  0  0  0  0  0
   17.0709   73.9124   19.7501 H   0  0  0  0  0  0
   19.9174   75.8618   23.2553 H   0  0  0  0  0  0
   23.0410   75.4534   21.2311 H   0  0  0  0  0  0
   21.6595   76.4173   20.7542 H   0  0  0  0  0  0
   22.0331   76.1724   22.4716 H   0  0  0  0  0  0
   18.6088   67.2869   18.6757 H   0  0  0  0  0  0
   17.4410   67.8618   19.7931 H   0  0  0  0  0  0
   16.1680   67.4850   17.7421 H   0  0  0  0  0  0
   16.1964   69.1847   18.1138 H   0  0  0  0  0  0
   18.2408   70.6341   16.4701 H   0  0  0  0  0  0
   19.2590   69.4969   15.6298 H   0  0  0  0  0  0
   20.1848   70.3299   17.8431 H   0  0  0  0  0  0
   20.1445   68.6620   17.5799 H   0  0  0  0  0  0
  1 21  1  0  0  0
  1  2  1  0  0  0
  1 28  1  0  0  0
  1 29  1  0  0  0
  2  4  1  0  0  0
  2  5  1  0  0  0
  2  3  1  0  0  0
  3 30  1  0  0  0
  4  7  1  0  0  0
  4  8  1  0  0  0
  4  6  1  0  0  0
  5  9  1  0  0  0
  5 31  1  0  0  0
  5 32  1  0  0  0
  9 10  1  0  0  0
  9 11  1  0  0  0
  9 12  1  0  0  0
 10 15  1  0  0  0
 10 17  2  0  0  0
 11 33  1  0  0  0
 11 34  1  0  0  0
 11 35  1  0  0  0
 12 36  1  0  0  0
 12 37  1  0  0  0
 12 38  1  0  0  0
 13 14  1  0  0  0
 13 16  2  0  0  0
 13 39  1  0  0  0
 14 15  2  0  0  0
 14 20  1  0  0  0
 15 40  1  0  0  0
 16 17  1  0  0  0
 16 41  1  0  0  0
 17 18  1  0  0  0
 18 19  1  0  0  0
 19 42  1  0  0  0
 19 43  1  0  0  0
 19 44  1  0  0  0
 21 22  1  0  0  0
 21 26  1  0  0  0
 22 23  1  0  0  0
 22 45  1  0  0  0
 22 46  1  0  0  0
 23 24  1  0  0  0
 23 47  1  0  0  0
 23 48  1  0  0  0
 24 25  1  0  0  0
 24 27  2  0  0  0
 25 26  1  0  0  0
 25 49  1  0  0  0
 25 50  1  0  0  0
 26 51  1  0  0  0
 26 52  1  0  0  0
M  END
> <s_m_entry_id>
9790

> <s_m_entry_name>
dock_pv.230

> <s_m_Source_Path>
/home/csk/Desktop/cluster/DUD-E-result/mcr

> <s_m_Source_File>
dock_pv.maegz

> <i_m_Source_File_Index>
230

> <chembl_id>
CHEMBL218778

> <chembl_pref_name>
None

> <i_lp_mmshare_version>
53161

> <i_f3d_flags>
0

> <r_lp_tautomer_probability>
0.99999998

> <s_lp_Force_Field>
OPLS_2005

> <r_lp_Energy>
40.862517

> <b_lp_Chiralities_Consistent>
1

> <s_lp_Variant>
CHEMBL1994_lig113-2

> <s_i_glide_gridfile>
glide-grid_2aa2

> <i_i_glide_lignum>
179

> <i_i_glide_rotatable_bonds>
8

> <r_i_docking_score>
-7.33039349419936

> <r_i_glide_ligand_efficiency>
-0.271496055340717

> <r_i_glide_ligand_efficiency_sa>
-0.814488165127345

> <r_i_glide_ligand_efficiency_ln>
-1.70639475446784

> <r_i_glide_gscore>
-7.33039349419936

> <r_i_glide_lipo>
-4.48522009273136

> <r_i_glide_hbond>
-0.32

> <r_i_glide_metal>
0

> <r_i_glide_rewards>
-1.99104286245133

> <r_i_glide_evdw>
-14.3741273880005

> <r_i_glide_ecoul>
-2.16635894775391

> <r_i_glide_erotb>
0.509529672546431

> <r_i_glide_esite>
0

> <r_i_glide_emodel>
-26.9846517578979

> <r_i_glide_energy>
-16.5404863357544

> <r_i_glide_einternal>
7.19622468948364

> <i_i_glide_confnum>
22

> <i_i_glide_posenum>
323

> <r_i_glide_eff_state_penalty>
0

> <s_user_duplicate_titles>
CHEMBL1994_lig113

> <s_m_subgroup_title>
dock_pv

> <s_m_subgroupid>
dock_pv

> <b_m_subgroup_collapsed>
1

$$$$
CHEMBL1994_lig787
                    3D
 Schrodinger Suite 2021-1.
 38 40  0  0  1  0            999 V2000
   18.1831   74.4798   19.0495 C   0  0  0  0  0  0
   17.5636   74.0441   20.2447 O   0  0  0  0  0  0
   17.5715   74.9201   21.3062 C   0  0  0  0  0  0
   16.3353   75.2257   21.8408 C   0  0  0  0  0  0
   16.2417   76.0078   22.9877 C   0  0  0  0  0  0
   17.3625   76.5338   23.5981 C   0  0  0  0  0  0
   18.6022   76.2604   23.0534 C   0  0  0  0  0  0
   18.7252   75.4512   21.9133 C   0  0  0  0  0  0
   20.0184   75.1201   21.4683 N   0  0  0  0  0  0
   20.9147   76.0944   21.2704 N   0  0  0  0  0  0
   22.0233   75.4751   20.9844 C   0  0  0  0  0  0
   21.8408   74.1058   20.8711 C   0  0  0  0  0  0
   20.5367   73.8652   21.1988 C   0  0  0  0  0  0
   19.8009   72.5940   21.2684 C   0  0  0  0  0  0
   19.0394   72.3362   22.4090 C   0  0  0  0  0  0
   18.2577   71.1974   22.4280 C   0  0  0  0  0  0
   18.2412   70.3086   21.4074 N   0  0  0  0  0  0
   18.9675   70.5605   20.2913 C   0  0  0  0  0  0
   18.7466   69.6342   19.2598 N   0  0  0  0  0  0
   19.0524   69.7317   17.9526 C   0  0  0  0  0  0
   19.6296   70.6651   17.4061 O   0  0  0  0  0  0
   18.6730   68.6611   17.2576 N   0  0  0  0  0  0
   19.7938   71.6922   20.1988 C   0  0  0  0  0  0
   17.8421   73.8506   18.2300 H   0  0  0  0  0  0
   17.8407   75.4826   18.8695 H   0  0  0  0  0  0
   19.2709   74.4936   19.0582 H   0  0  0  0  0  0
   15.4405   74.8079   21.4064 H   0  0  0  0  0  0
   15.2746   76.2451   23.4035 H   0  0  0  0  0  0
   17.2617   77.1672   24.4654 H   0  0  0  0  0  0
   19.4410   76.6637   23.5718 H   0  0  0  0  0  0
   22.9519   76.0114   20.8736 H   0  0  0  0  0  0
   22.5879   73.3713   20.6179 H   0  0  0  0  0  0
   19.0120   73.0240   23.2434 H   0  0  0  0  0  0
   17.6027   71.0297   23.2669 H   0  0  0  0  0  0
   18.2332   68.8163   19.5414 H   0  0  0  0  0  0
   18.9205   68.6305   16.2818 H   0  0  0  0  0  0
   18.2087   67.8785   17.6911 H   0  0  0  0  0  0
   20.3789   71.9118   19.3192 H   0  0  0  0  0  0
  1  2  1  0  0  0
  1 24  1  0  0  0
  1 25  1  0  0  0
  1 26  1  0  0  0
  2  3  1  0  0  0
  3  4  2  0  0  0
  3  8  1  0  0  0
  4  5  1  0  0  0
  4 27  1  0  0  0
  5  6  2  0  0  0
  5 28  1  0  0  0
  6  7  1  0  0  0
  6 29  1  0  0  0
  7  8  2  0  0  0
  7 30  1  0  0  0
  8  9  1  0  0  0
  9 10  1  0  0  0
  9 13  1  0  0  0
 10 11  2  0  0  0
 11 12  1  0  0  0
 11 31  1  0  0  0
 12 13  2  0  0  0
 12 32  1  0  0  0
 13 14  1  0  0  0
 14 15  2  0  0  0
 14 23  1  0  0  0
 15 16  1  0  0  0
 15 33  1  0  0  0
 16 17  2  0  0  0
 16 34  1  0  0  0
 17 18  1  0  0  0
 18 19  1  0  0  0
 18 23  2  0  0  0
 19 20  1  0  0  0
 19 35  1  0  0  0
 20 21  2  0  0  0
 20 22  1  0  0  0
 22 36  1  0  0  0
 22 37  1  0  0  0
 23 38  1  0  0  0
M  END
> <s_m_entry_id>
9791

> <s_m_entry_name>
dock_pv.231

> <s_m_Source_Path>
/home/csk/Desktop/cluster/DUD-E-result/mcr

> <s_m_Source_File>
dock_pv.maegz

> <i_m_Source_File_Index>
231

> <chembl_id>
CHEMBL3643653

> <chembl_pref_name>
None

> <i_lp_mmshare_version>
53161

> <i_f3d_flags>
0

> <r_lp_tautomer_probability>
1

> <s_lp_Force_Field>
OPLS_2005

> <r_lp_Energy>
18.809925

> <b_lp_Chiralities_Consistent>
1

> <s_lp_Variant>
CHEMBL1994_lig787-1

> <s_i_glide_gridfile>
glide-grid_2aa2

> <i_i_glide_lignum>
1203

> <i_i_glide_rotatable_bonds>
5

> <r_i_docking_score>
-7.29128649759112

> <r_i_glide_ligand_efficiency>
-0.317012456417005

> <r_i_glide_ligand_efficiency_sa>
-0.901541256063696

> <r_i_glide_ligand_efficiency_ln>
-1.7630991888482

> <r_i_glide_gscore>
-7.29128649759112

> <r_i_glide_lipo>
-3.39001332465914

> <r_i_glide_hbond>
-0.150056109267105

> <r_i_glide_metal>
0

> <r_i_glide_rewards>
-2.54135355817075

> <r_i_glide_evdw>
-29.2474060058594

> <r_i_glide_ecoul>
-2.18669033050537

> <r_i_glide_erotb>
0.580510344374651

> <r_i_glide_esite>
0

> <r_i_glide_emodel>
-31.8490100556037

> <r_i_glide_energy>
-31.4340963363647

> <r_i_glide_einternal>
12.7414770126343

> <i_i_glide_confnum>
38

> <i_i_glide_posenum>
122

> <r_i_glide_eff_state_penalty>
0

> <s_user_duplicate_titles>
CHEMBL1994_lig787

> <s_m_subgroup_title>
dock_pv

> <s_m_subgroupid>
dock_pv

> <b_m_subgroup_collapsed>
1

$$$$
CHEMBL1994_lig249
                    3D
 Schrodinger Suite 2021-1.
 42 43  0  0  1  0            999 V2000
   18.9524   72.9412   19.3683 C   0  0  0  0  0  0
   19.3210   71.4321   19.4245 C   0  0  1  0  0  0
   18.8946   70.8481   20.7508 C   0  0  0  0  0  0
   18.3387   73.6046   20.3959 C   0  0  0  0  0  0
   17.9972   72.9034   21.5113 N   0  0  0  0  0  0
   18.2575   71.5802   21.6787 C   0  0  0  0  0  0
   19.3478   73.5348   18.1111 C   0  0  0  0  0  0
   18.7895   70.5575   18.2709 C   0  0  0  0  0  0
   19.0405   69.4398   20.8699 C   0  0  0  0  0  0
   19.0421   68.2884   20.8629 N   0  0  0  0  0  0
   19.6556   69.9286   17.3589 C   0  0  0  0  0  0
   20.2408   73.0326   17.4435 O   0  0  0  0  0  0
   18.6410   74.6078   17.7626 O   0  0  0  0  0  0
   18.0053   75.0848   20.5975 C   0  0  0  0  0  0
   21.3537   70.2612   17.3251 Cl  0  0  0  0  0  0
   17.6722   71.0639   22.9229 C   0  0  0  0  0  0
   17.4202   70.2496   18.2360 C   0  0  0  0  0  0
   19.1521   68.9822   16.4704 C   0  0  0  0  0  0
   18.6497   75.1830   16.4701 C   0  0  0  0  0  0
   18.9565   75.7866   21.6002 C   0  0  0  0  0  0
   16.9275   69.3014   17.3458 C   0  0  0  0  0  0
   20.4616   75.5806   21.3256 C   0  0  0  0  0  0
   17.7986   68.6623   16.4693 C   0  0  0  0  0  0
   20.4085   71.3622   19.4313 H   0  0  0  0  0  0
   17.4184   73.3579   22.2060 H   0  0  0  0  0  0
   17.9503   75.6482   19.6789 H   0  0  0  0  0  0
   16.9825   75.1618   20.9709 H   0  0  0  0  0  0
   17.7063   69.9797   22.8699 H   0  0  0  0  0  0
   18.2380   71.4624   23.7672 H   0  0  0  0  0  0
   16.6426   71.4243   22.9844 H   0  0  0  0  0  0
   16.7404   70.7094   18.9406 H   0  0  0  0  0  0
   19.8204   68.4732   15.7957 H   0  0  0  0  0  0
   18.4331   76.2487   16.5327 H   0  0  0  0  0  0
   19.6039   75.0679   15.9619 H   0  0  0  0  0  0
   17.8405   74.7403   15.8973 H   0  0  0  0  0  0
   18.7401   76.8546   21.6251 H   0  0  0  0  0  0
   18.7372   75.4218   22.6059 H   0  0  0  0  0  0
   15.8769   69.0496   17.3538 H   0  0  0  0  0  0
   21.0647   75.8702   22.1849 H   0  0  0  0  0  0
   20.7110   74.5380   21.1282 H   0  0  0  0  0  0
   20.7927   76.1684   20.4708 H   0  0  0  0  0  0
   17.4269   67.9187   15.7855 H   0  0  0  0  0  0
  1  2  1  0  0  0
  1  4  2  0  0  0
  1  7  1  0  0  0
  2  3  1  0  0  0
  2  8  1  0  0  0
  2 24  1  0  0  0
  3  6  2  0  0  0
  3  9  1  0  0  0
  4  5  1  0  0  0
  4 14  1  0  0  0
  5  6  1  0  0  0
  5 25  1  0  0  0
  6 16  1  0  0  0
  7 12  2  0  0  0
  7 13  1  0  0  0
  8 11  2  0  0  0
  8 17  1  0  0  0
  9 10  3  0  0  0
 11 15  1  0  0  0
 11 18  1  0  0  0
 13 19  1  0  0  0
 14 20  1  0  0  0
 14 26  1  0  0  0
 14 27  1  0  0  0
 16 28  1  0  0  0
 16 29  1  0  0  0
 16 30  1  0  0  0
 17 21  2  0  0  0
 17 31  1  0  0  0
 18 23  2  0  0  0
 18 32  1  0  0  0
 19 33  1  0  0  0
 19 34  1  0  0  0
 19 35  1  0  0  0
 20 22  1  0  0  0
 20 36  1  0  0  0
 20 37  1  0  0  0
 21 23  1  0  0  0
 21 38  1  0  0  0
 22 39  1  0  0  0
 22 40  1  0  0  0
 22 41  1  0  0  0
 23 42  1  0  0  0
M  END
> <s_m_entry_id>
9792

> <s_m_entry_name>
dock_pv.232

> <s_m_Source_Path>
/home/csk/Desktop/cluster/DUD-E-result/mcr

> <s_m_Source_File>
dock_pv.maegz

> <i_m_Source_File_Index>
232

> <chembl_id>
CHEMBL1215406

> <chembl_pref_name>
None

> <i_lp_mmshare_version>
53161

> <i_f3d_flags>
0

> <r_lp_tautomer_probability>
1

> <s_lp_Force_Field>
OPLS_2005

> <r_lp_Energy>
15.08156

> <b_lp_Chiralities_Consistent>
1

> <s_lp_Variant>
CHEMBL1994_lig249-2

> <s_i_glide_gridfile>
glide-grid_2aa2

> <i_i_glide_lignum>
419

> <i_i_glide_rotatable_bonds>
5

> <r_i_docking_score>
-7.2858019436044

> <r_i_glide_ligand_efficiency>
-0.316773997548017

> <r_i_glide_ligand_efficiency_sa>
-0.900863110760837

> <r_i_glide_ligand_efficiency_ln>
-1.76177297396303

> <r_i_glide_gscore>
-7.2858019436044

> <r_i_glide_lipo>
-4.15787217914351

> <r_i_glide_hbond>
-0.131520842528919

> <r_i_glide_metal>
0

> <r_i_glide_rewards>
-2.41547710539463

> <r_i_glide_evdw>
-19.5089149475098

> <r_i_glide_ecoul>
-0.808141529560089

> <r_i_glide_erotb>
0.515735160272161

> <r_i_glide_esite>
0

> <r_i_glide_emodel>
-30.5691772183708

> <r_i_glide_energy>
-20.3170564770699

> <r_i_glide_einternal>
7.52968502044678

> <i_i_glide_confnum>
11

> <i_i_glide_posenum>
7

> <r_i_glide_eff_state_penalty>
0

> <s_user_duplicate_titles>
CHEMBL1994_lig249,687269

> <s_m_subgroup_title>
dock_pv

> <s_m_subgroupid>
dock_pv

> <b_m_subgroup_collapsed>
1

$$$$
CHEMBL1994_lig252
                    3D
 Schrodinger Suite 2021-1.
 40 41  0  0  1  0            999 V2000
   18.8513   72.9327   19.4459 C   0  0  0  0  0  0
   19.2661   71.4329   19.4787 C   0  0  1  0  0  0
   18.8229   70.8167   20.7777 C   0  0  0  0  0  0
   18.1232   73.5459   20.4343 C   0  0  0  0  0  0
   17.7398   72.7938   21.5132 N   0  0  0  0  0  0
   18.0723   71.4818   21.6706 C   0  0  0  0  0  0
   19.3129   73.5532   18.2220 C   0  0  0  0  0  0
   18.7608   70.5633   18.3010 C   0  0  0  0  0  0
   19.0176   69.4126   20.8700 C   0  0  0  0  0  0
   19.0410   68.2620   20.8700 N   0  0  0  0  0  0
   19.6449   69.9400   17.3999 C   0  0  0  0  0  0
   20.2410   73.0620   17.5956 O   0  0  0  0  0  0
   17.6091   74.9911   20.5634 C   0  0  0  0  0  0
   18.6410   74.6333   17.8533 O   0  0  0  0  0  0
   21.3456   70.2620   17.4090 Cl  0  0  0  0  0  0
   17.4785   70.8392   22.8567 C   0  0  0  0  0  0
   17.3937   70.2472   18.2344 C   0  0  0  0  0  0
   18.4974   75.8152   21.3175 O   0  0  0  0  0  0
   19.1608   68.9990   16.4909 C   0  0  0  0  0  0
   18.6490   75.1600   16.5383 C   0  0  0  0  0  0
   18.4122   75.6905   22.7325 C   0  0  0  0  0  0
   16.9236   69.2933   17.3360 C   0  0  0  0  0  0
   17.8115   68.6620   16.4700 C   0  0  0  0  0  0
   20.3554   71.3831   19.4967 H   0  0  0  0  0  0
   17.1427   73.2112   22.2176 H   0  0  0  0  0  0
   17.4418   75.4798   19.6114 H   0  0  0  0  0  0
   16.6117   74.9938   21.0108 H   0  0  0  0  0  0
   18.2410   70.2054   23.2700 H   0  0  0  0  0  0
   17.1438   71.4623   23.6701 H   0  0  0  0  0  0
   16.6411   70.2620   22.4700 H   0  0  0  0  0  0
   16.6971   70.6989   18.9270 H   0  0  0  0  0  0
   19.8410   68.4957   15.8248 H   0  0  0  0  0  0
   18.3913   76.2184   16.5368 H   0  0  0  0  0  0
   19.6101   75.0620   16.0424 H   0  0  0  0  0  0
   17.8589   74.6620   15.9873 H   0  0  0  0  0  0
   19.0409   76.4474   23.2002 H   0  0  0  0  0  0
   17.3930   75.8434   23.0911 H   0  0  0  0  0  0
   18.7647   74.7180   23.0761 H   0  0  0  0  0  0
   15.8755   69.0330   17.3276 H   0  0  0  0  0  0
   17.4545   67.9169   15.7798 H   0  0  0  0  0  0
  1  2  1  0  0  0
  1  4  2  0  0  0
  1  7  1  0  0  0
  2  3  1  0  0  0
  2  8  1  0  0  0
  2 24  1  0  0  0
  3  6  2  0  0  0
  3  9  1  0  0  0
  4  5  1  0  0  0
  4 13  1  0  0  0
  5  6  1  0  0  0
  5 25  1  0  0  0
  6 16  1  0  0  0
  7 12  2  0  0  0
  7 14  1  0  0  0
  8 11  2  0  0  0
  8 17  1  0  0  0
  9 10  3  0  0  0
 11 15  1  0  0  0
 11 19  1  0  0  0
 13 18  1  0  0  0
 13 26  1  0  0  0
 13 27  1  0  0  0
 14 20  1  0  0  0
 16 28  1  0  0  0
 16 29  1  0  0  0
 16 30  1  0  0  0
 17 22  2  0  0  0
 17 31  1  0  0  0
 18 21  1  0  0  0
 19 23  2  0  0  0
 19 32  1  0  0  0
 20 33  1  0  0  0
 20 34  1  0  0  0
 20 35  1  0  0  0
 21 36  1  0  0  0
 21 37  1  0  0  0
 21 38  1  0  0  0
 22 23  1  0  0  0
 22 39  1  0  0  0
 23 40  1  0  0  0
M  END
> <s_m_entry_id>
9793

> <s_m_entry_name>
dock_pv.233

> <s_m_Source_Path>
/home/csk/Desktop/cluster/DUD-E-result/mcr

> <s_m_Source_File>
dock_pv.maegz

> <i_m_Source_File_Index>
233

> <chembl_id>
CHEMBL1215481

> <chembl_pref_name>
None

> <i_lp_mmshare_version>
53161

> <i_f3d_flags>
0

> <r_lp_tautomer_probability>
1

> <s_lp_Force_Field>
OPLS_2005

> <r_lp_Energy>
14.565618

> <b_lp_Chiralities_Consistent>
1

> <s_lp_Variant>
CHEMBL1994_lig252-2

> <s_i_glide_gridfile>
glide-grid_2aa2

> <i_i_glide_lignum>
425

> <i_i_glide_rotatable_bonds>
5

> <r_i_docking_score>
-7.2771321092579

> <r_i_glide_ligand_efficiency>
-0.316397048228604

> <r_i_glide_ligand_efficiency_sa>
-0.899791117039401

> <r_i_glide_ligand_efficiency_ln>
-1.75967652940433

> <r_i_glide_gscore>
-7.2771321092579

> <r_i_glide_lipo>
-3.92878508937228

> <r_i_glide_hbond>
-0.313745200315567

> <r_i_glide_metal>
0

> <r_i_glide_rewards>
-2.33964984156998

> <r_i_glide_evdw>
-20.0958461761475

> <r_i_glide_ecoul>
-1.33666920661926

> <r_i_glide_erotb>
0.510340711800192

> <r_i_glide_esite>
0

> <r_i_glide_emodel>
-33.3059801357418

> <r_i_glide_energy>
-21.4325153827667

> <r_i_glide_einternal>
4.59592437744141

> <i_i_glide_confnum>
6

> <i_i_glide_posenum>
308

> <r_i_glide_eff_state_penalty>
0

> <s_user_duplicate_titles>
CHEMBL1994_lig252,687346

> <s_m_subgroup_title>
dock_pv

> <s_m_subgroupid>
dock_pv

> <b_m_subgroup_collapsed>
1

$$$$
CHEMBL1994_lig24
                    3D
 Schrodinger Suite 2021-1.
 41 44  0  0  1  0            999 V2000
   19.1408   72.2514   19.7193 C   0  0  0  0  0  0
   19.0857   73.5793   19.0394 C   0  0  0  0  0  0
   18.9650   72.2095   21.1136 C   0  0  0  0  0  0
   19.2894   71.0358   19.0091 C   0  0  0  0  0  0
   19.7825   70.9190   17.6389 C   0  0  0  0  0  0
   18.9151   73.5069   21.8529 C   0  0  0  0  0  0
   19.4410   74.6619   19.7695 O   0  0  0  0  0  0
   18.9401   69.8312   19.6114 C   0  0  0  0  0  0
   18.6410   68.6919   18.8138 N   0  0  0  0  0  0
   19.1208   74.6833   21.1116 C   0  0  0  0  0  0
   19.2797   69.9719   16.8423 C   0  0  0  0  0  0
   18.4146   68.8259   17.3498 C   0  0  0  0  0  0
   18.8257   70.9674   21.7411 C   0  0  0  0  0  0
   18.6410   73.7136   17.7763 C   0  0  0  0  0  0
   18.7819   69.8018   20.9812 C   0  0  0  0  0  0
   18.6410   73.6237   23.2228 C   0  0  0  0  0  0
   18.9997   75.9361   21.7073 C   0  0  0  0  0  0
   18.5062   74.8796   23.8141 C   0  0  0  0  0  0
   18.6410   75.2940   16.5825 Br  0  0  0  0  0  0
   21.0182   71.6895   17.2511 C   0  0  0  0  0  0
   18.6674   76.0337   23.0564 C   0  0  0  0  0  0
   18.2165   74.9825   25.1277 F   0  0  0  0  0  0
   19.0362   67.6253   16.6248 C   0  0  0  0  0  0
   16.9130   69.0772   17.1265 C   0  0  0  0  0  0
   18.2563   67.8515   19.2234 H   0  0  0  0  0  0
   19.6491   69.9076   15.8303 H   0  0  0  0  0  0
   18.6949   70.8908   22.8086 H   0  0  0  0  0  0
   18.2087   72.8731   17.2700 H   0  0  0  0  0  0
   18.6372   68.8434   21.4365 H   0  0  0  0  0  0
   18.4773   72.7559   23.8419 H   0  0  0  0  0  0
   19.1518   76.8311   21.1242 H   0  0  0  0  0  0
   21.6968   71.8151   18.0959 H   0  0  0  0  0  0
   21.5455   71.1428   16.4700 H   0  0  0  0  0  0
   20.7516   72.6620   16.8700 H   0  0  0  0  0  0
   18.5597   77.0009   23.5256 H   0  0  0  0  0  0
   18.9559   67.7225   15.5424 H   0  0  0  0  0  0
   20.0843   67.5845   16.8700 H   0  0  0  0  0  0
   18.6410   66.6620   16.8698 H   0  0  0  0  0  0
   16.6559   69.0620   16.0700 H   0  0  0  0  0  0
   16.3113   68.3007   17.6017 H   0  0  0  0  0  0
   16.5942   70.0355   17.5401 H   0  0  0  0  0  0
  1  2  1  0  0  0
  1  3  2  0  0  0
  1  4  1  0  0  0
  2  7  1  0  0  0
  2 14  2  0  0  0
  3  6  1  0  0  0
  3 13  1  0  0  0
  4  5  1  0  0  0
  4  8  2  0  0  0
  5 11  2  0  0  0
  5 20  1  0  0  0
  6 10  1  0  0  0
  6 16  2  0  0  0
  7 10  1  0  0  0
  8  9  1  0  0  0
  8 15  1  0  0  0
  9 12  1  0  0  0
  9 25  1  0  0  0
 10 17  2  0  0  0
 11 12  1  0  0  0
 11 26  1  0  0  0
 12 23  1  0  0  0
 12 24  1  0  0  0
 13 15  2  0  0  0
 13 27  1  0  0  0
 14 19  1  0  0  0
 14 28  1  0  0  0
 15 29  1  0  0  0
 16 18  1  0  0  0
 16 30  1  0  0  0
 17 21  1  0  0  0
 17 31  1  0  0  0
 18 21  2  0  0  0
 18 22  1  0  0  0
 20 32  1  0  0  0
 20 33  1  0  0  0
 20 34  1  0  0  0
 21 35  1  0  0  0
 23 36  1  0  0  0
 23 37  1  0  0  0
 23 38  1  0  0  0
 24 39  1  0  0  0
 24 40  1  0  0  0
 24 41  1  0  0  0
M  END
> <s_m_entry_id>
9794

> <s_m_entry_name>
dock_pv.234

> <s_m_Source_Path>
/home/csk/Desktop/cluster/DUD-E-result/mcr

> <s_m_Source_File>
dock_pv.maegz

> <i_m_Source_File_Index>
234

> <chembl_id>
CHEMBL62700

> <chembl_pref_name>
None

> <i_lp_mmshare_version>
53161

> <i_f3d_flags>
0

> <r_lp_tautomer_probability>
1

> <s_lp_Force_Field>
OPLS_2005

> <r_lp_Energy>
34.668316

> <b_lp_Chiralities_Consistent>
1

> <s_lp_Variant>
CHEMBL1994_lig24-1

> <s_i_glide_gridfile>
glide-grid_2aa2

> <i_i_glide_lignum>
25

> <i_i_glide_rotatable_bonds>
0

> <r_i_docking_score>
-7.25422405990702

> <r_i_glide_ligand_efficiency>
-0.302259335829459

> <r_i_glide_ligand_efficiency_sa>
-0.871866793519267

> <r_i_glide_ligand_efficiency_ln>
-1.73626869218746

> <r_i_glide_gscore>
-7.25422405990702

> <r_i_glide_lipo>
-4.35084430575115

> <r_i_glide_hbond>
0

> <r_i_glide_metal>
0

> <r_i_glide_rewards>
-1.81605960223078

> <r_i_glide_evdw>
-20.8708114624023

> <r_i_glide_ecoul>
-0.291863858699799

> <r_i_glide_erotb>
0

> <r_i_glide_esite>
0

> <r_i_glide_emodel>
-53.0906433262842

> <r_i_glide_energy>
-21.1626753211021

> <r_i_glide_einternal>
0

> <i_i_glide_confnum>
1

> <i_i_glide_posenum>
177

> <r_i_glide_eff_state_penalty>
0

> <s_user_duplicate_titles>
CHEMBL1994_lig24

> <s_m_subgroup_title>
dock_pv

> <s_m_subgroupid>
dock_pv

> <b_m_subgroup_collapsed>
1

$$$$
CHEMBL1994_lig957 
                    3D
 Schrodinger Suite 2021-1.
 40 43  0  0  1  0            999 V2000
   17.2966   68.6613   16.2177 C   0  0  0  0  0  0
   16.6746   69.0774   17.3947 C   0  0  0  0  0  0
   17.4465   69.6894   18.3783 C   0  0  0  0  0  0
   18.6409   68.7641   16.0255 C   0  0  0  0  0  0
   19.3681   69.4639   16.9393 C   0  0  0  0  0  0
   18.8213   69.9162   18.1530 C   0  0  0  0  0  0
   19.6516   70.7102   18.9839 N   0  0  0  0  0  0
   21.0411   70.9896   18.5379 C   0  0  2  0  0  0
   21.0408   71.0100   17.0015 C   0  0  0  0  0  0
   20.6131   69.7708   16.4922 O   0  0  0  0  0  0
   19.2800   71.0088   20.2632 C   0  0  0  0  0  0
   19.3529   72.4421   20.7180 C   0  0  0  0  0  0
   18.7290   70.1951   21.0076 O   0  0  0  0  0  0
   20.5704   73.1347   20.8302 C   0  0  0  0  0  0
   20.6117   74.4405   21.3017 C   0  0  0  0  0  0
   18.1617   73.0746   21.1236 C   0  0  0  0  0  0
   18.2046   74.3681   21.6398 C   0  0  0  0  0  0
   19.4258   75.0228   21.7152 C   0  0  0  0  0  0
   19.4412   76.2620   22.2806 O   0  0  0  0  0  0
   18.6405   76.3533   23.4759 C   0  0  0  0  0  0
   17.1878   75.8945   23.2393 C   0  0  0  0  0  0
   17.1040   75.0088   22.2231 N   0  0  0  0  0  0
   16.2409   76.2990   23.8982 O   0  0  0  0  0  0
   22.0408   69.8896   18.9128 C   0  0  0  0  0  0
   16.6409   68.2618   15.1331 F   0  0  0  0  0  0
   15.6110   68.9814   17.5390 H   0  0  0  0  0  0
   16.9488   70.0467   19.2698 H   0  0  0  0  0  0
   19.0410   68.4598   15.0791 H   0  0  0  0  0  0
   21.4008   71.9660   18.8326 H   0  0  0  0  0  0
   20.4712   71.8506   16.6052 H   0  0  0  0  0  0
   22.0601   71.0620   16.6395 H   0  0  0  0  0  0
   21.5152   72.6623   20.6273 H   0  0  0  0  0  0
   21.5506   74.9648   21.4079 H   0  0  0  0  0  0
   17.2193   72.5439   21.0986 H   0  0  0  0  0  0
   18.6381   77.3638   23.8819 H   0  0  0  0  0  0
   19.0393   75.6744   24.2290 H   0  0  0  0  0  0
   16.1797   74.6182   22.1099 H   0  0  0  0  0  0
   23.0414   70.2991   18.9016 H   0  0  0  0  0  0
   21.8440   69.4619   19.8975 H   0  0  0  0  0  0
   22.0387   69.0626   18.2202 H   0  0  0  0  0  0
  1  2  2  0  0  0
  1  4  1  0  0  0
  1 25  1  0  0  0
  2  3  1  0  0  0
  2 26  1  0  0  0
  3  6  2  0  0  0
  3 27  1  0  0  0
  4  5  2  0  0  0
  4 28  1  0  0  0
  5  6  1  0  0  0
  5 10  1  0  0  0
  6  7  1  0  0  0
  7  8  1  0  0  0
  7 11  1  0  0  0
  8  9  1  0  0  0
  8 24  1  0  0  0
  8 29  1  0  0  0
  9 10  1  0  0  0
  9 30  1  0  0  0
  9 31  1  0  0  0
 11 12  1  0  0  0
 11 13  2  0  0  0
 12 14  2  0  0  0
 12 16  1  0  0  0
 14 15  1  0  0  0
 14 32  1  0  0  0
 15 18  2  0  0  0
 15 33  1  0  0  0
 16 17  2  0  0  0
 16 34  1  0  0  0
 17 18  1  0  0  0
 17 22  1  0  0  0
 18 19  1  0  0  0
 19 20  1  0  0  0
 20 21  1  0  0  0
 20 35  1  0  0  0
 20 36  1  0  0  0
 21 22  1  0  0  0
 21 23  2  0  0  0
 22 37  1  0  0  0
 24 38  1  0  0  0
 24 39  1  0  0  0
 24 40  1  0  0  0
M  END
> <s_m_entry_id>
9795

> <s_m_entry_name>
dock_pv.235

> <s_m_Source_Path>
/home/csk/Desktop/cluster/DUD-E-result/mcr

> <s_m_Source_File>
dock_pv.maegz

> <i_m_Source_File_Index>
235

> <chembl_id>
CHEMBL4557032

> <chembl_pref_name>
None

> <i_lp_mmshare_version>
53161

> <i_f3d_flags>
0

> <r_lp_tautomer_probability>
1

> <s_lp_Force_Field>
OPLS_2005

> <r_lp_Energy>
48.809188

> <b_lp_Chiralities_Consistent>
1

> <s_lp_Variant>
CHEMBL1994_lig957 -1

> <s_i_glide_gridfile>
glide-grid_2aa2

> <i_i_glide_lignum>
1399

> <i_i_glide_rotatable_bonds>
2

> <r_i_docking_score>
-7.243536016335

> <r_i_glide_ligand_efficiency>
-0.2897414406534

> <r_i_glide_ligand_efficiency_sa>
-0.847209111056872

> <r_i_glide_ligand_efficiency_ln>
-1.71693510712923

> <r_i_glide_gscore>
-7.243536016335

> <r_i_glide_lipo>
-3.67610603577362

> <r_i_glide_hbond>
-0.300072562178901

> <r_i_glide_metal>
0

> <r_i_glide_rewards>
-1.2681810576959

> <r_i_glide_evdw>
-29.7873935699463

> <r_i_glide_ecoul>
-5.23105764389038

> <r_i_glide_erotb>
0.3236120967046

> <r_i_glide_esite>
-0.0487601323103177

> <r_i_glide_emodel>
-30.6060161720981

> <r_i_glide_energy>
-35.0184512138367

> <r_i_glide_einternal>
2.49979853630066

> <i_i_glide_confnum>
21

> <i_i_glide_posenum>
245

> <r_i_glide_eff_state_penalty>
0

> <s_user_duplicate_titles>
CHEMBL1994_lig957 

> <s_m_subgroup_title>
dock_pv

> <s_m_subgroupid>
dock_pv

> <b_m_subgroup_collapsed>
1

$$$$
CHEMBL1994_lig782
                    3D
 Schrodinger Suite 2021-1.
 34 36  0  0  1  0            999 V2000
   17.1046   68.6620   17.5505 N   0  0  0  0  0  0
   18.2189   69.0670   16.9514 C   0  0  0  0  0  0
   18.6410   68.4705   15.9668 O   0  0  0  0  0  0
   18.8456   70.1588   17.4503 N   0  0  0  0  0  0
   18.5941   70.9162   18.6195 C   0  0  0  0  0  0
   19.5205   71.9134   18.9450 C   0  0  0  0  0  0
   19.3748   72.6020   20.1576 C   0  0  0  0  0  0
   18.3591   72.2397   21.0364 C   0  0  0  0  0  0
   17.4410   71.3023   20.6205 C   0  0  0  0  0  0
   17.5284   70.6620   19.4311 N   0  0  0  0  0  0
   20.3016   73.6813   20.5453 C   0  0  0  0  0  0
   21.6547   73.7056   20.4700 C   0  0  0  0  0  0
   22.0610   74.8978   21.0586 C   0  0  0  0  0  0
   21.0713   75.6359   21.4199 N   0  0  0  0  0  0
   20.0094   74.8651   21.1845 N   0  0  0  0  0  0
   18.8219   75.2377   21.7736 C   0  0  0  0  0  0
   18.8680   75.5408   23.1339 C   0  0  0  0  0  0
   17.7041   75.8617   23.7826 C   0  0  0  0  0  0
   16.5364   75.8620   23.0551 C   0  0  0  0  0  0
   15.4410   76.2620   23.6701 F   0  0  0  0  0  0
   16.4612   75.4620   21.7297 C   0  0  0  0  0  0
   17.6312   75.1877   21.0532 C   0  0  0  0  0  0
   16.7391   69.2019   18.3223 H   0  0  0  0  0  0
   16.7871   67.7142   17.3979 H   0  0  0  0  0  0
   19.6713   70.4351   16.9431 H   0  0  0  0  0  0
   20.3459   72.1440   18.2864 H   0  0  0  0  0  0
   18.2489   72.6957   22.0097 H   0  0  0  0  0  0
   16.6286   71.0620   21.2795 H   0  0  0  0  0  0
   22.2410   72.9035   20.0700 H   0  0  0  0  0  0
   23.0410   75.2483   21.2604 H   0  0  0  0  0  0
   19.8021   75.5165   23.6700 H   0  0  0  0  0  0
   17.6836   76.0806   24.8349 H   0  0  0  0  0  0
   15.5069   75.4255   21.2388 H   0  0  0  0  0  0
   17.6089   74.9152   20.0075 H   0  0  0  0  0  0
  1  2  1  0  0  0
  1 23  1  0  0  0
  1 24  1  0  0  0
  2  3  2  0  0  0
  2  4  1  0  0  0
  4  5  1  0  0  0
  4 25  1  0  0  0
  5  6  2  0  0  0
  5 10  1  0  0  0
  6  7  1  0  0  0
  6 26  1  0  0  0
  7  8  2  0  0  0
  7 11  1  0  0  0
  8  9  1  0  0  0
  8 27  1  0  0  0
  9 10  2  0  0  0
  9 28  1  0  0  0
 11 12  2  0  0  0
 11 15  1  0  0  0
 12 13  1  0  0  0
 12 29  1  0  0  0
 13 14  2  0  0  0
 13 30  1  0  0  0
 14 15  1  0  0  0
 15 16  1  0  0  0
 16 17  2  0  0  0
 16 22  1  0  0  0
 17 18  1  0  0  0
 17 31  1  0  0  0
 18 19  2  0  0  0
 18 32  1  0  0  0
 19 20  1  0  0  0
 19 21  1  0  0  0
 21 22  2  0  0  0
 21 33  1  0  0  0
 22 34  1  0  0  0
M  END
> <s_m_entry_id>
9796

> <s_m_entry_name>
dock_pv.236

> <s_m_Source_Path>
/home/csk/Desktop/cluster/DUD-E-result/mcr

> <s_m_Source_File>
dock_pv.maegz

> <i_m_Source_File_Index>
236

> <chembl_id>
CHEMBL3643648

> <chembl_pref_name>
None

> <i_lp_mmshare_version>
53161

> <i_f3d_flags>
0

> <r_lp_tautomer_probability>
1

> <s_lp_Force_Field>
OPLS_2005

> <r_lp_Energy>
10.352397

> <b_lp_Chiralities_Consistent>
1

> <s_lp_Variant>
CHEMBL1994_lig782-1

> <s_i_glide_gridfile>
glide-grid_2aa2

> <i_i_glide_lignum>
1198

> <i_i_glide_rotatable_bonds>
4

> <r_i_docking_score>
-7.2083289625063

> <r_i_glide_ligand_efficiency>
-0.327651316477559

> <r_i_glide_ligand_efficiency_sa>
-0.918091874565183

> <r_i_glide_ligand_efficiency_ln>
-1.76197852862393

> <r_i_glide_gscore>
-7.2083289625063

> <r_i_glide_lipo>
-3.48721580329053

> <r_i_glide_hbond>
-0.273634560967067

> <r_i_glide_metal>
0

> <r_i_glide_rewards>
-1.96687796172303

> <r_i_glide_evdw>
-26.5890483856201

> <r_i_glide_ecoul>
-5.05146837234497

> <r_i_glide_erotb>
0.622310106798698

> <r_i_glide_esite>
-0.0157380681916268

> <r_i_glide_emodel>
-33.6825102054107

> <r_i_glide_energy>
-31.6405167579651

> <r_i_glide_einternal>
0.924034595489502

> <i_i_glide_confnum>
4

> <i_i_glide_posenum>
198

> <r_i_glide_eff_state_penalty>
0

> <s_user_duplicate_titles>
CHEMBL1994_lig782

> <s_m_subgroup_title>
dock_pv

> <s_m_subgroupid>
dock_pv

> <b_m_subgroup_collapsed>
1

$$$$
CHEMBL1994_lig815
                    3D
 Schrodinger Suite 2021-1.
 46 48  0  0  1  0            999 V2000
   18.4471   68.2550   19.4806 C   0  0  0  0  0  0
   18.7981   69.5780   20.1470 C   0  0  0  0  0  0
   19.8160   69.5073   21.0636 C   0  0  0  0  0  0
   19.8411   70.4400   22.0697 C   0  0  0  0  0  0
   18.8313   71.3753   22.2564 C   0  0  0  0  0  0
   17.8807   71.5032   21.2635 C   0  0  0  0  0  0
   18.0264   70.7674   20.0863 C   0  0  0  0  0  0
   17.4849   71.3779   18.7880 C   0  0  1  0  0  0
   18.0523   72.8004   18.3890 C   0  0  0  0  0  0
   18.5855   73.7019   19.4904 C   0  0  0  0  0  0
   19.9499   73.7049   19.8069 C   0  0  0  0  0  0
   20.3732   74.4121   20.9323 C   0  0  0  0  0  0
   19.5088   75.0490   21.7594 N   0  0  0  0  0  0
   18.1790   75.0250   21.4485 C   0  0  0  0  0  0
   17.1787   75.4625   22.3280 N   0  0  0  0  0  0
   17.2527   76.0022   23.5556 C   0  0  0  0  0  0
   16.2411   76.2622   24.1868 O   0  0  0  0  0  0
   18.4438   76.2620   24.0698 N   0  0  0  0  0  0
   17.7013   74.4340   20.2813 C   0  0  0  0  0  0
   17.7365   70.4243   17.6546 C   0  0  0  0  0  0
   16.7059   69.5786   17.2698 C   0  0  0  0  0  0
   16.9982   68.5495   16.3955 C   0  0  0  0  0  0
   18.2926   68.3592   15.9151 C   0  0  0  0  0  0
   19.3167   69.2220   16.2816 C   0  0  0  0  0  0
   19.0392   70.2613   17.1508 C   0  0  0  0  0  0
   17.3848   68.1714   19.2691 H   0  0  0  0  0  0
   19.0403   68.0798   18.5918 H   0  0  0  0  0  0
   18.6398   67.4247   20.1601 H   0  0  0  0  0  0
   20.4884   68.6619   21.1029 H   0  0  0  0  0  0
   20.5976   70.2625   22.8218 H   0  0  0  0  0  0
   18.8067   72.0095   23.1309 H   0  0  0  0  0  0
   17.1343   72.2748   21.3555 H   0  0  0  0  0  0
   16.4094   71.4523   18.9432 H   0  0  0  0  0  0
   18.8650   72.7492   17.6706 H   0  0  0  0  0  0
   17.2851   73.3254   17.8368 H   0  0  0  0  0  0
   20.6609   73.1435   19.2186 H   0  0  0  0  0  0
   21.4163   74.4317   21.2145 H   0  0  0  0  0  0
   16.2371   75.2962   22.0095 H   0  0  0  0  0  0
   18.4683   76.7465   24.9644 H   0  0  0  0  0  0
   19.2822   75.9906   23.5796 H   0  0  0  0  0  0
   16.6416   74.4098   20.0723 H   0  0  0  0  0  0
   15.7155   69.6703   17.6917 H   0  0  0  0  0  0
   16.2109   67.8622   16.1392 H   0  0  0  0  0  0
   18.5225   67.5241   15.2798 H   0  0  0  0  0  0
   20.3321   69.0611   15.9546 H   0  0  0  0  0  0
   19.8603   70.8692   17.5014 H   0  0  0  0  0  0
  1  2  1  0  0  0
  1 26  1  0  0  0
  1 27  1  0  0  0
  1 28  1  0  0  0
  2  3  2  0  0  0
  2  7  1  0  0  0
  3  4  1  0  0  0
  3 29  1  0  0  0
  4  5  2  0  0  0
  4 30  1  0  0  0
  5  6  1  0  0  0
  5 31  1  0  0  0
  6  7  2  0  0  0
  6 32  1  0  0  0
  7  8  1  0  0  0
  8  9  1  0  0  0
  8 20  1  0  0  0
  8 33  1  0  0  0
  9 10  1  0  0  0
  9 34  1  0  0  0
  9 35  1  0  0  0
 10 11  2  0  0  0
 10 19  1  0  0  0
 11 12  1  0  0  0
 11 36  1  0  0  0
 12 13  2  0  0  0
 12 37  1  0  0  0
 13 14  1  0  0  0
 14 15  1  0  0  0
 14 19  2  0  0  0
 15 16  1  0  0  0
 15 38  1  0  0  0
 16 17  2  0  0  0
 16 18  1  0  0  0
 18 39  1  0  0  0
 18 40  1  0  0  0
 19 41  1  0  0  0
 20 21  2  0  0  0
 20 25  1  0  0  0
 21 22  1  0  0  0
 21 42  1  0  0  0
 22 23  2  0  0  0
 22 43  1  0  0  0
 23 24  1  0  0  0
 23 44  1  0  0  0
 24 25  2  0  0  0
 24 45  1  0  0  0
 25 46  1  0  0  0
M  END
> <s_m_entry_id>
9797

> <s_m_entry_name>
dock_pv.237

> <s_m_Source_Path>
/home/csk/Desktop/cluster/DUD-E-result/mcr

> <s_m_Source_File>
dock_pv.maegz

> <i_m_Source_File_Index>
237

> <chembl_id>
CHEMBL3643680

> <chembl_pref_name>
None

> <i_lp_mmshare_version>
53161

> <i_f3d_flags>
0

> <r_lp_tautomer_probability>
1

> <s_lp_Force_Field>
OPLS_2005

> <r_lp_Energy>
15.254572

> <b_lp_Chiralities_Consistent>
1

> <s_lp_Variant>
CHEMBL1994_lig815-2

> <s_i_glide_gridfile>
glide-grid_2aa2

> <i_i_glide_lignum>
1240

> <i_i_glide_rotatable_bonds>
6

> <r_i_docking_score>
-7.1979129803583

> <r_i_glide_ligand_efficiency>
-0.287916519214332

> <r_i_glide_ligand_efficiency_sa>
-0.841873008403918

> <r_i_glide_ligand_efficiency_ln>
-1.70612108039069

> <r_i_glide_gscore>
-7.1979129803583

> <r_i_glide_lipo>
-4.33477929461454

> <r_i_glide_hbond>
-0.59729374223078

> <r_i_glide_metal>
0

> <r_i_glide_rewards>
-1.35132172617943

> <r_i_glide_evdw>
-20.8491268157959

> <r_i_glide_ecoul>
-4.8590612411499

> <r_i_glide_erotb>
0.856797309628732

> <r_i_glide_esite>
0

> <r_i_glide_emodel>
-35.3776730099617

> <r_i_glide_energy>
-25.7081880569458

> <r_i_glide_einternal>
13.2609062194824

> <i_i_glide_confnum>
3

> <i_i_glide_posenum>
192

> <r_i_glide_eff_state_penalty>
0

> <s_user_duplicate_titles>
CHEMBL1994_lig815

> <s_m_subgroup_title>
dock_pv

> <s_m_subgroupid>
dock_pv

> <b_m_subgroup_collapsed>
1

$$$$
CHEMBL1994_lig806
                    3D
 Schrodinger Suite 2021-1.
 37 38  0  0  1  0            999 V2000
   16.1299   68.4836   17.9897 C   0  0  0  0  0  0
   17.2744   69.4320   17.8934 C   0  0  0  0  0  0
   18.5400   68.9796   17.5263 C   0  0  0  0  0  0
   19.6078   69.8667   17.5493 C   0  0  0  0  0  0
   19.3898   71.1887   17.9417 C   0  0  0  0  0  0
   18.0989   71.6426   18.2341 C   0  0  0  0  0  0
   17.0409   70.7595   18.2065 C   0  0  0  0  0  0
   20.5760   72.1028   18.1748 C   0  0  1  0  0  0
   20.2412   73.4620   18.0699 O   0  0  0  0  0  0
   21.1436   71.8949   19.5832 C   0  0  0  0  0  0
   20.1327   72.1518   20.6949 C   0  0  0  0  0  0
   19.4408   71.0799   21.2710 C   0  0  0  0  0  0
   18.5036   71.3515   22.2621 C   0  0  0  0  0  0
   18.2411   72.6064   22.6907 N   0  0  0  0  0  0
   18.8996   73.6501   22.1152 C   0  0  0  0  0  0
   18.5817   74.9718   22.4514 N   0  0  0  0  0  0
   18.2429   75.4199   23.6700 C   0  0  0  0  0  0
   18.2407   74.7651   24.7059 O   0  0  0  0  0  0
   17.9461   76.7108   23.6699 N   0  0  0  0  0  0
   19.8564   73.4561   21.1197 C   0  0  0  0  0  0
   16.1258   67.8636   17.0967 H   0  0  0  0  0  0
   16.2553   67.8619   18.8699 H   0  0  0  0  0  0
   15.1824   69.0212   18.0700 H   0  0  0  0  0  0
   18.7016   67.9402   17.2773 H   0  0  0  0  0  0
   20.6036   69.5149   17.3212 H   0  0  0  0  0  0
   17.9193   72.6627   18.5421 H   0  0  0  0  0  0
   16.0474   71.0869   18.4698 H   0  0  0  0  0  0
   21.3377   71.8926   17.4225 H   0  0  0  0  0  0
   20.9626   73.9751   18.4378 H   0  0  0  0  0  0
   21.5012   70.8687   19.6687 H   0  0  0  0  0  0
   22.0191   72.5276   19.7325 H   0  0  0  0  0  0
   19.6191   70.0634   20.9503 H   0  0  0  0  0  0
   17.9416   70.5581   22.7312 H   0  0  0  0  0  0
   18.7958   75.6659   21.7552 H   0  0  0  0  0  0
   17.8406   77.1625   24.5744 H   0  0  0  0  0  0
   17.7594   77.2140   22.8175 H   0  0  0  0  0  0
   20.3638   74.2983   20.6731 H   0  0  0  0  0  0
  1  2  1  0  0  0
  1 21  1  0  0  0
  1 22  1  0  0  0
  1 23  1  0  0  0
  2  3  2  0  0  0
  2  7  1  0  0  0
  3  4  1  0  0  0
  3 24  1  0  0  0
  4  5  2  0  0  0
  4 25  1  0  0  0
  5  6  1  0  0  0
  5  8  1  0  0  0
  6  7  2  0  0  0
  6 26  1  0  0  0
  7 27  1  0  0  0
  8  9  1  0  0  0
  8 10  1  0  0  0
  8 28  1  0  0  0
  9 29  1  0  0  0
 10 11  1  0  0  0
 10 30  1  0  0  0
 10 31  1  0  0  0
 11 12  2  0  0  0
 11 20  1  0  0  0
 12 13  1  0  0  0
 12 32  1  0  0  0
 13 14  2  0  0  0
 13 33  1  0  0  0
 14 15  1  0  0  0
 15 16  1  0  0  0
 15 20  2  0  0  0
 16 17  1  0  0  0
 16 34  1  0  0  0
 17 18  2  0  0  0
 17 19  1  0  0  0
 19 35  1  0  0  0
 19 36  1  0  0  0
 20 37  1  0  0  0
M  END
> <s_m_entry_id>
9798

> <s_m_entry_name>
dock_pv.238

> <s_m_Source_Path>
/home/csk/Desktop/cluster/DUD-E-result/mcr

> <s_m_Source_File>
dock_pv.maegz

> <i_m_Source_File_Index>
238

> <chembl_id>
CHEMBL3643671

> <chembl_pref_name>
None

> <i_lp_mmshare_version>
53161

> <i_f3d_flags>
0

> <r_lp_tautomer_probability>
1

> <s_lp_Force_Field>
OPLS_2005

> <r_lp_Energy>
9.588703

> <b_lp_Chiralities_Consistent>
1

> <s_lp_Variant>
CHEMBL1994_lig806-2

> <s_i_glide_gridfile>
glide-grid_2aa2

> <i_i_glide_lignum>
1223

> <i_i_glide_rotatable_bonds>
6

> <r_i_docking_score>
-7.19765795830923

> <r_i_glide_ligand_efficiency>
-0.359882897915462

> <r_i_glide_ligand_efficiency_sa>
-0.976872477037473

> <r_i_glide_ligand_efficiency_ln>
-1.80133639231722

> <r_i_glide_gscore>
-7.19765795830923

> <r_i_glide_lipo>
-3.71222742193975

> <r_i_glide_hbond>
-0.32

> <r_i_glide_metal>
0

> <r_i_glide_rewards>
-2.36079043919006

> <r_i_glide_evdw>
-33.2502288818359

> <r_i_glide_ecoul>
-0.766010820865631

> <r_i_glide_erotb>
0.972772970042216

> <r_i_glide_esite>
0

> <r_i_glide_emodel>
-48.016640856672

> <r_i_glide_energy>
-34.0162397027016

> <r_i_glide_einternal>
1.90100479125977

> <i_i_glide_confnum>
10

> <i_i_glide_posenum>
161

> <r_i_glide_eff_state_penalty>
0

> <s_user_duplicate_titles>
CHEMBL1994_lig806

> <s_m_subgroup_title>
dock_pv

> <s_m_subgroupid>
dock_pv

> <b_m_subgroup_collapsed>
1

$$$$
CHEMBL1994_lig199
                    3D
 Schrodinger Suite 2021-1.
 40 40  0  0  1  0            999 V2000
   20.2885   71.1059   18.6166 C   0  0  0  0  0  0
   19.0357   70.5540   18.2581 C   0  0  0  0  0  0
   17.8730   71.0386   18.8705 C   0  0  0  0  0  0
   17.9478   72.0597   19.8166 C   0  0  0  0  0  0
   19.1843   72.6105   20.1613 C   0  0  0  0  0  0
   20.3347   72.1219   19.5644 C   0  0  0  0  0  0
   21.6187   70.6711   18.0158 C   0  0  0  0  0  0
   22.6399   71.4604   18.3607 F   0  0  0  0  0  0
   21.9045   69.4625   18.4657 F   0  0  0  0  0  0
   21.5102   70.6596   16.6922 F   0  0  0  0  0  0
   18.8910   69.4931   17.2621 C   0  0  0  0  0  0
   18.7722   68.6575   16.4689 N   0  0  0  0  0  0
   19.3014   73.6409   21.1062 N   0  0  0  0  0  0
   18.7023   73.6390   22.4299 C   0  0  1  0  0  0
   17.6907   74.8311   22.4962 C   0  0  0  0  0  0
   20.0801   74.8228   20.6755 C   0  0  0  0  0  0
   21.3087   75.2089   21.5183 C   0  0  0  0  0  0
   21.0418   75.4619   22.7966 F   0  0  0  0  0  0
   22.2407   74.2621   21.4770 F   0  0  0  0  0  0
   21.8409   76.3110   21.0071 F   0  0  0  0  0  0
   17.6077   75.5476   23.6446 N   0  0  0  0  0  0
   16.9796   75.0659   21.5107 O   0  0  0  0  0  0
   16.6610   76.6484   23.8085 C   0  0  0  0  0  0
   18.1301   75.0638   24.9144 C   0  0  0  0  0  0
   18.1188   72.2884   22.9265 C   0  0  0  0  0  0
   16.9007   70.6342   18.6215 H   0  0  0  0  0  0
   17.0443   72.4262   20.2836 H   0  0  0  0  0  0
   21.2837   72.5437   19.8594 H   0  0  0  0  0  0
   19.5366   73.7900   23.1032 H   0  0  0  0  0  0
   20.4463   74.6612   19.6700 H   0  0  0  0  0  0
   19.4152   75.6813   20.5753 H   0  0  0  0  0  0
   17.1391   77.5013   24.2881 H   0  0  0  0  0  0
   16.2429   76.9961   22.8701 H   0  0  0  0  0  0
   15.8397   76.3230   24.4391 H   0  0  0  0  0  0
   17.4700   74.2770   25.2699 H   0  0  0  0  0  0
   19.1335   74.6618   24.8407 H   0  0  0  0  0  0
   18.1652   75.8600   25.6545 H   0  0  0  0  0  0
   17.8427   72.3305   23.9805 H   0  0  0  0  0  0
   17.2266   71.9717   22.3897 H   0  0  0  0  0  0
   18.8556   71.4905   22.8315 H   0  0  0  0  0  0
  1  6  1  0  0  0
  1  2  2  0  0  0
  1  7  1  0  0  0
  2 11  1  0  0  0
  2  3  1  0  0  0
  3  4  2  0  0  0
  3 26  1  0  0  0
  4  5  1  0  0  0
  4 27  1  0  0  0
  5 13  1  0  0  0
  5  6  2  0  0  0
  6 28  1  0  0  0
  7  8  1  0  0  0
  7  9  1  0  0  0
  7 10  1  0  0  0
 11 12  3  0  0  0
 13 14  1  0  0  0
 13 16  1  0  0  0
 14 15  1  0  0  0
 14 25  1  0  0  0
 14 29  1  0  0  0
 15 21  1  0  0  0
 15 22  2  0  0  0
 16 17  1  0  0  0
 16 30  1  0  0  0
 16 31  1  0  0  0
 17 18  1  0  0  0
 17 19  1  0  0  0
 17 20  1  0  0  0
 21 23  1  0  0  0
 21 24  1  0  0  0
 23 32  1  0  0  0
 23 33  1  0  0  0
 23 34  1  0  0  0
 24 35  1  0  0  0
 24 36  1  0  0  0
 24 37  1  0  0  0
 25 38  1  0  0  0
 25 39  1  0  0  0
 25 40  1  0  0  0
M  END
> <s_m_entry_id>
9799

> <s_m_entry_name>
dock_pv.239

> <s_m_Source_Path>
/home/csk/Desktop/cluster/DUD-E-result/mcr

> <s_m_Source_File>
dock_pv.maegz

> <i_m_Source_File_Index>
239

> <chembl_id>
CHEMBL549725

> <chembl_pref_name>
None

> <i_lp_mmshare_version>
53161

> <i_f3d_flags>
0

> <r_lp_tautomer_probability>
1

> <s_lp_Force_Field>
OPLS_2005

> <r_lp_Energy>
29.173509

> <b_lp_Chiralities_Consistent>
1

> <s_lp_Variant>
CHEMBL1994_lig199-2

> <s_i_glide_gridfile>
glide-grid_2aa2

> <i_i_glide_lignum>
337

> <i_i_glide_rotatable_bonds>
7

> <r_i_docking_score>
-7.18921622168144

> <r_i_glide_ligand_efficiency>
-0.287568648867258

> <r_i_glide_ligand_efficiency_sa>
-0.840855829339565

> <r_i_glide_ligand_efficiency_ln>
-1.70405968796345

> <r_i_glide_gscore>
-7.18921622168144

> <r_i_glide_lipo>
-2.77082268993523

> <r_i_glide_hbond>
0

> <r_i_glide_metal>
0

> <r_i_glide_rewards>
-3.04632656880696

> <r_i_glide_evdw>
-34.6559181213379

> <r_i_glide_ecoul>
-1.30741000175476

> <r_i_glide_erotb>
0.570993944047226

> <r_i_glide_esite>
-0.0141535006563694

> <r_i_glide_emodel>
-42.2786614153429

> <r_i_glide_energy>
-35.9633281230927

> <r_i_glide_einternal>
4.48597049713135

> <i_i_glide_confnum>
62

> <i_i_glide_posenum>
83

> <r_i_glide_eff_state_penalty>
0

> <s_user_duplicate_titles>
CHEMBL1994_lig199

> <s_m_subgroup_title>
dock_pv

> <s_m_subgroupid>
dock_pv

> <b_m_subgroup_collapsed>
1

$$$$
CHEMBL1994_lig247
                    3D
 Schrodinger Suite 2021-1.
 36 37  0  0  1  0            999 V2000
   18.6991   71.3058   20.5475 C   0  0  0  0  0  0
   19.1218   71.9399   19.2066 C   0  0  2  0  0  0
   18.5062   73.3441   19.0515 C   0  0  0  0  0  0
   18.0247   71.9789   21.5032 C   0  0  0  0  0  0
   17.6172   73.2704   21.2635 N   0  0  0  0  0  0
   17.8409   73.9395   20.0770 C   0  0  0  0  0  0
   19.1804   69.9490   20.7762 C   0  0  0  0  0  0
   18.9744   70.9728   18.0264 C   0  0  0  0  0  0
   18.7737   74.0508   17.8326 C   0  0  0  0  0  0
   19.0341   74.6506   16.8699 N   0  0  0  0  0  0
   20.1035   70.4839   17.3504 C   0  0  0  0  0  0
   18.7068   68.9512   20.2300 O   0  0  0  0  0  0
   20.2402   69.9538   21.5621 O   0  0  0  0  0  0
   17.6796   71.4620   22.8846 C   0  0  0  0  0  0
   21.7052   71.0599   17.6670 Cl  0  0  0  0  0  0
   17.2958   75.3536   20.0896 C   0  0  0  0  0  0
   17.7313   70.3498   17.8170 C   0  0  0  0  0  0
   19.9680   69.4195   16.4705 C   0  0  0  0  0  0
   21.0410   68.8024   21.6694 C   0  0  0  0  0  0
   17.6308   69.2174   17.0080 C   0  0  0  0  0  0
   18.7490   68.7638   16.3157 C   0  0  0  0  0  0
   20.1817   72.1376   19.3497 H   0  0  0  0  0  0
   17.0003   73.6926   21.9441 H   0  0  0  0  0  0
   18.2409   70.5843   23.1812 H   0  0  0  0  0  0
   17.8442   72.2253   23.6450 H   0  0  0  0  0  0
   16.6413   71.1652   22.8780 H   0  0  0  0  0  0
   17.4406   75.8583   19.1385 H   0  0  0  0  0  0
   16.2302   75.3640   20.3147 H   0  0  0  0  0  0
   17.8170   75.9349   20.8510 H   0  0  0  0  0  0
   16.8640   70.6739   18.3751 H   0  0  0  0  0  0
   20.8475   69.0624   15.9623 H   0  0  0  0  0  0
   21.5860   68.8549   22.6072 H   0  0  0  0  0  0
   20.4832   67.8662   21.6500 H   0  0  0  0  0  0
   21.7709   68.8271   20.8701 H   0  0  0  0  0  0
   16.6843   68.7058   16.9123 H   0  0  0  0  0  0
   18.6820   67.8987   15.6762 H   0  0  0  0  0  0
  1  2  1  0  0  0
  1  4  2  0  0  0
  1  7  1  0  0  0
  2  3  1  0  0  0
  2  8  1  0  0  0
  2 22  1  0  0  0
  3  6  2  0  0  0
  3  9  1  0  0  0
  4  5  1  0  0  0
  4 14  1  0  0  0
  5  6  1  0  0  0
  5 23  1  0  0  0
  6 16  1  0  0  0
  7 12  2  0  0  0
  7 13  1  0  0  0
  8 11  2  0  0  0
  8 17  1  0  0  0
  9 10  3  0  0  0
 11 15  1  0  0  0
 11 18  1  0  0  0
 13 19  1  0  0  0
 14 24  1  0  0  0
 14 25  1  0  0  0
 14 26  1  0  0  0
 16 27  1  0  0  0
 16 28  1  0  0  0
 16 29  1  0  0  0
 17 20  2  0  0  0
 17 30  1  0  0  0
 18 21  2  0  0  0
 18 31  1  0  0  0
 19 32  1  0  0  0
 19 33  1  0  0  0
 19 34  1  0  0  0
 20 21  1  0  0  0
 20 35  1  0  0  0
 21 36  1  0  0  0
M  END
> <s_m_entry_id>
9800

> <s_m_entry_name>
dock_pv.240

> <s_m_Source_Path>
/home/csk/Desktop/cluster/DUD-E-result/mcr

> <s_m_Source_File>
dock_pv.maegz

> <i_m_Source_File_Index>
240

> <chembl_id>
CHEMBL1215404

> <chembl_pref_name>
None

> <i_lp_mmshare_version>
53161

> <i_f3d_flags>
0

> <r_lp_tautomer_probability>
1

> <s_lp_Force_Field>
OPLS_2005

> <r_lp_Energy>
14.85296

> <b_lp_Chiralities_Consistent>
1

> <s_lp_Variant>
CHEMBL1994_lig247-1

> <s_i_glide_gridfile>
glide-grid_2aa2

> <i_i_glide_lignum>
414

> <i_i_glide_rotatable_bonds>
3

> <r_i_docking_score>
-7.1675785256798

> <r_i_glide_ligand_efficiency>
-0.34131326312761

> <r_i_glide_ligand_efficiency_sa>
-0.94165741240666

> <r_i_glide_ligand_efficiency_ln>
-1.77216930701818

> <r_i_glide_gscore>
-7.1675785256798

> <r_i_glide_lipo>
-3.35614611684727

> <r_i_glide_hbond>
-0.125020166283928

> <r_i_glide_metal>
0

> <r_i_glide_rewards>
-2.58288108470398

> <r_i_glide_evdw>
-23.0948696136475

> <r_i_glide_ecoul>
-2.33758044242859

> <r_i_glide_erotb>
0.401849389202041

> <r_i_glide_esite>
0

> <r_i_glide_emodel>
-31.5193248938171

> <r_i_glide_energy>
-25.432450056076

> <r_i_glide_einternal>
10.3082256317139

> <i_i_glide_confnum>
4

> <i_i_glide_posenum>
338

> <r_i_glide_eff_state_penalty>
0

> <s_user_duplicate_titles>
CHEMBL1994_lig247,687267

> <s_m_subgroup_title>
dock_pv

> <s_m_subgroupid>
dock_pv

> <b_m_subgroup_collapsed>
1

$$$$
CHEMBL1994_lig988
                    3D
 Schrodinger Suite 2021-1.
 46 48  0  0  1  0            999 V2000
   20.1370   75.4623   22.9287 C   0  0  0  0  0  0
   21.4410   75.4565   22.4697 C   0  0  0  0  0  0
   21.7322   75.0221   21.1980 C   0  0  0  0  0  0
   20.6862   74.6597   20.3720 C   0  0  0  0  0  0
   19.3467   74.8299   20.7521 C   0  0  0  0  0  0
   19.0701   75.3100   22.0569 C   0  0  0  0  0  0
   17.7048   75.6904   22.6509 C   0  0  0  0  0  0
   17.5171   75.0622   23.8084 F   0  0  0  0  0  0
   17.7532   76.9848   22.9539 F   0  0  0  0  0  0
   16.6514   75.4614   21.8707 F   0  0  0  0  0  0
   18.2720   74.3494   19.7641 C   0  0  0  0  0  0
   17.8586   72.9483   20.0032 N   0  0  0  0  0  0
   18.0116   72.4666   21.4044 C   0  0  1  0  0  0
   18.1402   71.9818   18.9951 C   0  0  0  0  0  0
   17.1404   71.3090   21.8941 C   0  0  0  0  0  0
   18.1714   70.2682   22.1997 C   0  0  0  0  0  0
   19.2926   70.5202   21.3469 N   0  0  1  0  0  0
   19.4499   71.9278   21.6232 C   0  0  0  0  0  0
   20.4502   69.6658   21.5258 C   0  0  0  0  0  0
   17.1934   70.9948   18.7515 C   0  0  0  0  0  0
   17.4524   69.8894   17.9612 C   0  0  0  0  0  0
   18.6801   69.7834   17.3063 C   0  0  0  0  0  0
   19.6496   70.7741   17.5013 C   0  0  0  0  0  0
   19.3721   71.8722   18.3273 C   0  0  0  0  0  0
   16.2369   68.6633   17.8676 Cl  0  0  0  0  0  0
   18.9020   68.6617   16.4104 C   0  0  0  0  0  0
   19.0409   67.7614   15.6975 N   0  0  0  0  0  0
   19.9350   75.8064   23.9271 H   0  0  0  0  0  0
   22.2361   75.8205   23.0987 H   0  0  0  0  0  0
   22.7574   74.9597   20.8703 H   0  0  0  0  0  0
   20.9354   74.2617   19.4037 H   0  0  0  0  0  0
   18.6583   74.4648   18.7499 H   0  0  0  0  0  0
   17.3997   74.9987   19.7866 H   0  0  0  0  0  0
   17.8136   73.2561   22.1143 H   0  0  0  0  0  0
   16.6417   71.4621   22.8458 H   0  0  0  0  0  0
   16.3578   71.0039   21.2206 H   0  0  0  0  0  0
   18.4073   70.2619   23.2597 H   0  0  0  0  0  0
   17.8436   69.3100   21.9363 H   0  0  0  0  0  0
   20.2308   72.3107   20.9729 H   0  0  0  0  0  0
   19.7986   72.0247   22.6503 H   0  0  0  0  0  0
   21.1167   69.8371   20.6845 H   0  0  0  0  0  0
   20.9711   69.8633   22.4632 H   0  0  0  0  0  0
   20.1768   68.6110   21.4854 H   0  0  0  0  0  0
   16.2413   71.0616   19.2200 H   0  0  0  0  0  0
   20.6123   70.7118   17.0124 H   0  0  0  0  0  0
   20.1491   72.5943   18.4869 H   0  0  0  0  0  0
  1  2  1  0  0  0
  1  6  2  0  0  0
  1 28  1  0  0  0
  2  3  2  0  0  0
  2 29  1  0  0  0
  3  4  1  0  0  0
  3 30  1  0  0  0
  4  5  2  0  0  0
  4 31  1  0  0  0
  5  6  1  0  0  0
  5 11  1  0  0  0
  6  7  1  0  0  0
  7  8  1  0  0  0
  7  9  1  0  0  0
  7 10  1  0  0  0
 11 12  1  0  0  0
 11 32  1  0  0  0
 11 33  1  0  0  0
 12 13  1  0  0  0
 12 14  1  0  0  0
 13 15  1  0  0  0
 13 18  1  0  0  0
 13 34  1  0  0  0
 14 20  1  0  0  0
 14 24  2  0  0  0
 15 16  1  0  0  0
 15 35  1  0  0  0
 15 36  1  0  0  0
 16 17  1  0  0  0
 16 37  1  0  0  0
 16 38  1  0  0  0
 17 18  1  0  0  0
 17 19  1  0  0  0
 18 39  1  0  0  0
 18 40  1  0  0  0
 19 41  1  0  0  0
 19 42  1  0  0  0
 19 43  1  0  0  0
 20 21  2  0  0  0
 20 44  1  0  0  0
 21 22  1  0  0  0
 21 25  1  0  0  0
 22 23  2  0  0  0
 22 26  1  0  0  0
 23 24  1  0  0  0
 23 45  1  0  0  0
 24 46  1  0  0  0
 26 27  3  0  0  0
M  END
> <s_m_entry_id>
9801

> <s_m_entry_name>
dock_pv.241

> <s_m_Source_Path>
/home/csk/Desktop/cluster/DUD-E-result/mcr

> <s_m_Source_File>
dock_pv.maegz

> <i_m_Source_File_Index>
241

> <chembl_id>
CHEMBL558664

> <chembl_pref_name>
None

> <i_lp_mmshare_version>
53161

> <i_f3d_flags>
0

> <r_lp_tautomer_probability>
1

> <s_lp_Force_Field>
OPLS_2005

> <r_lp_Energy>
40.820482

> <b_lp_Chiralities_Consistent>
1

> <s_lp_Variant>
CHEMBL1994_lig988-1

> <s_i_glide_gridfile>
glide-grid_2aa2

> <i_i_glide_lignum>
1430

> <i_i_glide_rotatable_bonds>
5

> <r_i_docking_score>
-7.16401667911871

> <r_i_glide_ligand_efficiency>
-0.265333951078471

> <r_i_glide_ligand_efficiency_sa>
-0.796001852360914

> <r_i_glide_ligand_efficiency_ln>
-1.66766497485323

> <r_i_glide_gscore>
-7.16401667911871

> <r_i_glide_lipo>
-4.72555354464371

> <r_i_glide_hbond>
-0.0842950423276135

> <r_i_glide_metal>
0

> <r_i_glide_rewards>
-1.69010887732701

> <r_i_glide_evdw>
-18.0481357574463

> <r_i_glide_ecoul>
-1.77027034759521

> <r_i_glide_erotb>
0.503888125191226

> <r_i_glide_esite>
0

> <r_i_glide_emodel>
-28.3974111135021

> <r_i_glide_energy>
-19.8184061050415

> <r_i_glide_einternal>
7.7171196937561

> <i_i_glide_confnum>
121

> <i_i_glide_posenum>
74

> <r_i_glide_eff_state_penalty>
0

> <s_user_duplicate_titles>
CHEMBL1994_lig988

> <s_m_subgroup_title>
dock_pv

> <s_m_subgroupid>
dock_pv

> <b_m_subgroup_collapsed>
1

$$$$
CHEMBL1994_lig172
                    3D
 Schrodinger Suite 2021-1.
 48 49  0  0  1  0            999 V2000
   19.7286   73.0913   22.4349 C   0  0  0  0  0  0
   19.0417   74.3470   22.9295 C   0  0  0  0  0  0
   18.2399   74.2741   24.0696 C   0  0  0  0  0  0
   17.4652   75.3736   24.4468 C   0  0  0  0  0  0
   17.4445   76.5213   23.6717 C   0  0  0  0  0  0
   18.2844   76.5950   22.5770 C   0  0  0  0  0  0
   19.1378   75.5600   22.2370 C   0  0  0  0  0  0
   18.6767   71.1597   18.0731 C   0  0  0  0  0  0
   17.3629   70.7079   18.2715 C   0  0  0  0  0  0
   16.9460   69.4760   17.7973 C   0  0  0  0  0  0
   17.8150   68.6830   17.0596 C   0  0  0  0  0  0
   19.1306   69.0865   16.8708 C   0  0  0  0  0  0
   19.5742   70.2983   17.4034 C   0  0  0  0  0  0
   19.0672   72.5720   18.5701 C   0  0  0  0  0  0
   19.0259   72.2341   21.3120 C   0  0  2  0  0  0
   19.7410   72.5767   19.9755 C   0  0  0  0  0  0
   17.6544   72.6118   21.2695 O   0  0  0  0  0  0
   19.0638   70.6891   21.5815 C   0  0  0  0  0  0
   18.1426   70.3745   22.4796 F   0  0  0  0  0  0
   18.7961   69.9182   20.5362 F   0  0  0  0  0  0
   20.2394   70.2620   22.0392 F   0  0  0  0  0  0
   20.1088   73.2718   17.6701 C   0  0  0  0  0  0
   17.8620   73.5415   18.4760 C   0  0  0  0  0  0
   15.6975   69.0604   18.0716 F   0  0  0  0  0  0
   20.8973   70.6061   17.2517 O   0  0  0  0  0  0
   21.7128   70.0948   18.2911 C   0  0  0  0  0  0
   20.2898   75.8618   20.9839 Cl  0  0  0  0  0  0
   17.9243   72.7625   24.8699 Cl  0  0  0  0  0  0
   19.8410   72.4649   23.3134 H   0  0  0  0  0  0
   20.7192   73.4619   22.1500 H   0  0  0  0  0  0
   16.7819   75.2888   25.2705 H   0  0  0  0  0  0
   16.7940   77.3456   23.9250 H   0  0  0  0  0  0
   18.2725   77.4612   21.9549 H   0  0  0  0  0  0
   16.6446   71.2850   18.8323 H   0  0  0  0  0  0
   17.4736   67.7507   16.6554 H   0  0  0  0  0  0
   19.8204   68.4501   16.3360 H   0  0  0  0  0  0
   20.6534   71.9900   19.9402 H   0  0  0  0  0  0
   20.1461   73.5684   20.0829 H   0  0  0  0  0  0
   17.2838   72.5749   22.1599 H   0  0  0  0  0  0
   20.1822   74.2620   18.0720 H   0  0  0  0  0  0
   21.1179   72.8671   17.7198 H   0  0  0  0  0  0
   19.8407   73.4594   16.6395 H   0  0  0  0  0  0
   18.1615   74.5773   18.6515 H   0  0  0  0  0  0
   17.4419   73.4612   17.4737 H   0  0  0  0  0  0
   17.0428   73.3903   19.1681 H   0  0  0  0  0  0
   22.6466   70.6504   18.3435 H   0  0  0  0  0  0
   21.2531   70.1000   19.2785 H   0  0  0  0  0  0
   21.9219   69.0620   18.0702 H   0  0  0  0  0  0
  1  2  1  0  0  0
  1 15  1  0  0  0
  1 29  1  0  0  0
  1 30  1  0  0  0
  2  7  1  0  0  0
  2  3  2  0  0  0
  3  4  1  0  0  0
  3 28  1  0  0  0
  4  5  2  0  0  0
  4 31  1  0  0  0
  5  6  1  0  0  0
  5 32  1  0  0  0
  6  7  2  0  0  0
  6 33  1  0  0  0
  7 27  1  0  0  0
  8  9  2  0  0  0
  8 13  1  0  0  0
  8 14  1  0  0  0
  9 10  1  0  0  0
  9 34  1  0  0  0
 10 11  2  0  0  0
 10 24  1  0  0  0
 11 12  1  0  0  0
 11 35  1  0  0  0
 12 13  2  0  0  0
 12 36  1  0  0  0
 13 25  1  0  0  0
 14 16  1  0  0  0
 14 22  1  0  0  0
 14 23  1  0  0  0
 15 16  1  0  0  0
 15 17  1  0  0  0
 15 18  1  0  0  0
 16 37  1  0  0  0
 16 38  1  0  0  0
 17 39  1  0  0  0
 18 19  1  0  0  0
 18 20  1  0  0  0
 18 21  1  0  0  0
 22 40  1  0  0  0
 22 41  1  0  0  0
 22 42  1  0  0  0
 23 43  1  0  0  0
 23 44  1  0  0  0
 23 45  1  0  0  0
 25 26  1  0  0  0
 26 46  1  0  0  0
 26 47  1  0  0  0
 26 48  1  0  0  0
M  END
> <s_m_entry_id>
9802

> <s_m_entry_name>
dock_pv.242

> <s_m_Source_Path>
/home/csk/Desktop/cluster/DUD-E-result/mcr

> <s_m_Source_File>
dock_pv.maegz

> <i_m_Source_File_Index>
242

> <chembl_id>
CHEMBL235688

> <chembl_pref_name>
None

> <i_lp_mmshare_version>
53161

> <i_f3d_flags>
0

> <r_lp_tautomer_probability>
1

> <s_lp_Force_Field>
OPLS_2005

> <r_lp_Energy>
34.162918

> <b_lp_Chiralities_Consistent>
1

> <s_lp_Variant>
CHEMBL1994_lig172-2

> <s_i_glide_gridfile>
glide-grid_2aa2

> <i_i_glide_lignum>
294

> <i_i_glide_rotatable_bonds>
8

> <r_i_docking_score>
-7.15522883175553

> <r_i_glide_ligand_efficiency>
-0.255543886848412

> <r_i_glide_ligand_efficiency_sa>
-0.775981747772219

> <r_i_glide_ligand_efficiency_ln>
-1.65163690101651

> <r_i_glide_gscore>
-7.15522883175553

> <r_i_glide_lipo>
-4.89838791100259

> <r_i_glide_hbond>
-0.154863653318597

> <r_i_glide_metal>
0

> <r_i_glide_rewards>
-2.22674230685603

> <r_i_glide_evdw>
-5.82477521896362

> <r_i_glide_ecoul>
0.0153481783345342

> <r_i_glide_erotb>
0.413701573619692

> <r_i_glide_esite>
0

> <r_i_glide_emodel>
-28.4356882678164

> <r_i_glide_energy>
-5.80942704062909

> <r_i_glide_einternal>
14.4616594314575

> <i_i_glide_confnum>
66

> <i_i_glide_posenum>
266

> <r_i_glide_eff_state_penalty>
0

> <s_user_duplicate_titles>
CHEMBL1994_lig172

> <s_m_subgroup_title>
dock_pv

> <s_m_subgroupid>
dock_pv

> <b_m_subgroup_collapsed>
1

$$$$
CHEMBL1994_lig800
                    3D
 Schrodinger Suite 2021-1.
 37 39  0  0  1  0            999 V2000
   17.2177   75.4620   22.3678 N   0  0  0  0  0  0
   18.0693   74.4771   22.1101 C   0  0  0  0  0  0
   19.2762   74.6064   22.2915 O   0  0  0  0  0  0
   17.4410   73.3780   21.6514 N   0  0  0  0  0  0
   18.0181   72.1365   21.3587 C   0  0  0  0  0  0
   17.4926   71.4073   20.2909 C   0  0  0  0  0  0
   18.1733   70.2621   19.8542 C   0  0  0  0  0  0
   19.2796   69.8067   20.5690 C   0  0  0  0  0  0
   19.6933   70.5470   21.6700 C   0  0  0  0  0  0
   19.0825   71.6875   22.0709 N   0  0  0  0  0  0
   17.7387   69.6010   18.6000 C   0  0  0  0  0  0
   16.5055   69.0996   18.2524 C   0  0  0  0  0  0
   16.6410   68.6620   16.9455 C   0  0  0  0  0  0
   17.8527   68.7846   16.4813 N   0  0  0  0  0  0
   18.4894   69.4573   17.4457 N   0  0  0  0  0  0
   19.8186   69.9571   17.1256 C   0  0  0  0  0  0
   20.2503   71.2089   17.8719 C   0  0  0  0  0  0
   21.5128   71.2026   18.4383 C   0  0  0  0  0  0
   21.8840   72.2620   19.2355 C   0  0  0  0  0  0
   21.0388   73.3380   19.4683 C   0  0  0  0  0  0
   21.4409   74.3484   20.2712 F   0  0  0  0  0  0
   19.7918   73.3784   18.8650 C   0  0  0  0  0  0
   19.3981   72.3100   18.0700 C   0  0  0  0  0  0
   16.2340   75.2647   22.4693 H   0  0  0  0  0  0
   17.5925   76.3428   22.6829 H   0  0  0  0  0  0
   16.4710   73.4802   21.4036 H   0  0  0  0  0  0
   16.6410   71.7687   19.7382 H   0  0  0  0  0  0
   19.8171   68.9210   20.2664 H   0  0  0  0  0  0
   20.5541   70.2390   22.2438 H   0  0  0  0  0  0
   15.6194   69.0620   18.8695 H   0  0  0  0  0  0
   15.8533   68.2045   16.3760 H   0  0  0  0  0  0
   20.5178   69.1325   17.2700 H   0  0  0  0  0  0
   19.8493   70.2017   16.0700 H   0  0  0  0  0  0
   22.1935   70.3754   18.2985 H   0  0  0  0  0  0
   22.8688   72.2620   19.6700 H   0  0  0  0  0  0
   19.1269   74.2102   19.0461 H   0  0  0  0  0  0
   18.3964   72.3120   17.6700 H   0  0  0  0  0  0
  1  2  1  0  0  0
  1 24  1  0  0  0
  1 25  1  0  0  0
  2  3  2  0  0  0
  2  4  1  0  0  0
  4  5  1  0  0  0
  4 26  1  0  0  0
  5  6  2  0  0  0
  5 10  1  0  0  0
  6  7  1  0  0  0
  6 27  1  0  0  0
  7  8  2  0  0  0
  7 11  1  0  0  0
  8  9  1  0  0  0
  8 28  1  0  0  0
  9 10  2  0  0  0
  9 29  1  0  0  0
 11 12  2  0  0  0
 11 15  1  0  0  0
 12 13  1  0  0  0
 12 30  1  0  0  0
 13 14  2  0  0  0
 13 31  1  0  0  0
 14 15  1  0  0  0
 15 16  1  0  0  0
 16 17  1  0  0  0
 16 32  1  0  0  0
 16 33  1  0  0  0
 17 18  2  0  0  0
 17 23  1  0  0  0
 18 19  1  0  0  0
 18 34  1  0  0  0
 19 20  2  0  0  0
 19 35  1  0  0  0
 20 21  1  0  0  0
 20 22  1  0  0  0
 22 23  2  0  0  0
 22 36  1  0  0  0
 23 37  1  0  0  0
M  END
> <s_m_entry_id>
9803

> <s_m_entry_name>
dock_pv.243

> <s_m_Source_Path>
/home/csk/Desktop/cluster/DUD-E-result/mcr

> <s_m_Source_File>
dock_pv.maegz

> <i_m_Source_File_Index>
243

> <chembl_id>
CHEMBL3643666

> <chembl_pref_name>
None

> <i_lp_mmshare_version>
53161

> <i_f3d_flags>
0

> <r_lp_tautomer_probability>
1

> <s_lp_Force_Field>
OPLS_2005

> <r_lp_Energy>
10.288265

> <b_lp_Chiralities_Consistent>
1

> <s_lp_Variant>
CHEMBL1994_lig800-1

> <s_i_glide_gridfile>
glide-grid_2aa2

> <i_i_glide_lignum>
1216

> <i_i_glide_rotatable_bonds>
5

> <r_i_docking_score>
-7.15217029409095

> <r_i_glide_ligand_efficiency>
-0.310963925830041

> <r_i_glide_ligand_efficiency_sa>
-0.884340039668784

> <r_i_glide_ligand_efficiency_ln>
-1.72945962940587

> <r_i_glide_gscore>
-7.15217029409095

> <r_i_glide_lipo>
-3.54142815285725

> <r_i_glide_hbond>
0

> <r_i_glide_metal>
0

> <r_i_glide_rewards>
-2.71966012616936

> <r_i_glide_evdw>
-28.3149738311768

> <r_i_glide_ecoul>
-1.57200968265533

> <r_i_glide_erotb>
0.765340609770609

> <r_i_glide_esite>
-0.00487248087780937

> <r_i_glide_emodel>
-37.090838145788

> <r_i_glide_energy>
-29.8869835138321

> <r_i_glide_einternal>
7.63080072402954

> <i_i_glide_confnum>
45

> <i_i_glide_posenum>
68

> <r_i_glide_eff_state_penalty>
0

> <s_user_duplicate_titles>
CHEMBL1994_lig800

> <s_m_subgroup_title>
dock_pv

> <s_m_subgroupid>
dock_pv

> <b_m_subgroup_collapsed>
1

$$$$
CHEMBL1994_lig878
                    3D
 Schrodinger Suite 2021-1.
 37 38  0  0  1  0            999 V2000
   21.5387   71.6627   19.0210 C   0  0  0  0  0  0
   20.4897   72.7381   19.1106 C   0  0  0  0  0  0
   19.8410   73.0831   17.9379 C   0  0  0  0  0  0
   18.7068   73.8674   18.0198 C   0  0  0  0  0  0
   18.2416   74.2817   19.2697 C   0  0  0  0  0  0
   18.9812   73.9543   20.4081 C   0  0  0  0  0  0
   20.1035   73.1757   20.3415 N   0  0  0  0  0  0
   18.4389   74.3661   21.6318 N   0  0  0  0  0  0
   19.0998   74.6818   22.7531 C   0  0  0  0  0  0
   18.2649   74.8964   23.7636 N   0  0  0  0  0  0
   20.3173   74.7818   22.8701 O   0  0  0  0  0  0
   20.9574   70.2612   19.3222 C   0  0  0  0  0  0
   19.6395   69.9456   18.5969 C   0  0  0  0  0  0
   19.6856   69.4620   17.2830 C   0  0  0  0  0  0
   18.5170   69.0651   16.6392 C   0  0  0  0  0  0
   17.2868   69.2330   17.2697 C   0  0  0  0  0  0
   17.2192   69.8072   18.5356 C   0  0  0  0  0  0
   18.3937   70.1506   19.2269 C   0  0  0  0  0  0
   18.3927   70.6635   20.5141 O   0  0  0  0  0  0
   17.2353   71.3263   21.0196 C   0  0  0  0  0  0
   22.3601   71.9431   19.6700 H   0  0  0  0  0  0
   21.9775   71.6587   18.0219 H   0  0  0  0  0  0
   20.2021   72.7103   16.9902 H   0  0  0  0  0  0
   18.2397   74.1629   17.0979 H   0  0  0  0  0  0
   17.3530   74.8914   19.3410 H   0  0  0  0  0  0
   17.4565   74.5888   21.6184 H   0  0  0  0  0  0
   18.6373   75.2336   24.6387 H   0  0  0  0  0  0
   17.3237   74.5247   23.7335 H   0  0  0  0  0  0
   20.8137   70.1341   20.3958 H   0  0  0  0  0  0
   21.7027   69.5103   19.0571 H   0  0  0  0  0  0
   20.6358   69.3287   16.7858 H   0  0  0  0  0  0
   18.5657   68.6445   15.6461 H   0  0  0  0  0  0
   16.3762   68.9382   16.7681 H   0  0  0  0  0  0
   16.2424   69.9388   18.9807 H   0  0  0  0  0  0
   17.5149   71.8769   21.9161 H   0  0  0  0  0  0
   16.8269   72.0364   20.3024 H   0  0  0  0  0  0
   16.4399   70.6622   21.3292 H   0  0  0  0  0  0
  1  2  1  0  0  0
  1 12  1  0  0  0
  1 21  1  0  0  0
  1 22  1  0  0  0
  2  3  2  0  0  0
  2  7  1  0  0  0
  3  4  1  0  0  0
  3 23  1  0  0  0
  4  5  2  0  0  0
  4 24  1  0  0  0
  5  6  1  0  0  0
  5 25  1  0  0  0
  6  7  2  0  0  0
  6  8  1  0  0  0
  8  9  1  0  0  0
  8 26  1  0  0  0
  9 10  1  0  0  0
  9 11  2  0  0  0
 10 27  1  0  0  0
 10 28  1  0  0  0
 12 13  1  0  0  0
 12 29  1  0  0  0
 12 30  1  0  0  0
 13 14  2  0  0  0
 13 18  1  0  0  0
 14 15  1  0  0  0
 14 31  1  0  0  0
 15 16  2  0  0  0
 15 32  1  0  0  0
 16 17  1  0  0  0
 16 33  1  0  0  0
 17 18  2  0  0  0
 17 34  1  0  0  0
 18 19  1  0  0  0
 19 20  1  0  0  0
 20 35  1  0  0  0
 20 36  1  0  0  0
 20 37  1  0  0  0
M  END
> <s_m_entry_id>
9804

> <s_m_entry_name>
dock_pv.244

> <s_m_Source_Path>
/home/csk/Desktop/cluster/DUD-E-result/mcr

> <s_m_Source_File>
dock_pv.maegz

> <i_m_Source_File_Index>
244

> <chembl_id>
CHEMBL4075462

> <chembl_pref_name>
None

> <i_lp_mmshare_version>
53161

> <i_f3d_flags>
0

> <r_lp_tautomer_probability>
1

> <s_lp_Force_Field>
OPLS_2005

> <r_lp_Energy>
9.118698

> <b_lp_Chiralities_Consistent>
1

> <s_lp_Variant>
CHEMBL1994_lig878-1

> <s_i_glide_gridfile>
glide-grid_2aa2

> <i_i_glide_lignum>
1321

> <i_i_glide_rotatable_bonds>
6

> <r_i_docking_score>
-7.13984814254563

> <r_i_glide_ligand_efficiency>
-0.356992407127281

> <r_i_glide_ligand_efficiency_sa>
-0.969026477929266

> <r_i_glide_ligand_efficiency_ln>
-1.78686850212692

> <r_i_glide_gscore>
-7.13984814254563

> <r_i_glide_lipo>
-3.1390309738958

> <r_i_glide_hbond>
-0.28540996057356

> <r_i_glide_metal>
0

> <r_i_glide_rewards>
-2.57228874535634

> <r_i_glide_evdw>
-32.2938041687012

> <r_i_glide_ecoul>
-3.34134149551392

> <r_i_glide_erotb>
0.972772970042217

> <r_i_glide_esite>
0

> <r_i_glide_emodel>
-48.6093249983869

> <r_i_glide_energy>
-35.6351456642151

> <r_i_glide_einternal>
5.70650768280029

> <i_i_glide_confnum>
16

> <i_i_glide_posenum>
145

> <r_i_glide_eff_state_penalty>
0

> <s_user_duplicate_titles>
CHEMBL1994_lig878

> <s_m_subgroup_title>
dock_pv

> <s_m_subgroupid>
dock_pv

> <b_m_subgroup_collapsed>
1

$$$$
CHEMBL1994_lig336
                    3D
 Schrodinger Suite 2021-1.
 51 53  0  0  1  0            999 V2000
   16.7231   76.2621   24.4718 C   0  0  0  0  0  0
   18.0437   75.8344   24.4701 C   0  0  0  0  0  0
   18.6121   75.4582   23.2650 C   0  0  0  0  0  0
   17.7727   75.4214   22.1324 C   0  0  0  0  0  0
   18.5587   75.0329   21.0952 N   0  0  0  0  0  0
   19.8304   74.7486   21.5174 C   0  0  0  0  0  0
   19.9128   75.0715   22.8473 C   0  0  0  0  0  0
   20.8336   74.1079   20.6020 C   0  0  0  0  0  0
   20.2510   72.8977   19.8093 C   0  0  1  0  0  0
   19.4989   71.9018   20.6981 C   0  0  0  0  0  0
   19.3686   73.2879   18.5796 C   0  0  0  0  0  0
   18.6421   74.3920   18.6553 F   0  0  0  0  0  0
   20.2400   73.5198   17.6694 F   0  0  0  0  0  0
   18.5405   72.3897   18.0703 F   0  0  0  0  0  0
   21.4435   72.2580   19.4111 O   0  0  0  0  0  0
   19.3965   70.3690   20.3857 C   0  0  0  0  0  0
   18.9509   69.9474   18.9344 C   0  0  0  0  0  0
   20.6356   69.5484   20.8406 C   0  0  0  0  0  0
   18.3621   69.9637   21.4323 C   0  0  0  0  0  0
   17.6045   69.6627   18.6463 C   0  0  0  0  0  0
   17.2104   69.0517   17.4696 C   0  0  0  0  0  0
   18.1308   68.7675   16.4778 C   0  0  0  0  0  0
   19.4411   69.1726   16.6586 C   0  0  0  0  0  0
   19.8524   69.7821   17.8551 C   0  0  0  0  0  0
   21.1792   70.0739   18.0028 O   0  0  0  0  0  0
   21.7829   70.7783   16.9381 C   0  0  0  0  0  0
   15.9212   68.7267   17.3121 F   0  0  0  0  0  0
   16.4270   75.7525   22.2276 C   0  0  0  0  0  0
   15.9482   76.2619   23.3822 N   0  0  0  0  0  0
   16.2521   76.6357   25.3722 H   0  0  0  0  0  0
   18.6208   75.8508   25.3742 H   0  0  0  0  0  0
   18.2795   74.9023   20.1292 H   0  0  0  0  0  0
   20.8018   75.0018   23.4443 H   0  0  0  0  0  0
   21.6658   73.7811   21.2309 H   0  0  0  0  0  0
   21.2783   74.8399   19.9333 H   0  0  0  0  0  0
   18.4924   72.3166   20.7915 H   0  0  0  0  0  0
   19.8848   72.0064   21.7102 H   0  0  0  0  0  0
   21.2235   71.4155   18.9885 H   0  0  0  0  0  0
   20.9502   69.8109   21.8503 H   0  0  0  0  0  0
   20.4204   68.4813   20.8701 H   0  0  0  0  0  0
   21.4955   69.6591   20.1992 H   0  0  0  0  0  0
   18.6731   70.2159   22.4487 H   0  0  0  0  0  0
   17.4241   70.4968   21.3094 H   0  0  0  0  0  0
   18.2410   68.8941   21.3202 H   0  0  0  0  0  0
   16.7934   69.8891   19.3019 H   0  0  0  0  0  0
   17.8199   68.2880   15.5636 H   0  0  0  0  0  0
   20.1470   68.9656   15.8749 H   0  0  0  0  0  0
   22.7774   71.0621   17.2664 H   0  0  0  0  0  0
   21.8402   70.2605   15.9919 H   0  0  0  0  0  0
   21.2247   71.6843   16.7269 H   0  0  0  0  0  0
   15.7607   75.7205   21.3799 H   0  0  0  0  0  0
  1 29  2  0  0  0
  1  2  1  0  0  0
  1 30  1  0  0  0
  2  3  2  0  0  0
  2 31  1  0  0  0
  3  7  1  0  0  0
  3  4  1  0  0  0
  4  5  1  0  0  0
  4 28  2  0  0  0
  5  6  1  0  0  0
  5 32  1  0  0  0
  6  7  2  0  0  0
  6  8  1  0  0  0
  7 33  1  0  0  0
  8  9  1  0  0  0
  8 34  1  0  0  0
  8 35  1  0  0  0
  9 15  1  0  0  0
  9 10  1  0  0  0
  9 11  1  0  0  0
 10 16  1  0  0  0
 10 36  1  0  0  0
 10 37  1  0  0  0
 11 12  1  0  0  0
 11 13  1  0  0  0
 11 14  1  0  0  0
 15 38  1  0  0  0
 16 17  1  0  0  0
 16 18  1  0  0  0
 16 19  1  0  0  0
 17 20  2  0  0  0
 17 24  1  0  0  0
 18 39  1  0  0  0
 18 40  1  0  0  0
 18 41  1  0  0  0
 19 42  1  0  0  0
 19 43  1  0  0  0
 19 44  1  0  0  0
 20 21  1  0  0  0
 20 45  1  0  0  0
 21 22  2  0  0  0
 21 27  1  0  0  0
 22 23  1  0  0  0
 22 46  1  0  0  0
 23 24  2  0  0  0
 23 47  1  0  0  0
 24 25  1  0  0  0
 25 26  1  0  0  0
 26 48  1  0  0  0
 26 49  1  0  0  0
 26 50  1  0  0  0
 28 29  1  0  0  0
 28 51  1  0  0  0
M  END
> <s_m_entry_id>
9805

> <s_m_entry_name>
dock_pv.245

> <s_m_Source_Path>
/home/csk/Desktop/cluster/DUD-E-result/mcr

> <s_m_Source_File>
dock_pv.maegz

> <i_m_Source_File_Index>
245

> <chembl_id>
CHEMBL1254734

> <chembl_pref_name>
None

> <i_lp_mmshare_version>
53161

> <i_f3d_flags>
0

> <r_lp_tautomer_probability>
0.999762906630677

> <s_lp_Force_Field>
OPLS_2005

> <r_lp_Energy>
31.698424

> <b_lp_Chiralities_Consistent>
1

> <s_lp_Variant>
CHEMBL1994_lig336-2

> <s_i_glide_gridfile>
glide-grid_2aa2

> <i_i_glide_lignum>
557

> <i_i_glide_rotatable_bonds>
8

> <r_i_docking_score>
-7.12777013086848

> <r_i_glide_ligand_efficiency>
-0.245785176926499

> <r_i_glide_ligand_efficiency_sa>
-0.755129933727875

> <r_i_glide_ligand_efficiency_ln>
-1.63207861531344

> <r_i_glide_gscore>
-7.12777013086848

> <r_i_glide_lipo>
-5.05738397083157

> <r_i_glide_hbond>
-0.143452022524444

> <r_i_glide_metal>
0

> <r_i_glide_rewards>
-2.055266703944

> <r_i_glide_evdw>
-7.52332496643066

> <r_i_glide_ecoul>
0.24438638985157

> <r_i_glide_erotb>
0.467840856275326

> <r_i_glide_esite>
0

> <r_i_glide_emodel>
-41.8049009856122

> <r_i_glide_energy>
-7.27893857657909

> <r_i_glide_einternal>
13.2624263763428

> <i_i_glide_confnum>
2

> <i_i_glide_posenum>
121

> <r_i_glide_eff_state_penalty>
0

> <s_user_duplicate_titles>
CHEMBL1994_lig336,CHEMBL1994_lig344

> <s_m_subgroup_title>
dock_pv

> <s_m_subgroupid>
dock_pv

> <b_m_subgroup_collapsed>
1

$$$$
CHEMBL1994_lig248
                    3D
 Schrodinger Suite 2021-1.
 39 40  0  0  1  0            999 V2000
   18.7377   71.3001   20.5117 C   0  0  0  0  0  0
   19.0102   71.8852   19.1070 C   0  0  2  0  0  0
   18.4571   73.3215   19.0209 C   0  0  0  0  0  0
   18.1291   71.9896   21.5055 C   0  0  0  0  0  0
   17.6725   73.2627   21.2620 N   0  0  0  0  0  0
   17.8410   73.9254   20.0695 C   0  0  0  0  0  0
   19.2233   69.9412   20.7214 C   0  0  0  0  0  0
   18.5736   70.9038   18.0090 C   0  0  0  0  0  0
   18.7083   74.0427   17.8158 C   0  0  0  0  0  0
   18.9641   74.6620   16.8700 N   0  0  0  0  0  0
   19.5139   70.1867   17.2429 C   0  0  0  0  0  0
   18.7875   68.9534   20.1271 O   0  0  0  0  0  0
   17.8410   71.4937   22.9152 C   0  0  0  0  0  0
   20.2409   69.9311   21.5534 O   0  0  0  0  0  0
   21.2013   70.5534   17.2707 Cl  0  0  0  0  0  0
   17.3081   75.3453   20.1048 C   0  0  0  0  0  0
   17.2312   70.4995   17.9862 C   0  0  0  0  0  0
   19.1105   69.0795   16.4981 C   0  0  0  0  0  0
   21.0410   68.7806   21.6700 C   0  0  0  0  0  0
   18.4305   72.3610   24.0359 C   0  0  0  0  0  0
   16.8480   69.3691   17.2700 C   0  0  0  0  0  0
   17.7856   68.6620   16.5221 C   0  0  0  0  0  0
   20.0917   71.9879   19.0421 H   0  0  0  0  0  0
   17.0819   73.6822   21.9678 H   0  0  0  0  0  0
   16.7603   71.4373   23.0012 H   0  0  0  0  0  0
   18.1880   70.4738   23.0532 H   0  0  0  0  0  0
   17.4409   75.8619   19.1585 H   0  0  0  0  0  0
   16.2441   75.3576   20.3441 H   0  0  0  0  0  0
   17.8408   75.9172   20.8654 H   0  0  0  0  0  0
   16.5029   70.9992   18.6093 H   0  0  0  0  0  0
   19.8407   68.5078   15.9483 H   0  0  0  0  0  0
   21.6089   68.8431   22.5959 H   0  0  0  0  0  0
   20.4720   67.8518   21.6699 H   0  0  0  0  0  0
   21.7650   68.7779   20.8700 H   0  0  0  0  0  0
   18.1414   71.9849   25.0170 H   0  0  0  0  0  0
   19.5165   72.3579   23.9844 H   0  0  0  0  0  0
   18.1032   73.3990   23.9772 H   0  0  0  0  0  0
   15.8304   69.0242   17.3138 H   0  0  0  0  0  0
   17.4891   67.7917   15.9683 H   0  0  0  0  0  0
  1  2  1  0  0  0
  1  4  2  0  0  0
  1  7  1  0  0  0
  2  3  1  0  0  0
  2  8  1  0  0  0
  2 23  1  0  0  0
  3  6  2  0  0  0
  3  9  1  0  0  0
  4  5  1  0  0  0
  4 13  1  0  0  0
  5  6  1  0  0  0
  5 24  1  0  0  0
  6 16  1  0  0  0
  7 12  2  0  0  0
  7 14  1  0  0  0
  8 11  2  0  0  0
  8 17  1  0  0  0
  9 10  3  0  0  0
 11 15  1  0  0  0
 11 18  1  0  0  0
 13 20  1  0  0  0
 13 25  1  0  0  0
 13 26  1  0  0  0
 14 19  1  0  0  0
 16 27  1  0  0  0
 16 28  1  0  0  0
 16 29  1  0  0  0
 17 21  2  0  0  0
 17 30  1  0  0  0
 18 22  2  0  0  0
 18 31  1  0  0  0
 19 32  1  0  0  0
 19 33  1  0  0  0
 19 34  1  0  0  0
 20 35  1  0  0  0
 20 36  1  0  0  0
 20 37  1  0  0  0
 21 22  1  0  0  0
 21 38  1  0  0  0
 22 39  1  0  0  0
M  END
> <s_m_entry_id>
9807

> <s_m_entry_name>
dock_pv.247

> <s_m_Source_Path>
/home/csk/Desktop/cluster/DUD-E-result/mcr

> <s_m_Source_File>
dock_pv.maegz

> <i_m_Source_File_Index>
247

> <chembl_id>
CHEMBL1215405

> <chembl_pref_name>
None

> <i_lp_mmshare_version>
53161

> <i_f3d_flags>
0

> <r_lp_tautomer_probability>
1

> <s_lp_Force_Field>
OPLS_2005

> <r_lp_Energy>
16.065297

> <b_lp_Chiralities_Consistent>
1

> <s_lp_Variant>
CHEMBL1994_lig248-1

> <s_i_glide_gridfile>
glide-grid_2aa2

> <i_i_glide_lignum>
416

> <i_i_glide_rotatable_bonds>
4

> <r_i_docking_score>
-7.10660960864757

> <r_i_glide_ligand_efficiency>
-0.323027709483981

> <r_i_glide_ligand_efficiency_sa>
-0.905136345933031

> <r_i_glide_ligand_efficiency_ln>
-1.73711460823727

> <r_i_glide_gscore>
-7.10660960864757

> <r_i_glide_lipo>
-3.40490263109596

> <r_i_glide_hbond>
-0.111679700469571

> <r_i_glide_metal>
0

> <r_i_glide_rewards>
-2.41049358230688

> <r_i_glide_evdw>
-26.6728401184082

> <r_i_glide_ecoul>
-1.44681751728058

> <r_i_glide_erotb>
0.371130938737335

> <r_i_glide_esite>
0

> <r_i_glide_emodel>
-31.6788511452271

> <r_i_glide_energy>
-28.1196576356888

> <r_i_glide_einternal>
12.6832370758057

> <i_i_glide_confnum>
5

> <i_i_glide_posenum>
20

> <r_i_glide_eff_state_penalty>
0

> <s_user_duplicate_titles>
CHEMBL1994_lig248,687268

> <s_m_subgroup_title>
dock_pv

> <s_m_subgroupid>
dock_pv

> <b_m_subgroup_collapsed>
1

$$$$
CHEMBL1994_lig832
                    3D
 Schrodinger Suite 2021-1.
 39 41  0  0  1  0            999 V2000
   17.1854   68.6620   17.7464 N   0  0  0  0  0  0
   18.2399   69.1606   17.1110 C   0  0  0  0  0  0
   18.6410   68.6493   16.0704 O   0  0  0  0  0  0
   18.8438   70.2401   17.6539 N   0  0  0  0  0  0
   18.6257   70.8752   18.8944 C   0  0  0  0  0  0
   19.6261   71.7341   19.3436 C   0  0  0  0  0  0
   19.5005   72.3364   20.6059 C   0  0  0  0  0  0
   18.4396   71.9485   21.4269 C   0  0  0  0  0  0
   17.4410   71.1653   20.8867 C   0  0  0  0  0  0
   17.5039   70.6620   19.6335 N   0  0  0  0  0  0
   20.3852   73.3412   21.0090 N   0  0  0  0  0  0
   21.4410   73.8642   20.1881 C   0  0  0  0  0  0
   22.2285   74.8973   20.9972 C   0  0  0  0  0  0
   21.2130   75.4619   21.9146 C   0  0  0  0  0  0
   20.3093   74.2622   22.1452 C   0  0  1  0  0  0
   18.9495   74.7348   22.5104 C   0  0  0  0  0  0
   18.7111   74.9505   23.8562 C   0  0  0  0  0  0
   17.5465   75.5587   24.2370 C   0  0  0  0  0  0
   16.6069   75.8186   23.2646 C   0  0  0  0  0  0
   15.4410   76.2620   23.6700 F   0  0  0  0  0  0
   16.7638   75.4620   21.9331 C   0  0  0  0  0  0
   17.9947   75.0044   21.5295 C   0  0  0  0  0  0
   16.8123   69.1696   18.5371 H   0  0  0  0  0  0
   16.9281   67.6949   17.5929 H   0  0  0  0  0  0
   19.6566   70.5638   17.1545 H   0  0  0  0  0  0
   20.4724   71.9492   18.7086 H   0  0  0  0  0  0
   18.3205   72.3153   22.4340 H   0  0  0  0  0  0
   16.5534   70.9522   21.4633 H   0  0  0  0  0  0
   22.0975   73.0332   19.9291 H   0  0  0  0  0  0
   21.0307   74.2620   19.2700 H   0  0  0  0  0  0
   23.0410   74.4326   21.5500 H   0  0  0  0  0  0
   22.6410   75.6984   20.3938 H   0  0  0  0  0  0
   21.6931   75.7953   22.8362 H   0  0  0  0  0  0
   20.6812   76.3082   21.4767 H   0  0  0  0  0  0
   20.6804   73.7096   23.0024 H   0  0  0  0  0  0
   19.4410   74.6620   24.5900 H   0  0  0  0  0  0
   17.3467   75.7832   25.2700 H   0  0  0  0  0  0
   15.9682   75.6280   21.2225 H   0  0  0  0  0  0
   18.1902   74.8268   20.4819 H   0  0  0  0  0  0
  1  2  1  0  0  0
  1 23  1  0  0  0
  1 24  1  0  0  0
  2  3  2  0  0  0
  2  4  1  0  0  0
  4  5  1  0  0  0
  4 25  1  0  0  0
  5  6  2  0  0  0
  5 10  1  0  0  0
  6  7  1  0  0  0
  6 26  1  0  0  0
  7  8  2  0  0  0
  7 11  1  0  0  0
  8  9  1  0  0  0
  8 27  1  0  0  0
  9 10  2  0  0  0
  9 28  1  0  0  0
 11 12  1  0  0  0
 11 15  1  0  0  0
 12 13  1  0  0  0
 12 29  1  0  0  0
 12 30  1  0  0  0
 13 14  1  0  0  0
 13 31  1  0  0  0
 13 32  1  0  0  0
 14 15  1  0  0  0
 14 33  1  0  0  0
 14 34  1  0  0  0
 15 16  1  0  0  0
 15 35  1  0  0  0
 16 17  2  0  0  0
 16 22  1  0  0  0
 17 18  1  0  0  0
 17 36  1  0  0  0
 18 19  2  0  0  0
 18 37  1  0  0  0
 19 20  1  0  0  0
 19 21  1  0  0  0
 21 22  2  0  0  0
 21 38  1  0  0  0
 22 39  1  0  0  0
M  END
> <s_m_entry_id>
9809

> <s_m_entry_name>
dock_pv.249

> <s_m_Source_Path>
/home/csk/Desktop/cluster/DUD-E-result/mcr

> <s_m_Source_File>
dock_pv.maegz

> <i_m_Source_File_Index>
249

> <chembl_id>
CHEMBL3643697

> <chembl_pref_name>
None

> <i_lp_mmshare_version>
53161

> <i_f3d_flags>
0

> <r_lp_tautomer_probability>
1

> <s_lp_Force_Field>
OPLS_2005

> <r_lp_Energy>
36.642947

> <b_lp_Chiralities_Consistent>
1

> <s_lp_Variant>
CHEMBL1994_lig832-1

> <s_i_glide_gridfile>
glide-grid_2aa2

> <i_i_glide_lignum>
1259

> <i_i_glide_rotatable_bonds>
4

> <r_i_docking_score>
-7.08254910316851

> <r_i_glide_ligand_efficiency>
-0.321934050144023

> <r_i_glide_ligand_efficiency_sa>
-0.902071869451289

> <r_i_glide_ligand_efficiency_ln>
-1.73123334306993

> <r_i_glide_gscore>
-7.08254910316851

> <r_i_glide_lipo>
-3.69087908418128

> <r_i_glide_hbond>
-0.32

> <r_i_glide_metal>
0

> <r_i_glide_rewards>
-1.80207068585112

> <r_i_glide_evdw>
-24.7019271850586

> <r_i_glide_ecoul>
-4.2005763053894

> <r_i_glide_erotb>
0.611319859658153

> <r_i_glide_esite>
-0.0157363877329266

> <r_i_glide_emodel>
-24.6384939355329

> <r_i_glide_energy>
-28.902503490448

> <r_i_glide_einternal>
4.37305355072021

> <i_i_glide_confnum>
18

> <i_i_glide_posenum>
76

> <r_i_glide_eff_state_penalty>
0

> <s_user_duplicate_titles>
CHEMBL1994_lig832

> <s_m_subgroup_title>
dock_pv

> <s_m_subgroupid>
dock_pv

> <b_m_subgroup_collapsed>
1

$$$$
CHEMBL1994_lig248
                    3D
 Schrodinger Suite 2021-1.
 39 40  0  0  1  0            999 V2000
   18.9278   72.9607   19.3558 C   0  0  0  0  0  0
   19.3283   71.4574   19.4224 C   0  0  1  0  0  0
   18.9172   70.8778   20.7554 C   0  0  0  0  0  0
   18.3225   73.6269   20.3902 C   0  0  0  0  0  0
   18.0209   72.9318   21.5250 N   0  0  0  0  0  0
   18.2916   71.6091   21.6930 C   0  0  0  0  0  0
   19.2728   73.5386   18.0704 C   0  0  0  0  0  0
   18.8038   70.5571   18.2797 C   0  0  0  0  0  0
   19.0407   69.4661   20.8689 C   0  0  0  0  0  0
   19.0415   68.3144   20.8699 N   0  0  0  0  0  0
   19.6722   69.9289   17.3684 C   0  0  0  0  0  0
   20.0721   72.9878   17.3258 O   0  0  0  0  0  0
   17.8846   75.0871   20.5414 C   0  0  0  0  0  0
   18.6410   74.6614   17.7702 O   0  0  0  0  0  0
   21.3716   70.2620   17.3413 Cl  0  0  0  0  0  0
   17.7059   71.0615   22.9284 C   0  0  0  0  0  0
   17.4361   70.2415   18.2457 C   0  0  0  0  0  0
   19.1701   68.9880   16.4704 C   0  0  0  0  0  0
   18.6405   75.2204   16.4700 C   0  0  0  0  0  0
   18.9351   75.9430   21.2694 C   0  0  0  0  0  0
   16.9467   69.2907   17.3556 C   0  0  0  0  0  0
   17.8171   68.6621   16.4696 C   0  0  0  0  0  0
   20.4176   71.4107   19.4216 H   0  0  0  0  0  0
   17.5156   73.4067   22.2623 H   0  0  0  0  0  0
   17.6093   75.5535   19.6036 H   0  0  0  0  0  0
   16.9470   75.1298   21.1006 H   0  0  0  0  0  0
   18.1637   71.4705   23.8251 H   0  0  0  0  0  0
   16.6412   71.2560   22.9312 H   0  0  0  0  0  0
   17.8398   69.9855   22.8700 H   0  0  0  0  0  0
   16.7539   70.6998   18.9489 H   0  0  0  0  0  0
   19.8399   68.4857   15.7923 H   0  0  0  0  0  0
   18.4205   76.2860   16.4729 H   0  0  0  0  0  0
   19.5933   75.0885   15.9625 H   0  0  0  0  0  0
   17.8398   74.7493   15.9087 H   0  0  0  0  0  0
   18.6411   76.9916   21.2938 H   0  0  0  0  0  0
   19.0773   75.6146   22.2994 H   0  0  0  0  0  0
   19.9035   75.8863   20.7701 H   0  0  0  0  0  0
   15.8972   69.0339   17.3645 H   0  0  0  0  0  0
   17.4413   67.9217   15.7839 H   0  0  0  0  0  0
  1  2  1  0  0  0
  1  4  2  0  0  0
  1  7  1  0  0  0
  2  3  1  0  0  0
  2  8  1  0  0  0
  2 23  1  0  0  0
  3  6  2  0  0  0
  3  9  1  0  0  0
  4  5  1  0  0  0
  4 13  1  0  0  0
  5  6  1  0  0  0
  5 24  1  0  0  0
  6 16  1  0  0  0
  7 12  2  0  0  0
  7 14  1  0  0  0
  8 11  2  0  0  0
  8 17  1  0  0  0
  9 10  3  0  0  0
 11 15  1  0  0  0
 11 18  1  0  0  0
 13 20  1  0  0  0
 13 25  1  0  0  0
 13 26  1  0  0  0
 14 19  1  0  0  0
 16 27  1  0  0  0
 16 28  1  0  0  0
 16 29  1  0  0  0
 17 21  2  0  0  0
 17 30  1  0  0  0
 18 22  2  0  0  0
 18 31  1  0  0  0
 19 32  1  0  0  0
 19 33  1  0  0  0
 19 34  1  0  0  0
 20 35  1  0  0  0
 20 36  1  0  0  0
 20 37  1  0  0  0
 21 22  1  0  0  0
 21 38  1  0  0  0
 22 39  1  0  0  0
M  END
> <s_m_entry_id>
9810

> <s_m_entry_name>
dock_pv.250

> <s_m_Source_Path>
/home/csk/Desktop/cluster/DUD-E-result/mcr

> <s_m_Source_File>
dock_pv.maegz

> <i_m_Source_File_Index>
250

> <chembl_id>
CHEMBL1215405

> <chembl_pref_name>
None

> <i_lp_mmshare_version>
53161

> <i_f3d_flags>
0

> <r_lp_tautomer_probability>
1

> <s_lp_Force_Field>
OPLS_2005

> <r_lp_Energy>
14.972581

> <b_lp_Chiralities_Consistent>
1

> <s_lp_Variant>
CHEMBL1994_lig248-2

> <s_i_glide_gridfile>
glide-grid_2aa2

> <i_i_glide_lignum>
417

> <i_i_glide_rotatable_bonds>
4

> <r_i_docking_score>
-7.07997662133846

> <r_i_glide_ligand_efficiency>
-0.321817119151748

> <r_i_glide_ligand_efficiency_sa>
-0.901744224212299

> <r_i_glide_ligand_efficiency_ln>
-1.73060453467711

> <r_i_glide_gscore>
-7.07997662133846

> <r_i_glide_lipo>
-3.75254048799711

> <r_i_glide_hbond>
-0.0905888612355212

> <r_i_glide_metal>
0

> <r_i_glide_rewards>
-2.55713820556458

> <r_i_glide_evdw>
-18.615234375

> <r_i_glide_ecoul>
-0.800521910190582

> <r_i_glide_erotb>
0.371130938737335

> <r_i_glide_esite>
0

> <r_i_glide_emodel>
-33.7641925558628

> <r_i_glide_energy>
-19.4157562851906

> <r_i_glide_einternal>
4.69835996627808

> <i_i_glide_confnum>
5

> <i_i_glide_posenum>
285

> <r_i_glide_eff_state_penalty>
0

> <s_user_duplicate_titles>
CHEMBL1994_lig248

> <s_m_subgroup_title>
dock_pv

> <s_m_subgroupid>
dock_pv

> <b_m_subgroup_collapsed>
1

$$$$
CHEMBL1994_lig189
                    3D
 Schrodinger Suite 2021-1.
 43 46  0  0  1  0            999 V2000
   18.6604   72.7653   22.0158 C   0  0  0  0  0  0
   18.3226   71.5234   22.5368 C   0  0  0  0  0  0
   18.2396   70.4483   21.6643 C   0  0  0  0  0  0
   18.8824   72.9356   20.6898 C   0  0  0  0  0  0
   18.4048   70.6030   20.2878 C   0  0  0  0  0  0
   18.6755   71.9209   19.7990 C   0  0  0  0  0  0
   18.7911   72.2401   18.3281 C   0  0  1  0  0  0
   18.2414   69.5218   19.3821 N   0  0  0  0  0  0
   17.5874   71.8741   17.6685 O   0  0  0  0  0  0
   17.5509   69.4939   18.2197 C   0  0  0  0  0  0
   17.5838   68.6106   17.3674 O   0  0  0  0  0  0
   18.7226   74.0343   22.6796 C   0  0  0  0  0  0
   19.8271   74.6261   23.2354 C   0  0  0  0  0  0
   19.3951   75.8547   23.6697 C   0  0  0  0  0  0
   18.1117   76.0087   23.3046 C   0  0  0  0  0  0
   17.7247   74.9760   22.5195 N   0  0  0  0  0  0
   17.2433   77.0475   23.6699 C   0  0  0  0  0  0
   16.5663   77.8628   24.0528 N   0  0  0  0  0  0
   16.7529   70.7664   18.0099 C   0  0  0  0  0  0
   18.9776   73.7299   17.9304 C   0  0  0  0  0  0
   20.0254   71.5011   17.8936 C   0  0  0  0  0  0
   21.2751   71.3723   18.4867 C   0  0  0  0  0  0
   21.8407   70.2625   17.9203 C   0  0  0  0  0  0
   21.0075   69.8671   16.8708 C   0  0  0  0  0  0
   19.9153   70.6546   16.8510 O   0  0  0  0  0  0
   16.4758   74.8899   21.7375 C   0  0  0  0  0  0
   18.1057   71.4181   23.5839 H   0  0  0  0  0  0
   17.9431   69.4953   22.0657 H   0  0  0  0  0  0
   19.1571   73.9197   20.3453 H   0  0  0  0  0  0
   18.7744   68.6895   19.5855 H   0  0  0  0  0  0
   20.8294   74.2366   23.2682 H   0  0  0  0  0  0
   19.9514   76.6613   24.0811 H   0  0  0  0  0  0
   15.9832   70.6194   17.2483 H   0  0  0  0  0  0
   16.2374   71.0251   18.9226 H   0  0  0  0  0  0
   19.9330   74.0545   18.3137 H   0  0  0  0  0  0
   18.9735   73.8899   16.8513 H   0  0  0  0  0  0
   18.2463   74.3995   18.3629 H   0  0  0  0  0  0
   21.6586   71.9165   19.3464 H   0  0  0  0  0  0
   22.7453   69.7842   18.2419 H   0  0  0  0  0  0
   21.0399   69.0719   16.1382 H   0  0  0  0  0  0
   16.2874   73.8775   21.3744 H   0  0  0  0  0  0
   15.6302   75.2652   22.3194 H   0  0  0  0  0  0
   16.5659   75.5253   20.8606 H   0  0  0  0  0  0
  1  2  2  0  0  0
  1  4  1  0  0  0
  1 12  1  0  0  0
  2  3  1  0  0  0
  2 27  1  0  0  0
  3  5  2  0  0  0
  3 28  1  0  0  0
  4  6  2  0  0  0
  4 29  1  0  0  0
  5  6  1  0  0  0
  5  8  1  0  0  0
  6  7  1  0  0  0
  7  9  1  0  0  0
  7 20  1  0  0  0
  7 21  1  0  0  0
  8 10  1  0  0  0
  8 30  1  0  0  0
  9 19  1  0  0  0
 10 11  2  0  0  0
 10 19  1  0  0  0
 12 13  2  0  0  0
 12 16  1  0  0  0
 13 14  1  0  0  0
 13 31  1  0  0  0
 14 15  2  0  0  0
 14 32  1  0  0  0
 15 16  1  0  0  0
 15 17  1  0  0  0
 16 26  1  0  0  0
 17 18  3  0  0  0
 19 33  1  0  0  0
 19 34  1  0  0  0
 20 35  1  0  0  0
 20 36  1  0  0  0
 20 37  1  0  0  0
 21 22  2  0  0  0
 21 25  1  0  0  0
 22 23  1  0  0  0
 22 38  1  0  0  0
 23 24  2  0  0  0
 23 39  1  0  0  0
 24 25  1  0  0  0
 24 40  1  0  0  0
 26 41  1  0  0  0
 26 42  1  0  0  0
 26 43  1  0  0  0
M  END
> <s_m_entry_id>
9811

> <s_m_entry_name>
dock_pv.251

> <s_m_Source_Path>
/home/csk/Desktop/cluster/DUD-E-result/mcr

> <s_m_Source_File>
dock_pv.maegz

> <i_m_Source_File_Index>
251

> <chembl_id>
CHEMBL489788

> <chembl_pref_name>
None

> <i_lp_mmshare_version>
53161

> <i_f3d_flags>
0

> <r_lp_tautomer_probability>
1

> <s_lp_Force_Field>
OPLS_2005

> <r_lp_Energy>
31.071469

> <b_lp_Chiralities_Consistent>
1

> <s_lp_Variant>
CHEMBL1994_lig189-2

> <s_i_glide_gridfile>
glide-grid_2aa2

> <i_i_glide_lignum>
325

> <i_i_glide_rotatable_bonds>
2

> <r_i_docking_score>
-7.05368713358403

> <r_i_glide_ligand_efficiency>
-0.271295658984001

> <r_i_glide_ligand_efficiency_sa>
-0.803712322243233

> <r_i_glide_ligand_efficiency_ln>
-1.65653527828693

> <r_i_glide_gscore>
-7.05368713358403

> <r_i_glide_lipo>
-3.95538012557367

> <r_i_glide_hbond>
0

> <r_i_glide_metal>
0

> <r_i_glide_rewards>
-2.29362374258236

> <r_i_glide_evdw>
-20.7668762207031

> <r_i_glide_ecoul>
-0.544354915618896

> <r_i_glide_erotb>
0.315313782949987

> <r_i_glide_esite>
0

> <r_i_glide_emodel>
-37.1366572983886

> <r_i_glide_energy>
-21.311231136322

> <r_i_glide_einternal>
7.03275680541992

> <i_i_glide_confnum>
11

> <i_i_glide_posenum>
130

> <r_i_glide_eff_state_penalty>
0

> <s_user_duplicate_titles>
CHEMBL1994_lig189,492221

> <s_m_subgroup_title>
dock_pv

> <s_m_subgroupid>
dock_pv

> <b_m_subgroup_collapsed>
1

$$$$
CHEMBL1994_lig188
                    3D
 Schrodinger Suite 2021-1.
 43 46  0  0  1  0            999 V2000
   18.3833   71.0623   19.8451 C   0  0  0  0  0  0
   18.8792   70.5099   21.0121 C   0  0  0  0  0  0
   19.2843   71.3649   22.0192 C   0  0  0  0  0  0
   18.2392   72.4185   19.6878 C   0  0  0  0  0  0
   19.2011   72.7508   21.8710 C   0  0  0  0  0  0
   18.6220   73.2884   20.6981 C   0  0  0  0  0  0
   18.4962   74.8078   20.5288 C   0  0  1  0  0  0
   19.8409   73.6107   22.7692 N   0  0  0  0  0  0
   19.7746   75.4621   20.4693 O   0  0  0  0  0  0
   20.6690   74.6353   22.4701 C   0  0  0  0  0  0
   21.0412   75.4620   23.2700 O   0  0  0  0  0  0
   17.9793   70.2617   18.7242 C   0  0  0  0  0  0
   16.6944   69.9806   18.3507 C   0  0  0  0  0  0
   16.7370   69.0819   17.3173 C   0  0  0  0  0  0
   18.0754   68.8853   17.0657 C   0  0  0  0  0  0
   18.8582   69.7003   17.8417 N   0  0  0  0  0  0
   18.6332   67.8620   16.2713 C   0  0  0  0  0  0
   19.0417   66.9923   15.6700 N   0  0  0  0  0  0
   20.9331   74.8330   20.9916 C   0  0  0  0  0  0
   17.7275   75.1876   19.2699 C   0  0  0  0  0  0
   17.6966   75.4014   21.6573 C   0  0  0  0  0  0
   16.3558   75.1171   21.8835 C   0  0  0  0  0  0
   15.8412   75.8620   22.9067 C   0  0  0  0  0  0
   16.9791   76.8832   23.6700 S   0  0  0  0  0  0
   18.1503   76.3480   22.5616 C   0  0  0  0  0  0
   20.3170   69.8623   17.8417 C   0  0  0  0  0  0
   18.9890   69.4402   21.1190 H   0  0  0  0  0  0
   19.7710   70.9337   22.8700 H   0  0  0  0  0  0
   17.8410   72.7757   18.7501 H   0  0  0  0  0  0
   19.6078   73.5226   23.7476 H   0  0  0  0  0  0
   15.8411   70.3539   18.8634 H   0  0  0  0  0  0
   15.8974   68.5761   16.8670 H   0  0  0  0  0  0
   21.7818   75.5057   20.8601 H   0  0  0  0  0  0
   21.1901   73.9078   20.4730 H   0  0  0  0  0  0
   16.7773   74.6621   19.2701 H   0  0  0  0  0  0
   17.4411   76.2384   19.2722 H   0  0  0  0  0  0
   18.2837   74.9692   18.3584 H   0  0  0  0  0  0
   15.7721   74.4094   21.3136 H   0  0  0  0  0  0
   14.8279   75.8619   23.2699 H   0  0  0  0  0  0
   19.1074   76.8198   22.5774 H   0  0  0  0  0  0
   20.5585   70.8165   17.3727 H   0  0  0  0  0  0
   20.6994   69.8622   18.8627 H   0  0  0  0  0  0
   20.8060   69.0738   17.2695 H   0  0  0  0  0  0
  1  2  2  0  0  0
  1  4  1  0  0  0
  1 12  1  0  0  0
  2  3  1  0  0  0
  2 27  1  0  0  0
  3  5  2  0  0  0
  3 28  1  0  0  0
  4  6  2  0  0  0
  4 29  1  0  0  0
  5  6  1  0  0  0
  5  8  1  0  0  0
  6  7  1  0  0  0
  7  9  1  0  0  0
  7 20  1  0  0  0
  7 21  1  0  0  0
  8 10  1  0  0  0
  8 30  1  0  0  0
  9 19  1  0  0  0
 10 11  2  0  0  0
 10 19  1  0  0  0
 12 13  2  0  0  0
 12 16  1  0  0  0
 13 14  1  0  0  0
 13 31  1  0  0  0
 14 15  2  0  0  0
 14 32  1  0  0  0
 15 16  1  0  0  0
 15 17  1  0  0  0
 16 26  1  0  0  0
 17 18  3  0  0  0
 19 33  1  0  0  0
 19 34  1  0  0  0
 20 35  1  0  0  0
 20 36  1  0  0  0
 20 37  1  0  0  0
 21 22  1  0  0  0
 21 25  2  0  0  0
 22 23  2  0  0  0
 22 38  1  0  0  0
 23 24  1  0  0  0
 23 39  1  0  0  0
 24 25  1  0  0  0
 25 40  1  0  0  0
 26 41  1  0  0  0
 26 42  1  0  0  0
 26 43  1  0  0  0
M  END
> <s_m_entry_id>
9812

> <s_m_entry_name>
dock_pv.252

> <s_m_Source_Path>
/home/csk/Desktop/cluster/DUD-E-result/mcr

> <s_m_Source_File>
dock_pv.maegz

> <i_m_Source_File_Index>
252

> <chembl_id>
CHEMBL522432

> <chembl_pref_name>
None

> <i_lp_mmshare_version>
53161

> <i_f3d_flags>
0

> <r_lp_tautomer_probability>
1

> <s_lp_Force_Field>
OPLS_2005

> <r_lp_Energy>
32.613778

> <b_lp_Chiralities_Consistent>
1

> <s_lp_Variant>
CHEMBL1994_lig188-2

> <s_i_glide_gridfile>
glide-grid_2aa2

> <i_i_glide_lignum>
323

> <i_i_glide_rotatable_bonds>
2

> <r_i_docking_score>
-7.04805106217519

> <r_i_glide_ligand_efficiency>
-0.271078887006738

> <r_i_glide_ligand_efficiency_sa>
-0.803070136113548

> <r_i_glide_ligand_efficiency_ln>
-1.65521166541002

> <r_i_glide_gscore>
-7.04805106217519

> <r_i_glide_lipo>
-4.17219469602611

> <r_i_glide_hbond>
-0.16

> <r_i_glide_metal>
0

> <r_i_glide_rewards>
-2.50789406550568

> <r_i_glide_evdw>
0.80400562286377

> <r_i_glide_ecoul>
-3.24861288070679

> <r_i_glide_erotb>
0.2909262366539

> <r_i_glide_esite>
-0.0517968863344744

> <r_i_glide_emodel>
-23.6809264913838

> <r_i_glide_energy>
-2.44460725784302

> <r_i_glide_einternal>
12.1569089889526

> <i_i_glide_confnum>
11

> <i_i_glide_posenum>
83

> <r_i_glide_eff_state_penalty>
0

> <s_user_duplicate_titles>
CHEMBL1994_lig188

> <s_m_subgroup_title>
dock_pv

> <s_m_subgroupid>
dock_pv

> <b_m_subgroup_collapsed>
1

$$$$
CHEMBL1994_lig956 
                    3D
 Schrodinger Suite 2021-1.
 37 40  0  0  1  0            999 V2000
   17.0176   68.8645   17.2700 C   0  0  0  0  0  0
   16.5452   70.0369   17.8503 C   0  0  0  0  0  0
   17.4298   71.0620   18.1762 C   0  0  0  0  0  0
   18.3795   68.7064   17.0237 C   0  0  0  0  0  0
   19.2615   69.7336   17.3522 C   0  0  0  0  0  0
   18.8021   70.9373   17.9121 C   0  0  0  0  0  0
   19.7513   71.9040   18.3224 N   0  0  0  0  0  0
   21.1580   71.5061   18.4700 C   0  0  0  0  0  0
   21.4566   70.5955   17.2700 C   0  0  0  0  0  0
   20.5997   69.4620   17.1806 O   0  0  0  0  0  0
   19.4453   73.2254   18.3966 C   0  0  0  0  0  0
   19.5790   73.8496   19.7482 C   0  0  0  0  0  0
   18.8663   73.8620   17.5133 O   0  0  0  0  0  0
   20.7723   73.8469   20.4916 C   0  0  0  0  0  0
   20.7866   74.3415   21.7903 C   0  0  0  0  0  0
   18.4192   74.4080   20.2942 C   0  0  0  0  0  0
   18.4337   74.8885   21.5900 C   0  0  0  0  0  0
   19.6087   74.8344   22.3320 C   0  0  0  0  0  0
   19.6069   75.1941   23.6492 O   0  0  0  0  0  0
   18.5839   76.1144   24.0700 C   0  0  0  0  0  0
   17.2468   76.1075   23.3056 C   0  0  0  0  0  0
   17.2970   75.4365   22.1514 N   0  0  0  0  0  0
   16.2410   76.6620   23.7165 O   0  0  0  0  0  0
   16.3268   68.0672   17.0434 H   0  0  0  0  0  0
   15.4927   70.1453   18.0698 H   0  0  0  0  0  0
   17.0410   71.9436   18.6581 H   0  0  0  0  0  0
   18.7566   67.7786   16.6200 H   0  0  0  0  0  0
   21.8911   72.3093   18.5132 H   0  0  0  0  0  0
   21.2040   70.8597   19.3477 H   0  0  0  0  0  0
   21.3774   71.1767   16.3534 H   0  0  0  0  0  0
   22.4890   70.2620   17.3284 H   0  0  0  0  0  0
   21.7013   73.4623   20.1102 H   0  0  0  0  0  0
   21.6912   74.3145   22.3807 H   0  0  0  0  0  0
   17.4981   74.4382   19.7266 H   0  0  0  0  0  0
   18.9725   77.1322   24.0700 H   0  0  0  0  0  0
   18.3213   75.8620   25.0975 H   0  0  0  0  0  0
   16.4274   75.4230   21.6411 H   0  0  0  0  0  0
  1  2  2  0  0  0
  1  4  1  0  0  0
  1 24  1  0  0  0
  2  3  1  0  0  0
  2 25  1  0  0  0
  3  6  2  0  0  0
  3 26  1  0  0  0
  4  5  2  0  0  0
  4 27  1  0  0  0
  5  6  1  0  0  0
  5 10  1  0  0  0
  6  7  1  0  0  0
  7  8  1  0  0  0
  7 11  1  0  0  0
  8  9  1  0  0  0
  8 28  1  0  0  0
  8 29  1  0  0  0
  9 10  1  0  0  0
  9 30  1  0  0  0
  9 31  1  0  0  0
 11 12  1  0  0  0
 11 13  2  0  0  0
 12 14  2  0  0  0
 12 16  1  0  0  0
 14 15  1  0  0  0
 14 32  1  0  0  0
 15 18  2  0  0  0
 15 33  1  0  0  0
 16 17  2  0  0  0
 16 34  1  0  0  0
 17 18  1  0  0  0
 17 22  1  0  0  0
 18 19  1  0  0  0
 19 20  1  0  0  0
 20 21  1  0  0  0
 20 35  1  0  0  0
 20 36  1  0  0  0
 21 22  1  0  0  0
 21 23  2  0  0  0
 22 37  1  0  0  0
M  END
> <s_m_entry_id>
9813

> <s_m_entry_name>
dock_pv.253

> <s_m_Source_Path>
/home/csk/Desktop/cluster/DUD-E-result/mcr

> <s_m_Source_File>
dock_pv.maegz

> <i_m_Source_File_Index>
253

> <chembl_id>
CHEMBL4473402

> <chembl_pref_name>
None

> <i_lp_mmshare_version>
53161

> <i_f3d_flags>
0

> <r_lp_tautomer_probability>
1

> <s_lp_Force_Field>
OPLS_2005

> <r_lp_Energy>
46.384499

> <b_lp_Chiralities_Consistent>
1

> <s_lp_Variant>
CHEMBL1994_lig956 -1

> <s_i_glide_gridfile>
glide-grid_2aa2

> <i_i_glide_lignum>
1398

> <i_i_glide_rotatable_bonds>
2

> <r_i_docking_score>
-7.04752944660554

> <r_i_glide_ligand_efficiency>
-0.306414323765458

> <r_i_glide_ligand_efficiency_sa>
-0.871401576599376

> <r_i_glide_ligand_efficiency_ln>
-1.70415652365315

> <r_i_glide_gscore>
-7.04752944660554

> <r_i_glide_lipo>
-4.12176227162546

> <r_i_glide_hbond>
-0.103006078909268

> <r_i_glide_metal>
0

> <r_i_glide_rewards>
-0.652420905474523

> <r_i_glide_evdw>
-40.8799171447754

> <r_i_glide_ecoul>
-3.40802907943726

> <r_i_glide_erotb>
0.384860028558068

> <r_i_glide_esite>
0

> <r_i_glide_emodel>
-48.2945326183698

> <r_i_glide_energy>
-44.2879462242126

> <r_i_glide_einternal>
7.2627911567688

> <i_i_glide_confnum>
12

> <i_i_glide_posenum>
253

> <r_i_glide_eff_state_penalty>
0

> <s_user_duplicate_titles>
CHEMBL1994_lig956 

> <s_m_subgroup_title>
dock_pv

> <s_m_subgroupid>
dock_pv

> <b_m_subgroup_collapsed>
1

$$$$
CHEMBL1994_lig1093
                    3D
 Schrodinger Suite 2021-1.
 44 46  0  0  1  0            999 V2000
   18.6432   71.2533   19.7421 C   0  0  0  0  0  0
   19.1695   70.5878   20.8459 C   0  0  0  0  0  0
   19.1071   71.1768   22.0866 C   0  0  0  0  0  0
   18.0348   72.5037   19.9307 C   0  0  0  0  0  0
   17.9987   73.1297   21.1987 C   0  0  0  0  0  0
   18.5311   72.4225   22.2788 C   0  0  0  0  0  0
   18.6403   73.0291   23.5369 N   0  0  0  0  0  0
   18.7092   74.4954   23.6685 C   0  0  0  0  0  0
   17.7126   75.1948   22.7631 C   0  0  0  0  0  0
   17.4704   74.5658   21.3938 C   0  0  0  0  0  0
   18.8509   70.6331   18.4085 C   0  0  0  0  0  0
   20.0564   70.5660   17.7002 C   0  0  0  0  0  0
   19.9390   69.8614   16.5984 N   0  0  0  0  0  0
   18.6231   69.4123   16.5613 O   0  0  0  0  0  0
   17.9773   69.8734   17.6614 C   0  0  0  0  0  0
   21.3988   71.1512   18.0724 C   0  0  0  0  0  0
   16.5431   69.4541   17.8267 C   0  0  0  0  0  0
   18.2878   75.4611   20.4703 C   0  0  0  0  0  0
   15.9566   74.6292   21.2670 C   0  0  0  0  0  0
   17.1913   76.2735   23.0816 O   0  0  0  0  0  0
   18.2406   74.8306   25.0887 C   0  0  0  0  0  0
   20.0745   74.9855   23.1790 C   0  0  0  0  0  0
   19.9690   69.0621   20.7366 Cl  0  0  0  0  0  0
   19.6117   70.6623   22.8701 H   0  0  0  0  0  0
   17.6509   73.0283   19.0685 H   0  0  0  0  0  0
   19.1370   72.5483   24.2730 H   0  0  0  0  0  0
   21.5219   71.2357   19.1535 H   0  0  0  0  0  0
   22.2291   70.5503   17.7057 H   0  0  0  0  0  0
   21.5178   72.1544   17.6667 H   0  0  0  0  0  0
   16.2472   69.5031   18.8706 H   0  0  0  0  0  0
   15.8637   70.1004   17.2716 H   0  0  0  0  0  0
   16.3755   68.4284   17.4967 H   0  0  0  0  0  0
   19.3490   75.2019   20.4662 H   0  0  0  0  0  0
   17.9440   75.3592   19.4406 H   0  0  0  0  0  0
   18.2422   76.5272   20.7029 H   0  0  0  0  0  0
   15.4776   73.6495   21.2693 H   0  0  0  0  0  0
   15.3927   75.2792   21.9358 H   0  0  0  0  0  0
   15.8410   75.0659   20.2832 H   0  0  0  0  0  0
   17.9899   75.8634   25.2545 H   0  0  0  0  0  0
   17.3151   74.2896   25.2699 H   0  0  0  0  0  0
   18.9526   74.6621   25.8803 H   0  0  0  0  0  0
   20.0876   75.9722   22.7155 H   0  0  0  0  0  0
   20.6412   75.0740   24.0699 H   0  0  0  0  0  0
   20.5920   74.3009   22.5066 H   0  0  0  0  0  0
  1  2  2  0  0  0
  1  4  1  0  0  0
  1 11  1  0  0  0
  2  3  1  0  0  0
  2 23  1  0  0  0
  3  6  2  0  0  0
  3 24  1  0  0  0
  4  5  2  0  0  0
  4 25  1  0  0  0
  5  6  1  0  0  0
  5 10  1  0  0  0
  6  7  1  0  0  0
  7  8  1  0  0  0
  7 26  1  0  0  0
  8  9  1  0  0  0
  8 21  1  0  0  0
  8 22  1  0  0  0
  9 10  1  0  0  0
  9 20  2  0  0  0
 10 18  1  0  0  0
 10 19  1  0  0  0
 11 12  1  0  0  0
 11 15  2  0  0  0
 12 13  2  0  0  0
 12 16  1  0  0  0
 13 14  1  0  0  0
 14 15  1  0  0  0
 15 17  1  0  0  0
 16 27  1  0  0  0
 16 28  1  0  0  0
 16 29  1  0  0  0
 17 30  1  0  0  0
 17 31  1  0  0  0
 17 32  1  0  0  0
 18 33  1  0  0  0
 18 34  1  0  0  0
 18 35  1  0  0  0
 19 36  1  0  0  0
 19 37  1  0  0  0
 19 38  1  0  0  0
 21 39  1  0  0  0
 21 40  1  0  0  0
 21 41  1  0  0  0
 22 42  1  0  0  0
 22 43  1  0  0  0
 22 44  1  0  0  0
M  END
> <s_m_entry_id>
9814

> <s_m_entry_name>
dock_pv.254

> <s_m_Source_Path>
/home/csk/Desktop/cluster/DUD-E-result/mcr

> <s_m_Source_File>
dock_pv.maegz

> <i_m_Source_File_Index>
254

> <chembl_id>
CHEMBL3582110

> <chembl_pref_name>
None

> <i_lp_mmshare_version>
53161

> <i_f3d_flags>
0

> <r_lp_tautomer_probability>
1

> <s_lp_Force_Field>
OPLS_2005

> <r_lp_Energy>
24.492705

> <b_lp_Chiralities_Consistent>
1

> <s_lp_Variant>
CHEMBL1994_lig1093-1

> <s_i_glide_gridfile>
glide-grid_2aa2

> <i_i_glide_lignum>
1579

> <i_i_glide_rotatable_bonds>
1

> <r_i_docking_score>
-7.04176938594061

> <r_i_glide_ligand_efficiency>
-0.306163886345244

> <r_i_glide_ligand_efficiency_sa>
-0.870689365890253

> <r_i_glide_ligand_efficiency_ln>
-1.70276368875503

> <r_i_glide_gscore>
-7.04176938594061

> <r_i_glide_lipo>
-4.21388809367628

> <r_i_glide_hbond>
0

> <r_i_glide_metal>
0

> <r_i_glide_rewards>
-1.80130451792481

> <r_i_glide_evdw>
-23.0784187316895

> <r_i_glide_ecoul>
-0.22619791328907

> <r_i_glide_erotb>
0.170074639967446

> <r_i_glide_esite>
-0.00880079072913466

> <r_i_glide_emodel>
-39.6957159150689

> <r_i_glide_energy>
-23.3046166449785

> <r_i_glide_einternal>
0.569700837135315

> <i_i_glide_confnum>
2

> <i_i_glide_posenum>
83

> <r_i_glide_eff_state_penalty>
0

> <s_user_duplicate_titles>
CHEMBL1994_lig1093

> <s_m_subgroup_title>
dock_pv

> <s_m_subgroupid>
dock_pv

> <b_m_subgroup_collapsed>
1

$$$$
CHEMBL1994_lig247
                    3D
 Schrodinger Suite 2021-1.
 36 37  0  0  1  0            999 V2000
   18.8043   72.9640   19.3972 C   0  0  0  0  0  0
   19.2686   71.4940   19.4865 C   0  0  1  0  0  0
   18.8228   70.9109   20.7918 C   0  0  0  0  0  0
   17.9806   73.5546   20.3177 C   0  0  0  0  0  0
   17.5938   72.8307   21.4217 N   0  0  0  0  0  0
   18.0057   71.5444   21.6461 C   0  0  0  0  0  0
   19.2985   73.5697   18.1740 C   0  0  0  0  0  0
   18.8145   70.5786   18.3249 C   0  0  0  0  0  0
   19.1636   69.5504   20.9267 C   0  0  0  0  0  0
   19.4360   68.4408   20.8700 N   0  0  0  0  0  0
   19.7393   69.9506   17.4709 C   0  0  0  0  0  0
   20.2403   73.0620   17.5727 O   0  0  0  0  0  0
   18.6410   74.6620   17.7883 O   0  0  0  0  0  0
   17.4689   74.9897   20.3549 C   0  0  0  0  0  0
   21.4410   70.2620   17.5631 Cl  0  0  0  0  0  0
   17.4572   70.8760   22.8494 C   0  0  0  0  0  0
   17.4542   70.2463   18.2158 C   0  0  0  0  0  0
   19.2964   69.0077   16.5460 C   0  0  0  0  0  0
   18.6863   75.1930   16.4726 C   0  0  0  0  0  0
   17.0269   69.2828   17.3061 C   0  0  0  0  0  0
   17.9509   68.6620   16.4700 C   0  0  0  0  0  0
   20.3583   71.4855   19.5266 H   0  0  0  0  0  0
   16.9732   73.2523   22.1035 H   0  0  0  0  0  0
   18.2522   75.6863   20.0701 H   0  0  0  0  0  0
   16.6316   75.1118   19.6700 H   0  0  0  0  0  0
   17.1385   75.2913   21.3504 H   0  0  0  0  0  0
   18.2410   70.2620   23.2700 H   0  0  0  0  0  0
   17.0912   71.4705   23.6675 H   0  0  0  0  0  0
   16.6441   70.2620   22.4700 H   0  0  0  0  0  0
   16.7294   70.6997   18.8778 H   0  0  0  0  0  0
   20.0113   68.5078   15.9172 H   0  0  0  0  0  0
   18.4758   76.2620   16.4700 H   0  0  0  0  0  0
   19.6490   75.0620   15.9861 H   0  0  0  0  0  0
   17.8804   74.7305   15.9097 H   0  0  0  0  0  0
   15.9829   69.0097   17.2661 H   0  0  0  0  0  0
   17.6285   67.9095   15.7704 H   0  0  0  0  0  0
  1  2  1  0  0  0
  1  4  2  0  0  0
  1  7  1  0  0  0
  2  3  1  0  0  0
  2  8  1  0  0  0
  2 22  1  0  0  0
  3  6  2  0  0  0
  3  9  1  0  0  0
  4  5  1  0  0  0
  4 14  1  0  0  0
  5  6  1  0  0  0
  5 23  1  0  0  0
  6 16  1  0  0  0
  7 12  2  0  0  0
  7 13  1  0  0  0
  8 11  2  0  0  0
  8 17  1  0  0  0
  9 10  3  0  0  0
 11 15  1  0  0  0
 11 18  1  0  0  0
 13 19  1  0  0  0
 14 24  1  0  0  0
 14 25  1  0  0  0
 14 26  1  0  0  0
 16 27  1  0  0  0
 16 28  1  0  0  0
 16 29  1  0  0  0
 17 20  2  0  0  0
 17 30  1  0  0  0
 18 21  2  0  0  0
 18 31  1  0  0  0
 19 32  1  0  0  0
 19 33  1  0  0  0
 19 34  1  0  0  0
 20 21  1  0  0  0
 20 35  1  0  0  0
 21 36  1  0  0  0
M  END
> <s_m_entry_id>
9815

> <s_m_entry_name>
dock_pv.255

> <s_m_Source_Path>
/home/csk/Desktop/cluster/DUD-E-result/mcr

> <s_m_Source_File>
dock_pv.maegz

> <i_m_Source_File_Index>
255

> <chembl_id>
CHEMBL1215404

> <chembl_pref_name>
None

> <i_lp_mmshare_version>
53161

> <i_f3d_flags>
0

> <r_lp_tautomer_probability>
1

> <s_lp_Force_Field>
OPLS_2005

> <r_lp_Energy>
14.880035

> <b_lp_Chiralities_Consistent>
1

> <s_lp_Variant>
CHEMBL1994_lig247-2

> <s_i_glide_gridfile>
glide-grid_2aa2

> <i_i_glide_lignum>
415

> <i_i_glide_rotatable_bonds>
3

> <r_i_docking_score>
-7.03136087754293

> <r_i_glide_ligand_efficiency>
-0.334826708454425

> <r_i_glide_ligand_efficiency_sa>
-0.923761499915556

> <r_i_glide_ligand_efficiency_ln>
-1.73848976877001

> <r_i_glide_gscore>
-7.03136087754293

> <r_i_glide_lipo>
-3.56844124713247

> <r_i_glide_hbond>
-0.32

> <r_i_glide_metal>
0

> <r_i_glide_rewards>
-2.58005942774696

> <r_i_glide_evdw>
-15.1160125732422

> <r_i_glide_ecoul>
-1.3927264213562

> <r_i_glide_erotb>
0.401849389202041

> <r_i_glide_esite>
0

> <r_i_glide_emodel>
-28.7981575204075

> <r_i_glide_energy>
-16.5087389945984

> <r_i_glide_einternal>
4.3498854637146

> <i_i_glide_confnum>
4

> <i_i_glide_posenum>
261

> <r_i_glide_eff_state_penalty>
0

> <s_user_duplicate_titles>
CHEMBL1994_lig247

> <s_m_subgroup_title>
dock_pv

> <s_m_subgroupid>
dock_pv

> <b_m_subgroup_collapsed>
1

$$$$
CHEMBL1994_lig833
                    3D
 Schrodinger Suite 2021-1.
 41 43  0  0  1  0            999 V2000
   19.7383   75.4392   21.5255 N   0  0  0  0  0  0
   20.5444   74.5514   20.9571 C   0  0  0  0  0  0
   21.6320   74.2694   21.4493 O   0  0  0  0  0  0
   20.0072   74.0201   19.8428 N   0  0  0  0  0  0
   20.5430   73.0080   19.0291 C   0  0  0  0  0  0
   19.6478   72.3026   18.2366 C   0  0  0  0  0  0
   20.0335   71.0364   17.7639 C   0  0  0  0  0  0
   21.3704   70.6616   17.8049 C   0  0  0  0  0  0
   22.2410   71.5042   18.4701 C   0  0  0  0  0  0
   21.8392   72.6278   19.1138 N   0  0  0  0  0  0
   19.0180   70.0033   17.5369 C   0  0  0  0  0  0
   18.0393   69.8290   18.4703 C   0  0  0  0  0  0
   16.9512   68.7977   18.3073 C   0  0  0  0  0  0
   16.6412   68.6619   16.8217 C   0  0  0  0  0  0
   17.8987   68.2621   16.0308 C   0  0  0  0  0  0
   19.0561   69.2545   16.2097 C   0  0  0  0  0  0
   18.1924   70.3942   19.8226 C   0  0  0  0  0  0
   19.2568   70.0575   20.6581 C   0  0  0  0  0  0
   19.4153   70.7388   21.8567 C   0  0  0  0  0  0
   18.5142   71.7331   22.2318 C   0  0  0  0  0  0
   18.6808   72.3932   23.3981 F   0  0  0  0  0  0
   17.4405   72.0489   21.4090 C   0  0  0  0  0  0
   17.2803   71.3614   20.2195 C   0  0  0  0  0  0
   18.9139   75.7791   21.0565 H   0  0  0  0  0  0
   20.0105   75.8302   22.4130 H   0  0  0  0  0  0
   19.0578   74.2817   19.6358 H   0  0  0  0  0  0
   18.6078   72.5943   18.2107 H   0  0  0  0  0  0
   21.7058   69.6979   17.4531 H   0  0  0  0  0  0
   23.2645   71.2170   18.6121 H   0  0  0  0  0  0
   16.0558   69.0754   18.8657 H   0  0  0  0  0  0
   17.2897   67.8620   18.7371 H   0  0  0  0  0  0
   16.2412   69.6093   16.4701 H   0  0  0  0  0  0
   15.8572   67.9272   16.6720 H   0  0  0  0  0  0
   17.6555   68.1884   14.9716 H   0  0  0  0  0  0
   18.2411   67.2779   16.3489 H   0  0  0  0  0  0
   19.0409   69.9997   15.4170 H   0  0  0  0  0  0
   20.0281   68.7827   16.0678 H   0  0  0  0  0  0
   19.9766   69.3079   20.3634 H   0  0  0  0  0  0
   20.2433   70.4938   22.4944 H   0  0  0  0  0  0
   16.7336   72.8203   21.6721 H   0  0  0  0  0  0
   16.4493   71.5675   19.5760 H   0  0  0  0  0  0
  1  2  1  0  0  0
  1 24  1  0  0  0
  1 25  1  0  0  0
  2  3  2  0  0  0
  2  4  1  0  0  0
  4  5  1  0  0  0
  4 26  1  0  0  0
  5  6  2  0  0  0
  5 10  1  0  0  0
  6  7  1  0  0  0
  6 27  1  0  0  0
  7  8  2  0  0  0
  7 11  1  0  0  0
  8  9  1  0  0  0
  8 28  1  0  0  0
  9 10  2  0  0  0
  9 29  1  0  0  0
 11 12  2  0  0  0
 11 16  1  0  0  0
 12 13  1  0  0  0
 12 17  1  0  0  0
 13 14  1  0  0  0
 13 30  1  0  0  0
 13 31  1  0  0  0
 14 15  1  0  0  0
 14 32  1  0  0  0
 14 33  1  0  0  0
 15 16  1  0  0  0
 15 34  1  0  0  0
 15 35  1  0  0  0
 16 36  1  0  0  0
 16 37  1  0  0  0
 17 18  2  0  0  0
 17 23  1  0  0  0
 18 19  1  0  0  0
 18 38  1  0  0  0
 19 20  2  0  0  0
 19 39  1  0  0  0
 20 21  1  0  0  0
 20 22  1  0  0  0
 22 23  2  0  0  0
 22 40  1  0  0  0
 23 41  1  0  0  0
M  END
> <s_m_entry_id>
9816

> <s_m_entry_name>
dock_pv.256

> <s_m_Source_Path>
/home/csk/Desktop/cluster/DUD-E-result/mcr

> <s_m_Source_File>
dock_pv.maegz

> <i_m_Source_File_Index>
256

> <chembl_id>
CHEMBL3643698

> <chembl_pref_name>
None

> <i_lp_mmshare_version>
53161

> <i_f3d_flags>
0

> <r_lp_tautomer_probability>
1

> <s_lp_Force_Field>
OPLS_2005

> <r_lp_Energy>
21.892509

> <b_lp_Chiralities_Consistent>
1

> <s_lp_Variant>
CHEMBL1994_lig833-1

> <s_i_glide_gridfile>
glide-grid_2aa2

> <i_i_glide_lignum>
1261

> <i_i_glide_rotatable_bonds>
4

> <r_i_docking_score>
-7.02208327462036

> <r_i_glide_ligand_efficiency>
-0.305307968461755

> <r_i_glide_ligand_efficiency_sa>
-0.868255249286478

> <r_i_glide_ligand_efficiency_ln>
-1.69800340853401

> <r_i_glide_gscore>
-7.02208327462036

> <r_i_glide_lipo>
-3.88858084528638

> <r_i_glide_hbond>
0

> <r_i_glide_metal>
0

> <r_i_glide_rewards>
-2.30271827830405

> <r_i_glide_evdw>
-28.0146083831787

> <r_i_glide_ecoul>
0.00303862127475441

> <r_i_glide_erotb>
0.573876682223132

> <r_i_glide_esite>
-0.00438620728534044

> <r_i_glide_emodel>
-37.8567728902223

> <r_i_glide_energy>
-28.011569761904

> <r_i_glide_einternal>
5.3749213218689

> <i_i_glide_confnum>
43

> <i_i_glide_posenum>
275

> <r_i_glide_eff_state_penalty>
0

> <s_user_duplicate_titles>
CHEMBL1994_lig833

> <s_m_subgroup_title>
dock_pv

> <s_m_subgroupid>
dock_pv

> <b_m_subgroup_collapsed>
1

$$$$
CHEMBL1994_lig159
                    3D
 Schrodinger Suite 2021-1.
 48 49  0  0  1  0            999 V2000
   19.0512   75.0536   20.5082 C   0  0  0  0  0  0
   19.8451   74.0148   19.6931 C   0  0  0  0  0  0
   19.3315   73.4615   18.5107 C   0  0  0  0  0  0
   20.1243   72.5808   17.7642 C   0  0  0  0  0  0
   21.3623   72.1692   18.1977 C   0  0  0  0  0  0
   21.8408   72.6620   19.3789 C   0  0  0  0  0  0
   21.1525   73.6677   20.0540 C   0  0  0  0  0  0
   18.2673   71.1026   20.3714 C   0  0  0  0  0  0
   17.4410   70.8609   19.2364 C   0  0  0  0  0  0
   17.8205   70.0675   18.1749 C   0  0  0  0  0  0
   19.1164   69.6143   18.1107 C   0  0  0  0  0  0
   19.9581   69.8620   19.1878 C   0  0  0  0  0  0
   19.5059   70.4347   20.3810 C   0  0  0  0  0  0
   17.7461   71.9686   21.5771 C   0  0  0  0  0  0
   18.5468   74.6171   21.9337 C   0  0  2  0  0  0
   18.7001   73.0571   22.2114 C   0  0  0  0  0  0
   17.1940   75.0617   21.9819 O   0  0  0  0  0  0
   19.0364   75.4625   23.1628 C   0  0  0  0  0  0
   20.3529   75.4620   23.2701 F   0  0  0  0  0  0
   18.6410   76.7368   23.1195 F   0  0  0  0  0  0
   18.5551   75.0016   24.3218 F   0  0  0  0  0  0
   16.4842   72.6567   21.0823 C   0  0  0  0  0  0
   17.4046   70.9868   22.7140 C   0  0  0  0  0  0
   16.9219   69.7488   17.2238 F   0  0  0  0  0  0
   20.2364   70.2874   21.5417 O   0  0  0  0  0  0
   21.0294   69.0919   21.6638 C   0  0  0  0  0  0
   22.1407   74.7168   21.2701 Br  0  0  0  0  0  0
   18.2234   75.3930   19.8817 H   0  0  0  0  0  0
   19.6729   75.9416   20.6128 H   0  0  0  0  0  0
   18.3423   73.7229   18.1647 H   0  0  0  0  0  0
   19.8410   72.0927   16.8700 H   0  0  0  0  0  0
   21.9373   71.4516   17.6323 H   0  0  0  0  0  0
   22.8320   72.3568   19.6700 H   0  0  0  0  0  0
   16.4399   71.2256   19.1120 H   0  0  0  0  0  0
   19.4597   69.0510   17.2560 H   0  0  0  0  0  0
   20.9552   69.4658   19.1085 H   0  0  0  0  0  0
   18.6815   72.9337   23.2934 H   0  0  0  0  0  0
   19.7292   72.7694   22.0172 H   0  0  0  0  0  0
   16.7408   74.5692   22.6784 H   0  0  0  0  0  0
   15.8278   73.2568   21.6700 H   0  0  0  0  0  0
   16.7258   73.2652   20.2155 H   0  0  0  0  0  0
   15.8410   71.8618   20.8697 H   0  0  0  0  0  0
   17.0443   71.4620   23.6192 H   0  0  0  0  0  0
   16.6416   70.2631   22.4594 H   0  0  0  0  0  0
   18.2712   70.4070   23.0081 H   0  0  0  0  0  0
   21.5191   69.0619   22.6328 H   0  0  0  0  0  0
   20.4209   68.1939   21.5593 H   0  0  0  0  0  0
   21.8235   69.0620   20.9208 H   0  0  0  0  0  0
  1  2  1  0  0  0
  1 15  1  0  0  0
  1 28  1  0  0  0
  1 29  1  0  0  0
  2  7  1  0  0  0
  2  3  2  0  0  0
  3  4  1  0  0  0
  3 30  1  0  0  0
  4  5  2  0  0  0
  4 31  1  0  0  0
  5  6  1  0  0  0
  5 32  1  0  0  0
  6  7  2  0  0  0
  6 33  1  0  0  0
  7 27  1  0  0  0
  8  9  2  0  0  0
  8 13  1  0  0  0
  8 14  1  0  0  0
  9 10  1  0  0  0
  9 34  1  0  0  0
 10 11  2  0  0  0
 10 24  1  0  0  0
 11 12  1  0  0  0
 11 35  1  0  0  0
 12 13  2  0  0  0
 12 36  1  0  0  0
 13 25  1  0  0  0
 14 16  1  0  0  0
 14 22  1  0  0  0
 14 23  1  0  0  0
 15 16  1  0  0  0
 15 17  1  0  0  0
 15 18  1  0  0  0
 16 37  1  0  0  0
 16 38  1  0  0  0
 17 39  1  0  0  0
 18 19  1  0  0  0
 18 20  1  0  0  0
 18 21  1  0  0  0
 22 40  1  0  0  0
 22 41  1  0  0  0
 22 42  1  0  0  0
 23 43  1  0  0  0
 23 44  1  0  0  0
 23 45  1  0  0  0
 25 26  1  0  0  0
 26 46  1  0  0  0
 26 47  1  0  0  0
 26 48  1  0  0  0
M  END
> <s_m_entry_id>
9817

> <s_m_entry_name>
dock_pv.257

> <s_m_Source_Path>
/home/csk/Desktop/cluster/DUD-E-result/mcr

> <s_m_Source_File>
dock_pv.maegz

> <i_m_Source_File_Index>
257

> <chembl_id>
CHEMBL392309

> <chembl_pref_name>
None

> <i_lp_mmshare_version>
53161

> <i_f3d_flags>
0

> <r_lp_tautomer_probability>
1

> <s_lp_Force_Field>
OPLS_2005

> <r_lp_Energy>
33.004205

> <b_lp_Chiralities_Consistent>
1

> <s_lp_Variant>
CHEMBL1994_lig159-2

> <s_i_glide_gridfile>
glide-grid_2aa2

> <i_i_glide_lignum>
268

> <i_i_glide_rotatable_bonds>
8

> <r_i_docking_score>
-7.01825000714629

> <r_i_glide_ligand_efficiency>
-0.259935185449862

> <r_i_glide_ligand_efficiency_sa>
-0.779805555492884

> <r_i_glide_ligand_efficiency_ln>
-1.63373289676946

> <r_i_glide_gscore>
-7.01825000714629

> <r_i_glide_lipo>
-4.1736278767719

> <r_i_glide_hbond>
-0.32

> <r_i_glide_metal>
0

> <r_i_glide_rewards>
-2.16427376365166

> <r_i_glide_evdw>
-4.43466138839722

> <r_i_glide_ecoul>
-3.57155919075012

> <r_i_glide_erotb>
0.397118581309648

> <r_i_glide_esite>
0

> <r_i_glide_emodel>
-32.1951513722849

> <r_i_glide_energy>
-8.00622057914734

> <r_i_glide_einternal>
12.2099637985229

> <i_i_glide_confnum>
59

> <i_i_glide_posenum>
222

> <r_i_glide_eff_state_penalty>
0

> <s_user_duplicate_titles>
CHEMBL1994_lig159

> <s_m_subgroup_title>
dock_pv

> <s_m_subgroupid>
dock_pv

> <b_m_subgroup_collapsed>
1

$$$$
CHEMBL1994_lig813
                    3D
 Schrodinger Suite 2021-1.
 40 42  0  0  1  0            999 V2000
   16.2410   68.2621   18.2622 N   0  0  0  0  0  0
   16.8596   69.2631   17.6757 C   0  0  0  0  0  0
   16.2413   70.2380   17.2706 O   0  0  0  0  0  0
   18.1931   69.1334   17.7236 N   0  0  0  0  0  0
   19.1110   70.1880   17.7606 C   0  0  0  0  0  0
   18.7272   71.4879   18.1142 C   0  0  0  0  0  0
   19.6919   72.4721   18.2878 C   0  0  0  0  0  0
   19.2185   73.8489   18.7334 C   0  0  0  0  0  0
   19.6676   74.3552   20.1386 C   0  0  2  0  0  0
   21.1663   74.7288   20.2935 C   0  0  0  0  0  0
   21.4840   76.0607   20.9176 C   0  0  0  0  0  0
   21.8911   74.7953   21.6289 C   0  0  0  0  0  0
   19.1516   73.5772   21.3493 C   0  0  0  0  0  0
   19.0451   72.1806   21.3677 C   0  0  0  0  0  0
   18.6151   71.5246   22.5083 C   0  0  0  0  0  0
   18.3664   72.2620   23.6597 C   0  0  0  0  0  0
   18.5171   73.6465   23.6699 C   0  0  0  0  0  0
   18.8516   74.3068   22.5025 C   0  0  0  0  0  0
   21.0323   72.1374   18.0700 C   0  0  0  0  0  0
   21.3430   70.8307   17.6875 C   0  0  0  0  0  0
   20.4069   69.8625   17.5311 N   0  0  0  0  0  0
   16.6748   67.3436   18.3259 H   0  0  0  0  0  0
   15.2745   68.3837   18.5201 H   0  0  0  0  0  0
   18.5760   68.2067   17.8279 H   0  0  0  0  0  0
   17.7018   71.7388   18.3361 H   0  0  0  0  0  0
   18.1269   73.8626   18.7379 H   0  0  0  0  0  0
   19.4409   74.5435   17.9285 H   0  0  0  0  0  0
   19.1259   75.3022   20.1858 H   0  0  0  0  0  0
   21.7591   74.4917   19.4247 H   0  0  0  0  0  0
   22.2410   76.6610   20.4360 H   0  0  0  0  0  0
   20.6490   76.6621   21.2700 H   0  0  0  0  0  0
   21.4000   74.5309   22.5616 H   0  0  0  0  0  0
   22.9463   74.5387   21.6637 H   0  0  0  0  0  0
   19.3217   71.5632   20.5372 H   0  0  0  0  0  0
   18.5089   70.4505   22.5094 H   0  0  0  0  0  0
   18.0320   71.7815   24.5646 H   0  0  0  0  0  0
   18.3104   74.2060   24.5704 H   0  0  0  0  0  0
   18.9353   75.3837   22.5141 H   0  0  0  0  0  0
   21.8278   72.8570   18.1575 H   0  0  0  0  0  0
   22.3657   70.5458   17.4968 H   0  0  0  0  0  0
  1  2  1  0  0  0
  1 22  1  0  0  0
  1 23  1  0  0  0
  2  3  2  0  0  0
  2  4  1  0  0  0
  4  5  1  0  0  0
  4 24  1  0  0  0
  5  6  2  0  0  0
  5 21  1  0  0  0
  6  7  1  0  0  0
  6 25  1  0  0  0
  7  8  1  0  0  0
  7 19  2  0  0  0
  8  9  1  0  0  0
  8 26  1  0  0  0
  8 27  1  0  0  0
  9 10  1  0  0  0
  9 13  1  0  0  0
  9 28  1  0  0  0
 10 11  1  0  0  0
 10 12  1  0  0  0
 10 29  1  0  0  0
 11 12  1  0  0  0
 11 30  1  0  0  0
 11 31  1  0  0  0
 12 32  1  0  0  0
 12 33  1  0  0  0
 13 14  2  0  0  0
 13 18  1  0  0  0
 14 15  1  0  0  0
 14 34  1  0  0  0
 15 16  2  0  0  0
 15 35  1  0  0  0
 16 17  1  0  0  0
 16 36  1  0  0  0
 17 18  2  0  0  0
 17 37  1  0  0  0
 18 38  1  0  0  0
 19 20  1  0  0  0
 19 39  1  0  0  0
 20 21  2  0  0  0
 20 40  1  0  0  0
M  END
> <s_m_entry_id>
9818

> <s_m_entry_name>
dock_pv.258

> <s_m_Source_Path>
/home/csk/Desktop/cluster/DUD-E-result/mcr

> <s_m_Source_File>
dock_pv.maegz

> <i_m_Source_File_Index>
258

> <chembl_id>
CHEMBL3643678

> <chembl_pref_name>
None

> <i_lp_mmshare_version>
53161

> <i_f3d_flags>
0

> <r_lp_tautomer_probability>
1

> <s_lp_Force_Field>
OPLS_2005

> <r_lp_Energy>
16.524338

> <b_lp_Chiralities_Consistent>
1

> <s_lp_Variant>
CHEMBL1994_lig813-1

> <s_i_glide_gridfile>
glide-grid_2aa2

> <i_i_glide_lignum>
1235

> <i_i_glide_rotatable_bonds>
6

> <r_i_docking_score>
-7.01594298920065

> <r_i_glide_ligand_efficiency>
-0.334092523295269

> <r_i_glide_ligand_efficiency_sa>
-0.921735938732075

> <r_i_glide_ligand_efficiency_ln>
-1.73467772703216

> <r_i_glide_gscore>
-7.01594298920065

> <r_i_glide_lipo>
-3.34005749087071

> <r_i_glide_hbond>
-0.32

> <r_i_glide_metal>
0

> <r_i_glide_rewards>
-2.63810506966912

> <r_i_glide_evdw>
-24.8730354309082

> <r_i_glide_ecoul>
-4.10565328598022

> <r_i_glide_erotb>
1.14171933578163

> <r_i_glide_esite>
0

> <r_i_glide_emodel>
-40.3442489131619

> <r_i_glide_energy>
-28.9786887168884

> <r_i_glide_einternal>
13.3567762374878

> <i_i_glide_confnum>
58

> <i_i_glide_posenum>
145

> <r_i_glide_eff_state_penalty>
0

> <s_user_duplicate_titles>
CHEMBL1994_lig813

> <s_m_subgroup_title>
dock_pv

> <s_m_subgroupid>
dock_pv

> <b_m_subgroup_collapsed>
1

$$$$
CHEMBL1994_lig815
                    3D
 Schrodinger Suite 2021-1.
 46 48  0  0  1  0            999 V2000
   19.0358   72.6595   23.4631 C   0  0  0  0  0  0
   18.3488   74.0006   23.3047 C   0  0  0  0  0  0
   18.1614   74.7484   24.4695 C   0  0  0  0  0  0
   17.3308   75.8590   24.4541 C   0  0  0  0  0  0
   16.7796   76.2936   23.2700 C   0  0  0  0  0  0
   16.9559   75.5589   22.1082 C   0  0  0  0  0  0
   17.7506   74.4262   22.0914 C   0  0  0  0  0  0
   17.7246   73.6277   20.7887 C   0  0  2  0  0  0
   16.9287   72.3073   21.0268 C   0  0  0  0  0  0
   17.5259   71.0908   20.3630 C   0  0  0  0  0  0
   18.6409   70.4611   20.9323 C   0  0  0  0  0  0
   19.2723   69.4618   20.2244 C   0  0  0  0  0  0
   18.8238   69.0621   19.0214 N   0  0  0  0  0  0
   17.7229   69.6360   18.4815 C   0  0  0  0  0  0
   17.2035   69.1868   17.2700 N   0  0  0  0  0  0
   17.8413   68.5901   16.2509 C   0  0  0  0  0  0
   17.2222   68.2620   15.2533 O   0  0  0  0  0  0
   19.1530   68.3961   16.3339 N   0  0  0  0  0  0
   17.0475   70.6620   19.1232 C   0  0  0  0  0  0
   19.0532   73.5187   20.0188 C   0  0  0  0  0  0
   20.2703   73.7969   20.6387 C   0  0  0  0  0  0
   21.4410   73.3403   20.0697 C   0  0  0  0  0  0
   21.4219   72.6947   18.8352 C   0  0  0  0  0  0
   20.2385   72.6015   18.1162 C   0  0  0  0  0  0
   19.0545   73.0429   18.6983 C   0  0  0  0  0  0
   19.8387   72.5201   22.7498 H   0  0  0  0  0  0
   19.4335   72.4832   24.4431 H   0  0  0  0  0  0
   18.3117   71.8589   23.3972 H   0  0  0  0  0  0
   18.5658   74.4177   25.4129 H   0  0  0  0  0  0
   17.0410   76.3684   25.3494 H   0  0  0  0  0  0
   16.2187   77.2081   23.2703 H   0  0  0  0  0  0
   16.4404   75.8618   21.2106 H   0  0  0  0  0  0
   17.1192   74.1859   20.0708 H   0  0  0  0  0  0
   16.8135   72.0498   22.0699 H   0  0  0  0  0  0
   15.8793   72.4598   20.7950 H   0  0  0  0  0  0
   19.0640   70.7305   21.8750 H   0  0  0  0  0  0
   20.1470   68.9629   20.6164 H   0  0  0  0  0  0
   16.2409   69.4297   17.0995 H   0  0  0  0  0  0
   19.6769   67.9633   15.5903 H   0  0  0  0  0  0
   19.6081   68.6142   17.2082 H   0  0  0  0  0  0
   16.1984   71.1314   18.6572 H   0  0  0  0  0  0
   20.3284   74.2746   21.6035 H   0  0  0  0  0  0
   22.3692   73.4609   20.6066 H   0  0  0  0  0  0
   22.3383   72.3107   18.4111 H   0  0  0  0  0  0
   20.2411   72.1477   17.1382 H   0  0  0  0  0  0
   18.1252   72.9061   18.1665 H   0  0  0  0  0  0
  1  2  1  0  0  0
  1 26  1  0  0  0
  1 27  1  0  0  0
  1 28  1  0  0  0
  2  3  2  0  0  0
  2  7  1  0  0  0
  3  4  1  0  0  0
  3 29  1  0  0  0
  4  5  2  0  0  0
  4 30  1  0  0  0
  5  6  1  0  0  0
  5 31  1  0  0  0
  6  7  2  0  0  0
  6 32  1  0  0  0
  7  8  1  0  0  0
  8  9  1  0  0  0
  8 20  1  0  0  0
  8 33  1  0  0  0
  9 10  1  0  0  0
  9 34  1  0  0  0
  9 35  1  0  0  0
 10 11  2  0  0  0
 10 19  1  0  0  0
 11 12  1  0  0  0
 11 36  1  0  0  0
 12 13  2  0  0  0
 12 37  1  0  0  0
 13 14  1  0  0  0
 14 15  1  0  0  0
 14 19  2  0  0  0
 15 16  1  0  0  0
 15 38  1  0  0  0
 16 17  2  0  0  0
 16 18  1  0  0  0
 18 39  1  0  0  0
 18 40  1  0  0  0
 19 41  1  0  0  0
 20 21  2  0  0  0
 20 25  1  0  0  0
 21 22  1  0  0  0
 21 42  1  0  0  0
 22 23  2  0  0  0
 22 43  1  0  0  0
 23 24  1  0  0  0
 23 44  1  0  0  0
 24 25  2  0  0  0
 24 45  1  0  0  0
 25 46  1  0  0  0
M  END
> <s_m_entry_id>
9819

> <s_m_entry_name>
dock_pv.259

> <s_m_Source_Path>
/home/csk/Desktop/cluster/DUD-E-result/mcr

> <s_m_Source_File>
dock_pv.maegz

> <i_m_Source_File_Index>
259

> <chembl_id>
CHEMBL3643680

> <chembl_pref_name>
None

> <i_lp_mmshare_version>
53161

> <i_f3d_flags>
0

> <r_lp_tautomer_probability>
1

> <s_lp_Force_Field>
OPLS_2005

> <r_lp_Energy>
15.254625

> <b_lp_Chiralities_Consistent>
1

> <s_lp_Variant>
CHEMBL1994_lig815-1

> <s_i_glide_gridfile>
glide-grid_2aa2

> <i_i_glide_lignum>
1239

> <i_i_glide_rotatable_bonds>
6

> <r_i_docking_score>
-7.0064257734478

> <r_i_glide_ligand_efficiency>
-0.280257030937912

> <r_i_glide_ligand_efficiency_sa>
-0.819476528842063

> <r_i_glide_ligand_efficiency_ln>
-1.66073287394437

> <r_i_glide_gscore>
-7.0064257734478

> <r_i_glide_lipo>
-4.34062414538828

> <r_i_glide_hbond>
-0.373294311130994

> <r_i_glide_metal>
0

> <r_i_glide_rewards>
-1.54257874307337

> <r_i_glide_evdw>
-19.662425994873

> <r_i_glide_ecoul>
-4.15736389160156

> <r_i_glide_erotb>
0.856797309628732

> <r_i_glide_esite>
0

> <r_i_glide_emodel>
-24.5929974097075

> <r_i_glide_energy>
-23.8197898864746

> <r_i_glide_einternal>
7.97795915603638

> <i_i_glide_confnum>
105

> <i_i_glide_posenum>
181

> <r_i_glide_eff_state_penalty>
0

> <s_user_duplicate_titles>
CHEMBL1994_lig815

> <s_m_subgroup_title>
dock_pv

> <s_m_subgroupid>
dock_pv

> <b_m_subgroup_collapsed>
1

$$$$
CHEMBL1994_lig810
                    3D
 Schrodinger Suite 2021-1.
 43 45  0  0  1  0            999 V2000
   20.6406   74.2409   22.2687 C   0  0  0  0  0  0
   20.3492   73.8177   20.8345 C   0  0  0  0  0  0
   21.4407   73.4106   20.0700 C   0  0  0  0  0  0
   21.2889   72.9921   18.7517 C   0  0  0  0  0  0
   20.0468   73.0614   18.1461 C   0  0  0  0  0  0
   18.9476   73.4766   18.8831 C   0  0  0  0  0  0
   19.0624   73.7758   20.2507 C   0  0  0  0  0  0
   17.7362   73.8474   21.0236 C   0  0  1  0  0  0
   17.2238   72.4280   21.4136 C   0  0  0  0  0  0
   17.7808   71.2181   20.6539 C   0  0  0  0  0  0
   18.7523   70.4244   21.2701 C   0  0  0  0  0  0
   19.1548   69.2516   20.6407 C   0  0  0  0  0  0
   18.6410   68.8474   19.4572 N   0  0  0  0  0  0
   17.7825   69.6639   18.8000 C   0  0  0  0  0  0
   17.3039   69.2597   17.5401 N   0  0  0  0  0  0
   17.9942   68.6620   16.5388 C   0  0  0  0  0  0
   17.4398   68.2620   15.5223 O   0  0  0  0  0  0
   19.3214   68.6232   16.6461 N   0  0  0  0  0  0
   17.3193   70.8527   19.3758 C   0  0  0  0  0  0
   17.6863   74.7981   22.2480 C   0  0  0  0  0  0
   17.9830   76.2619   22.0836 C   0  0  0  0  0  0
   16.5690   75.7998   22.3947 C   0  0  0  0  0  0
   20.3544   75.2759   22.4342 H   0  0  0  0  0  0
   20.1100   73.6096   22.9801 H   0  0  0  0  0  0
   21.7049   74.1866   22.4991 H   0  0  0  0  0  0
   22.4256   73.3886   20.5088 H   0  0  0  0  0  0
   22.1452   72.6526   18.1875 H   0  0  0  0  0  0
   19.9389   72.7691   17.1173 H   0  0  0  0  0  0
   17.9788   73.4619   18.4058 H   0  0  0  0  0  0
   17.0152   74.2543   20.3115 H   0  0  0  0  0  0
   17.4409   72.2494   22.4685 H   0  0  0  0  0  0
   16.1379   72.4054   21.3551 H   0  0  0  0  0  0
   19.1581   70.6872   22.2362 H   0  0  0  0  0  0
   19.8739   68.5896   21.1023 H   0  0  0  0  0  0
   16.3519   69.5159   17.3328 H   0  0  0  0  0  0
   19.8908   68.1958   15.9313 H   0  0  0  0  0  0
   19.7420   68.9306   17.5098 H   0  0  0  0  0  0
   16.5951   71.4613   18.8600 H   0  0  0  0  0  0
   18.0310   74.3281   23.1691 H   0  0  0  0  0  0
   18.5502   76.7704   22.8634 H   0  0  0  0  0  0
   18.2414   76.6153   21.0846 H   0  0  0  0  0  0
   15.8044   75.8508   21.6201 H   0  0  0  0  0  0
   16.1602   75.9718   23.3899 H   0  0  0  0  0  0
  1  2  1  0  0  0
  1 23  1  0  0  0
  1 24  1  0  0  0
  1 25  1  0  0  0
  2  3  2  0  0  0
  2  7  1  0  0  0
  3  4  1  0  0  0
  3 26  1  0  0  0
  4  5  2  0  0  0
  4 27  1  0  0  0
  5  6  1  0  0  0
  5 28  1  0  0  0
  6  7  2  0  0  0
  6 29  1  0  0  0
  7  8  1  0  0  0
  8  9  1  0  0  0
  8 20  1  0  0  0
  8 30  1  0  0  0
  9 10  1  0  0  0
  9 31  1  0  0  0
  9 32  1  0  0  0
 10 11  2  0  0  0
 10 19  1  0  0  0
 11 12  1  0  0  0
 11 33  1  0  0  0
 12 13  2  0  0  0
 12 34  1  0  0  0
 13 14  1  0  0  0
 14 15  1  0  0  0
 14 19  2  0  0  0
 15 16  1  0  0  0
 15 35  1  0  0  0
 16 17  2  0  0  0
 16 18  1  0  0  0
 18 36  1  0  0  0
 18 37  1  0  0  0
 19 38  1  0  0  0
 20 21  1  0  0  0
 20 22  1  0  0  0
 20 39  1  0  0  0
 21 22  1  0  0  0
 21 40  1  0  0  0
 21 41  1  0  0  0
 22 42  1  0  0  0
 22 43  1  0  0  0
M  END
> <s_m_entry_id>
9820

> <s_m_entry_name>
dock_pv.260

> <s_m_Source_Path>
/home/csk/Desktop/cluster/DUD-E-result/mcr

> <s_m_Source_File>
dock_pv.maegz

> <i_m_Source_File_Index>
260

> <chembl_id>
CHEMBL3643675

> <chembl_pref_name>
None

> <i_lp_mmshare_version>
53161

> <i_f3d_flags>
0

> <r_lp_tautomer_probability>
1

> <s_lp_Force_Field>
OPLS_2005

> <r_lp_Energy>
18.125982

> <b_lp_Chiralities_Consistent>
1

> <s_lp_Variant>
CHEMBL1994_lig810-2

> <s_i_glide_gridfile>
glide-grid_2aa2

> <i_i_glide_lignum>
1230

> <i_i_glide_rotatable_bonds>
6

> <r_i_docking_score>
-6.98226712494046

> <r_i_glide_ligand_efficiency>
-0.317375778406385

> <r_i_glide_ligand_efficiency_sa>
-0.889299412775771

> <r_i_glide_ligand_efficiency_ln>
-1.70672076971696

> <r_i_glide_gscore>
-6.98226712494046

> <r_i_glide_lipo>
-3.68342336062357

> <r_i_glide_hbond>
-0.451547468916337

> <r_i_glide_metal>
0

> <r_i_glide_rewards>
-1.65413081677309

> <r_i_glide_evdw>
-31.7903251647949

> <r_i_glide_ecoul>
-4.35047626495361

> <r_i_glide_erotb>
1.04892221935532

> <r_i_glide_esite>
0

> <r_i_glide_emodel>
-37.5104157486411

> <r_i_glide_energy>
-36.1408014297485

> <r_i_glide_einternal>
14.8283672332764

> <i_i_glide_confnum>
26

> <i_i_glide_posenum>
97

> <r_i_glide_eff_state_penalty>
0

> <s_user_duplicate_titles>
CHEMBL1994_lig810

> <s_m_subgroup_title>
dock_pv

> <s_m_subgroupid>
dock_pv

> <b_m_subgroup_collapsed>
1

$$$$
CHEMBL1994_lig793
                    3D
 Schrodinger Suite 2021-1.
 34 36  0  0  1  0            999 V2000
   17.4234   75.9164   24.4703 N   0  0  0  0  0  0
   18.2097   75.4020   23.5440 C   0  0  0  0  0  0
   18.6400   76.0510   22.5963 O   0  0  0  0  0  0
   18.3616   74.0984   23.7868 N   0  0  0  0  0  0
   18.6408   73.0734   22.8922 C   0  0  0  0  0  0
   19.1396   73.2528   21.6096 C   0  0  0  0  0  0
   19.2257   72.1343   20.7776 C   0  0  0  0  0  0
   18.7556   70.8942   21.1927 C   0  0  0  0  0  0
   18.2407   70.8165   22.4701 C   0  0  0  0  0  0
   18.2408   71.8620   23.3299 N   0  0  0  0  0  0
   19.9355   72.3057   19.5268 C   0  0  0  0  0  0
   21.0135   73.1292   19.3620 C   0  0  0  0  0  0
   21.3952   72.9269   18.0706 C   0  0  0  0  0  0
   20.6409   72.0759   17.4206 N   0  0  0  0  0  0
   19.7498   71.6611   18.3205 N   0  0  0  0  0  0
   18.8351   70.6648   17.9395 C   0  0  0  0  0  0
   17.4731   70.7881   18.2308 C   0  0  0  0  0  0
   16.5909   69.7825   17.8414 C   0  0  0  0  0  0
   17.0639   68.6621   17.1598 C   0  0  0  0  0  0
   18.4231   68.5391   16.8670 C   0  0  0  0  0  0
   19.0408   67.1395   16.0700 Cl  0  0  0  0  0  0
   19.3046   69.5405   17.2511 C   0  0  0  0  0  0
   17.0408   75.3306   25.1934 H   0  0  0  0  0  0
   17.3914   76.9203   24.5800 H   0  0  0  0  0  0
   18.0259   73.7684   24.6760 H   0  0  0  0  0  0
   19.4717   74.2206   21.2669 H   0  0  0  0  0  0
   18.8160   70.0147   20.5689 H   0  0  0  0  0  0
   17.8411   69.8891   22.8433 H   0  0  0  0  0  0
   21.4770   73.7755   20.0939 H   0  0  0  0  0  0
   22.2409   73.4446   17.6700 H   0  0  0  0  0  0
   17.0976   71.6523   18.7597 H   0  0  0  0  0  0
   15.5395   69.8690   18.0746 H   0  0  0  0  0  0
   16.3734   67.8818   16.8821 H   0  0  0  0  0  0
   20.3562   69.4328   17.0242 H   0  0  0  0  0  0
  1  2  1  0  0  0
  1 23  1  0  0  0
  1 24  1  0  0  0
  2  3  2  0  0  0
  2  4  1  0  0  0
  4  5  1  0  0  0
  4 25  1  0  0  0
  5  6  2  0  0  0
  5 10  1  0  0  0
  6  7  1  0  0  0
  6 26  1  0  0  0
  7  8  2  0  0  0
  7 11  1  0  0  0
  8  9  1  0  0  0
  8 27  1  0  0  0
  9 10  2  0  0  0
  9 28  1  0  0  0
 11 12  2  0  0  0
 11 15  1  0  0  0
 12 13  1  0  0  0
 12 29  1  0  0  0
 13 14  2  0  0  0
 13 30  1  0  0  0
 14 15  1  0  0  0
 15 16  1  0  0  0
 16 17  2  0  0  0
 16 22  1  0  0  0
 17 18  1  0  0  0
 17 31  1  0  0  0
 18 19  2  0  0  0
 18 32  1  0  0  0
 19 20  1  0  0  0
 19 33  1  0  0  0
 20 21  1  0  0  0
 20 22  2  0  0  0
 22 34  1  0  0  0
M  END
> <s_m_entry_id>
9821

> <s_m_entry_name>
dock_pv.261

> <s_m_Source_Path>
/home/csk/Desktop/cluster/DUD-E-result/mcr

> <s_m_Source_File>
dock_pv.maegz

> <i_m_Source_File_Index>
261

> <chembl_id>
CHEMBL3643659

> <chembl_pref_name>
None

> <i_lp_mmshare_version>
53161

> <i_f3d_flags>
0

> <r_lp_tautomer_probability>
1

> <s_lp_Force_Field>
OPLS_2005

> <r_lp_Energy>
9.868017

> <b_lp_Chiralities_Consistent>
1

> <s_lp_Variant>
CHEMBL1994_lig793-1

> <s_i_glide_gridfile>
glide-grid_2aa2

> <i_i_glide_lignum>
1209

> <i_i_glide_rotatable_bonds>
4

> <r_i_docking_score>
-6.97953488361614

> <r_i_glide_ligand_efficiency>
-0.317251585618915

> <r_i_glide_ligand_efficiency_sa>
-0.888951419701057

> <r_i_glide_ligand_efficiency_ln>
-1.70605291027637

> <r_i_glide_gscore>
-6.97953488361614

> <r_i_glide_lipo>
-3.46866732436851

> <r_i_glide_hbond>
-0.0941127893103521

> <r_i_glide_metal>
0

> <r_i_glide_rewards>
-2.27447658632313

> <r_i_glide_evdw>
-28.5872344970703

> <r_i_glide_ecoul>
-1.82355403900146

> <r_i_glide_erotb>
0.566221789438874

> <r_i_glide_esite>
-0.00560514234927837

> <r_i_glide_emodel>
-34.1098445744179

> <r_i_glide_energy>
-30.4107885360718

> <r_i_glide_einternal>
10.7198305130005

> <i_i_glide_confnum>
36

> <i_i_glide_posenum>
324

> <r_i_glide_eff_state_penalty>
0

> <s_user_duplicate_titles>
CHEMBL1994_lig793

> <s_m_subgroup_title>
dock_pv

> <s_m_subgroupid>
dock_pv

> <b_m_subgroup_collapsed>
1

$$$$
CHEMBL1994_lig1105
                    3D
 Schrodinger Suite 2021-1.
 24 25  0  0  1  0            999 V2000
   21.0126   71.4755   18.4862 C   0  0  0  0  0  0
   20.1386   72.2133   19.2805 C   0  0  0  0  0  0
   18.7625   71.9433   19.3394 C   0  0  0  0  0  0
   20.5613   70.4085   17.7177 C   0  0  0  0  0  0
   19.2064   70.0568   17.7811 C   0  0  0  0  0  0
   18.3249   70.8322   18.5961 C   0  0  0  0  0  0
   17.0698   70.2568   18.4710 N   0  0  0  0  0  0
   17.1303   69.1682   17.6404 C   0  0  0  0  0  0
   18.4221   69.0194   17.1792 C   0  0  0  0  0  0
   17.8411   72.7159   20.0638 N   0  0  0  0  0  0
   18.1776   74.1280   21.0816 S   0  0  0  0  0  0
   18.7261   73.3128   22.6760 C   0  0  0  0  0  0
   16.8815   74.7736   21.3042 O   0  0  0  0  0  0
   19.2983   74.8750   20.5060 O   0  0  0  0  0  0
   22.0615   71.7420   18.4692 H   0  0  0  0  0  0
   20.5697   73.0221   19.8500 H   0  0  0  0  0  0
   21.2459   69.8563   17.0949 H   0  0  0  0  0  0
   16.2129   70.5342   18.9358 H   0  0  0  0  0  0
   16.2413   68.5836   17.4554 H   0  0  0  0  0  0
   18.7692   68.2409   16.5183 H   0  0  0  0  0  0
   16.8752   72.4336   20.0377 H   0  0  0  0  0  0
   18.9746   74.0893   23.3974 H   0  0  0  0  0  0
   19.5948   72.6965   22.4605 H   0  0  0  0  0  0
   17.9082   72.6984   23.0476 H   0  0  0  0  0  0
  1  2  2  0  0  0
  1  4  1  0  0  0
  1 15  1  0  0  0
  2  3  1  0  0  0
  2 16  1  0  0  0
  3  6  2  0  0  0
  3 10  1  0  0  0
  4  5  2  0  0  0
  4 17  1  0  0  0
  5  6  1  0  0  0
  5  9  1  0  0  0
  6  7  1  0  0  0
  7  8  1  0  0  0
  7 18  1  0  0  0
  8  9  2  0  0  0
  8 19  1  0  0  0
  9 20  1  0  0  0
 10 11  1  0  0  0
 10 21  1  0  0  0
 11 12  1  0  0  0
 11 13  2  0  0  0
 11 14  2  0  0  0
 12 22  1  0  0  0
 12 23  1  0  0  0
 12 24  1  0  0  0
M  END
> <s_m_entry_id>
9822

> <s_m_entry_name>
dock_pv.262

> <s_m_Source_Path>
/home/csk/Desktop/cluster/DUD-E-result/mcr

> <s_m_Source_File>
dock_pv.maegz

> <i_m_Source_File_Index>
262

> <chembl_id>
CHEMBL3605925

> <chembl_pref_name>
None

> <i_lp_mmshare_version>
53161

> <i_f3d_flags>
0

> <r_lp_tautomer_probability>
1

> <s_lp_Force_Field>
OPLS_2005

> <r_lp_Energy>
-0.573726

> <b_lp_Chiralities_Consistent>
1

> <s_lp_Variant>
CHEMBL1994_lig1105-1

> <s_i_glide_gridfile>
glide-grid_2aa2

> <i_i_glide_lignum>
1591

> <i_i_glide_rotatable_bonds>
2

> <r_i_docking_score>
-6.97866427142261

> <r_i_glide_ligand_efficiency>
-0.498476019387329

> <r_i_glide_ligand_efficiency_sa>
-1.20139812094638

> <r_i_glide_ligand_efficiency_ln>
-1.91771209940252

> <r_i_glide_gscore>
-6.97866427142261

> <r_i_glide_lipo>
-2.36839877290528

> <r_i_glide_hbond>
-0.265513726611232

> <r_i_glide_metal>
0

> <r_i_glide_rewards>
-2.53428143523045

> <r_i_glide_evdw>
-32.8770942687988

> <r_i_glide_ecoul>
-1.11077082157135

> <r_i_glide_erotb>
0

> <r_i_glide_esite>
0

> <r_i_glide_emodel>
-48.0793880418328

> <r_i_glide_energy>
-33.9878650903702

> <r_i_glide_einternal>
0.337570637464523

> <i_i_glide_confnum>
1

> <i_i_glide_posenum>
365

> <r_i_glide_eff_state_penalty>
0

> <s_user_duplicate_titles>
CHEMBL1994_lig1105

> <s_m_subgroup_title>
dock_pv

> <s_m_subgroupid>
dock_pv

> <b_m_subgroup_collapsed>
1

$$$$
CHEMBL1994_lig595
                    3D
 Schrodinger Suite 2021-1.
 49 51  0  0  1  0            999 V2000
   18.2887   74.6629   20.7718 C   0  0  0  0  0  0
   17.3616   75.3276   19.7874 C   0  0  0  0  0  0
   18.5680   75.8270   21.7807 C   0  0  0  0  0  0
   18.0889   72.3949   22.3046 C   0  0  2  0  0  0
   17.6851   70.6616   19.8571 N   0  0  0  0  0  0
   18.9440   70.7352   20.4043 C   0  0  0  0  0  0
   19.8027   70.0779   19.5322 C   0  0  0  0  0  0
   17.6853   69.9228   18.6975 C   0  0  0  0  0  0
   19.0405   69.6518   18.3972 C   0  0  0  0  0  0
   19.4085   69.0646   17.2470 N   0  0  0  0  0  0
   18.3775   68.6365   16.4738 C   0  0  0  0  0  0
   17.0483   68.7555   16.7340 N   0  0  0  0  0  0
   16.6876   69.4430   17.8489 C   0  0  0  0  0  0
   19.2076   71.4455   21.7329 C   0  0  0  0  0  0
   17.4624   73.4766   21.3736 C   0  0  0  0  0  0
   19.5506   74.1060   20.0706 C   0  0  0  0  0  0
   20.7421   74.2268   20.7914 C   0  0  0  0  0  0
   21.8333   73.4622   20.4704 C   0  0  0  0  0  0
   21.8399   72.6618   19.3214 C   0  0  0  0  0  0
   20.7543   72.7080   18.4679 C   0  0  0  0  0  0
   19.5796   73.3636   18.8456 C   0  0  0  0  0  0
   18.4772   73.0934   23.6628 C   0  0  0  0  0  0
   17.0411   71.4619   22.4700 O   0  0  0  0  0  0
   18.2416   72.2642   24.6782 F   0  0  0  0  0  0
   19.7567   73.4412   23.6513 F   0  0  0  0  0  0
   17.8412   74.2315   23.9863 F   0  0  0  0  0  0
   18.4060   73.1035   17.9026 C   0  0  0  0  0  0
   16.5129   75.8617   20.2133 H   0  0  0  0  0  0
   17.8402   75.8618   19.0035 H   0  0  0  0  0  0
   16.9911   74.5102   19.2695 H   0  0  0  0  0  0
   17.6471   76.2131   22.2211 H   0  0  0  0  0  0
   19.1971   75.5713   22.6261 H   0  0  0  0  0  0
   19.0562   76.6662   21.2819 H   0  0  0  0  0  0
   16.8850   71.0169   20.3639 H   0  0  0  0  0  0
   20.8668   69.9766   19.6790 H   0  0  0  0  0  0
   18.6518   68.1282   15.5628 H   0  0  0  0  0  0
   15.6357   69.5757   18.0628 H   0  0  0  0  0  0
   20.1529   71.9570   21.6692 H   0  0  0  0  0  0
   19.4092   70.6687   22.4691 H   0  0  0  0  0  0
   16.6396   73.9488   21.9114 H   0  0  0  0  0  0
   16.9444   72.9483   20.5792 H   0  0  0  0  0  0
   20.8283   74.7745   21.7127 H   0  0  0  0  0  0
   22.6412   73.4644   21.1660 H   0  0  0  0  0  0
   22.7022   72.0620   19.0753 H   0  0  0  0  0  0
   20.7959   72.1274   17.5580 H   0  0  0  0  0  0
   16.3725   71.9470   22.9890 H   0  0  0  0  0  0
   17.4907   72.8197   18.4038 H   0  0  0  0  0  0
   18.2407   73.9658   17.2604 H   0  0  0  0  0  0
   18.5610   72.2238   17.2768 H   0  0  0  0  0  0
  1  2  1  0  0  0
  1  3  1  0  0  0
  1 15  1  0  0  0
  1 16  1  0  0  0
  2 28  1  0  0  0
  2 29  1  0  0  0
  2 30  1  0  0  0
  3 31  1  0  0  0
  3 32  1  0  0  0
  3 33  1  0  0  0
  4 14  1  0  0  0
  4 15  1  0  0  0
  4 22  1  0  0  0
  4 23  1  0  0  0
  5  8  1  0  0  0
  5  6  1  0  0  0
  5 34  1  0  0  0
  6  7  2  0  0  0
  6 14  1  0  0  0
  7  9  1  0  0  0
  7 35  1  0  0  0
  8  9  2  0  0  0
  8 13  1  0  0  0
  9 10  1  0  0  0
 10 11  2  0  0  0
 11 12  1  0  0  0
 11 36  1  0  0  0
 12 13  2  0  0  0
 13 37  1  0  0  0
 14 38  1  0  0  0
 14 39  1  0  0  0
 15 40  1  0  0  0
 15 41  1  0  0  0
 16 17  2  0  0  0
 16 21  1  0  0  0
 17 18  1  0  0  0
 17 42  1  0  0  0
 18 19  2  0  0  0
 18 43  1  0  0  0
 19 20  1  0  0  0
 19 44  1  0  0  0
 20 21  2  0  0  0
 20 45  1  0  0  0
 21 27  1  0  0  0
 22 24  1  0  0  0
 22 25  1  0  0  0
 22 26  1  0  0  0
 23 46  1  0  0  0
 27 47  1  0  0  0
 27 48  1  0  0  0
 27 49  1  0  0  0
M  END
> <s_m_entry_id>
9823

> <s_m_entry_name>
dock_pv.263

> <s_m_Source_Path>
/home/csk/Desktop/cluster/DUD-E-result/mcr

> <s_m_Source_File>
dock_pv.maegz

> <i_m_Source_File_Index>
263

> <chembl_id>
CHEMBL3126943

> <chembl_pref_name>
None

> <i_lp_mmshare_version>
53161

> <i_f3d_flags>
0

> <r_lp_tautomer_probability>
0.999994916353044

> <s_lp_Force_Field>
OPLS_2005

> <r_lp_Energy>
34.037875

> <b_lp_Chiralities_Consistent>
1

> <s_lp_Variant>
CHEMBL1994_lig595-1

> <s_i_glide_gridfile>
glide-grid_2aa2

> <i_i_glide_lignum>
947

> <i_i_glide_rotatable_bonds>
7

> <r_i_docking_score>
-6.96838238373383

> <r_i_glide_ligand_efficiency>
-0.258088236434586

> <r_i_glide_ligand_efficiency_sa>
-0.774264708453143

> <r_i_glide_ligand_efficiency_ln>
-1.62212453617106

> <r_i_glide_gscore>
-6.96838238373383

> <r_i_glide_lipo>
-3.97461537204452

> <r_i_glide_hbond>
-0.274087562630294

> <r_i_glide_metal>
0

> <r_i_glide_rewards>
-1.8585499173068

> <r_i_glide_evdw>
-3.55533528327942

> <r_i_glide_ecoul>
-7.97616291046143

> <r_i_glide_erotb>
0.543919692093442

> <r_i_glide_esite>
-0.0308580231124856

> <r_i_glide_emodel>
-16.4115615059868

> <r_i_glide_energy>
-11.5314981937408

> <r_i_glide_einternal>
13.5335283279419

> <i_i_glide_confnum>
30

> <i_i_glide_posenum>
51

> <r_i_glide_eff_state_penalty>
0

> <s_user_duplicate_titles>
CHEMBL1994_lig595

> <s_m_subgroup_title>
dock_pv

> <s_m_subgroupid>
dock_pv

> <b_m_subgroup_collapsed>
1

$$$$
CHEMBL1994_lig246
                    3D
 Schrodinger Suite 2021-1.
 36 37  0  0  1  0            999 V2000
   19.1021   72.8912   19.3638 C   0  0  0  0  0  0
   19.4178   71.3782   19.4373 C   0  0  1  0  0  0
   18.9723   70.8199   20.7647 C   0  0  0  0  0  0
   18.5245   73.5829   20.3880 C   0  0  0  0  0  0
   18.1766   72.9201   21.5282 N   0  0  0  0  0  0
   18.3643   71.5785   21.6942 C   0  0  0  0  0  0
   18.9043   70.4891   18.2863 C   0  0  0  0  0  0
   19.4061   73.4619   18.0700 C   0  0  0  0  0  0
   19.7767   69.8405   17.3956 C   0  0  0  0  0  0
   19.0455   69.4100   20.8700 C   0  0  0  0  0  0
   19.0411   68.2620   20.8699 N   0  0  0  0  0  0
   19.2681   68.9361   16.4700 C   0  0  0  0  0  0
   17.5269   70.2257   18.2065 C   0  0  0  0  0  0
   20.2253   72.9208   17.3320 O   0  0  0  0  0  0
   17.9105   68.6620   16.4198 C   0  0  0  0  0  0
   21.4887   70.0737   17.4286 Cl  0  0  0  0  0  0
   17.0341   69.2995   17.2923 C   0  0  0  0  0  0
   18.6410   74.5171   17.7530 O   0  0  0  0  0  0
   18.2805   75.0754   20.4992 C   0  0  0  0  0  0
   17.4410   67.8621   15.4486 F   0  0  0  0  0  0
   17.7222   71.0620   22.9189 C   0  0  0  0  0  0
   18.6414   75.1282   16.4751 C   0  0  0  0  0  0
   20.5047   71.3026   19.4564 H   0  0  0  0  0  0
   17.6267   73.4088   22.2222 H   0  0  0  0  0  0
   19.9260   68.4308   15.7866 H   0  0  0  0  0  0
   16.8390   70.7050   18.8895 H   0  0  0  0  0  0
   15.9760   69.0905   17.2539 H   0  0  0  0  0  0
   19.1389   75.5820   20.0708 H   0  0  0  0  0  0
   17.3720   75.3706   19.9729 H   0  0  0  0  0  0
   18.2081   75.4202   21.5317 H   0  0  0  0  0  0
   18.2153   71.4619   23.8042 H   0  0  0  0  0  0
   16.6827   71.3861   22.9138 H   0  0  0  0  0  0
   17.7694   69.9783   22.8699 H   0  0  0  0  0  0
   18.3907   76.1850   16.5536 H   0  0  0  0  0  0
   19.5994   75.0623   15.9655 H   0  0  0  0  0  0
   17.8412   74.6777   15.8954 H   0  0  0  0  0  0
  1  2  1  0  0  0
  1  4  2  0  0  0
  1  8  1  0  0  0
  2  3  1  0  0  0
  2  7  1  0  0  0
  2 23  1  0  0  0
  3  6  2  0  0  0
  3 10  1  0  0  0
  4  5  1  0  0  0
  4 19  1  0  0  0
  5  6  1  0  0  0
  5 24  1  0  0  0
  6 21  1  0  0  0
  7  9  2  0  0  0
  7 13  1  0  0  0
  8 14  2  0  0  0
  8 18  1  0  0  0
  9 12  1  0  0  0
  9 16  1  0  0  0
 10 11  3  0  0  0
 12 15  2  0  0  0
 12 25  1  0  0  0
 13 17  2  0  0  0
 13 26  1  0  0  0
 15 17  1  0  0  0
 15 20  1  0  0  0
 17 27  1  0  0  0
 18 22  1  0  0  0
 19 28  1  0  0  0
 19 29  1  0  0  0
 19 30  1  0  0  0
 21 31  1  0  0  0
 21 32  1  0  0  0
 21 33  1  0  0  0
 22 34  1  0  0  0
 22 35  1  0  0  0
 22 36  1  0  0  0
M  END
> <s_m_entry_id>
9824

> <s_m_entry_name>
dock_pv.264

> <s_m_Source_Path>
/home/csk/Desktop/cluster/DUD-E-result/mcr

> <s_m_Source_File>
dock_pv.maegz

> <i_m_Source_File_Index>
264

> <chembl_id>
CHEMBL1215403

> <chembl_pref_name>
None

> <i_lp_mmshare_version>
53161

> <i_f3d_flags>
0

> <r_lp_tautomer_probability>
1

> <s_lp_Force_Field>
OPLS_2005

> <r_lp_Energy>
14.610401

> <b_lp_Chiralities_Consistent>
1

> <s_lp_Variant>
CHEMBL1994_lig246-2

> <s_i_glide_gridfile>
glide-grid_2aa2

> <i_i_glide_lignum>
413

> <i_i_glide_rotatable_bonds>
3

> <r_i_docking_score>
-6.93734734862759

> <r_i_glide_ligand_efficiency>
-0.315333970392163

> <r_i_glide_ligand_efficiency_sa>
-0.88357818642017

> <r_i_glide_ligand_efficiency_ln>
-1.69574073789744

> <r_i_glide_gscore>
-6.93734734862759

> <r_i_glide_lipo>
-3.46782080334293

> <r_i_glide_hbond>
-0.0170987468405181

> <r_i_glide_metal>
0

> <r_i_glide_rewards>
-2.42817302969652

> <r_i_glide_evdw>
-12.6916580200195

> <r_i_glide_ecoul>
-4.46441030502319

> <r_i_glide_erotb>
0.36309112973887

> <r_i_glide_esite>
-0.0831014517320365

> <r_i_glide_emodel>
-32.5344348476869

> <r_i_glide_energy>
-17.1560683250427

> <r_i_glide_einternal>
3.96530199050903

> <i_i_glide_confnum>
4

> <i_i_glide_posenum>
58

> <r_i_glide_eff_state_penalty>
0

> <s_user_duplicate_titles>
CHEMBL1994_lig246

> <s_m_subgroup_title>
dock_pv

> <s_m_subgroupid>
dock_pv

> <b_m_subgroup_collapsed>
1

$$$$
CHEMBL1994_lig147
                    3D
 Schrodinger Suite 2021-1.
 40 42  0  0  1  0            999 V2000
   18.0168   72.6713   18.0684 C   0  0  0  0  0  0
   19.1541   73.4623   17.9385 C   0  0  0  0  0  0
   20.4062   72.8755   18.0693 C   0  0  0  0  0  0
   20.5261   71.5334   18.4086 C   0  0  0  0  0  0
   19.3628   70.8039   18.7365 C   0  0  0  0  0  0
   18.1070   71.3332   18.4169 C   0  0  0  0  0  0
   19.4156   69.5582   20.0119 S   0  0  0  0  0  0
   18.5613   70.2620   21.3554 N   0  0  3  0  0  0
   18.6411   68.3988   19.5639 O   0  0  0  0  0  0
   20.7909   69.4606   20.4794 O   0  0  0  0  0  0
   19.1114   71.3515   22.1745 C   0  0  1  0  0  0
   19.7651   72.4522   21.2936 C   0  0  0  0  0  0
   17.9717   71.8247   23.0680 C   0  0  0  0  0  0
   19.8163   73.8147   21.9035 C   0  0  0  0  0  0
   20.8685   74.4845   22.4683 C   0  0  0  0  0  0
   20.3554   75.4617   23.2691 N   0  0  0  0  0  0
   18.6757   74.6573   22.0560 C   0  0  0  0  0  0
   19.0036   75.5851   23.0663 C   0  0  0  0  0  0
   18.0424   76.3947   23.6638 C   0  0  0  0  0  0
   16.7318   76.2630   23.2114 C   0  0  0  0  0  0
   16.4218   75.4619   22.1155 C   0  0  0  0  0  0
   17.3747   74.6369   21.5346 C   0  0  0  0  0  0
   22.1304   70.8866   18.4700 Cl  0  0  0  0  0  0
   16.6436   70.4181   18.4896 Cl  0  0  0  0  0  0
   17.0465   73.0826   17.8774 H   0  0  0  0  0  0
   19.0605   74.5051   17.6701 H   0  0  0  0  0  0
   21.2914   73.4689   17.9051 H   0  0  0  0  0  0
   17.6389   69.8975   21.5995 H   0  0  0  0  0  0
   19.8411   70.9127   22.8451 H   0  0  0  0  0  0
   20.7418   72.1261   20.9388 H   0  0  0  0  0  0
   19.1224   72.6028   20.4433 H   0  0  0  0  0  0
   18.2223   72.7037   23.6574 H   0  0  0  0  0  0
   17.0723   72.0150   22.4693 H   0  0  0  0  0  0
   17.7681   71.0769   23.8157 H   0  0  0  0  0  0
   21.9189   74.2451   22.5235 H   0  0  0  0  0  0
   20.9307   76.0099   23.8923 H   0  0  0  0  0  0
   18.2915   77.0599   24.4691 H   0  0  0  0  0  0
   15.9549   76.8518   23.6700 H   0  0  0  0  0  0
   15.4189   75.4399   21.7352 H   0  0  0  0  0  0
   17.0990   73.9507   20.7482 H   0  0  0  0  0  0
  1  6  1  0  0  0
  1  2  2  0  0  0
  1 25  1  0  0  0
  2  3  1  0  0  0
  2 26  1  0  0  0
  3  4  2  0  0  0
  3 27  1  0  0  0
  4  5  1  0  0  0
  4 23  1  0  0  0
  5  7  1  0  0  0
  5  6  2  0  0  0
  6 24  1  0  0  0
  7  8  1  0  0  0
  7  9  2  0  0  0
  7 10  2  0  0  0
  8 11  1  0  0  0
  8 28  1  0  0  0
 11 12  1  0  0  0
 11 13  1  0  0  0
 11 29  1  0  0  0
 12 14  1  0  0  0
 12 30  1  0  0  0
 12 31  1  0  0  0
 13 32  1  0  0  0
 13 33  1  0  0  0
 13 34  1  0  0  0
 14 15  2  0  0  0
 14 17  1  0  0  0
 15 16  1  0  0  0
 15 35  1  0  0  0
 16 18  1  0  0  0
 16 36  1  0  0  0
 17 18  2  0  0  0
 17 22  1  0  0  0
 18 19  1  0  0  0
 19 20  2  0  0  0
 19 37  1  0  0  0
 20 21  1  0  0  0
 20 38  1  0  0  0
 21 22  2  0  0  0
 21 39  1  0  0  0
 22 40  1  0  0  0
M  END
> <s_m_entry_id>
9825

> <s_m_entry_name>
dock_pv.265

> <s_m_Source_Path>
/home/csk/Desktop/cluster/DUD-E-result/mcr

> <s_m_Source_File>
dock_pv.maegz

> <i_m_Source_File_Index>
265

> <chembl_id>
CHEMBL233660

> <chembl_pref_name>
None

> <i_lp_mmshare_version>
53161

> <i_f3d_flags>
0

> <r_lp_tautomer_probability>
1

> <s_lp_Force_Field>
OPLS_2005

> <r_lp_Energy>
13.275075

> <b_lp_Chiralities_Consistent>
1

> <s_lp_Variant>
CHEMBL1994_lig147-2

> <s_i_glide_gridfile>
glide-grid_2aa2

> <i_i_glide_lignum>
244

> <i_i_glide_rotatable_bonds>
5

> <r_i_docking_score>
-6.93442534663374

> <r_i_glide_ligand_efficiency>
-0.288934389443072

> <r_i_glide_ligand_efficiency_sa>
-0.833430997159713

> <r_i_glide_ligand_efficiency_ln>
-1.65972618549442

> <r_i_glide_gscore>
-6.93442534663374

> <r_i_glide_lipo>
-4.38929625696492

> <r_i_glide_hbond>
0

> <r_i_glide_metal>
0

> <r_i_glide_rewards>
-1.88858953226559

> <r_i_glide_evdw>
-27.5564479827881

> <r_i_glide_ecoul>
2.16336989402771

> <r_i_glide_erotb>
0.396777357632018

> <r_i_glide_esite>
0

> <r_i_glide_emodel>
-41.7451524370093

> <r_i_glide_energy>
-25.3930780887604

> <r_i_glide_einternal>
8.77903842926025

> <i_i_glide_confnum>
23

> <i_i_glide_posenum>
180

> <r_i_glide_eff_state_penalty>
0

> <s_user_duplicate_titles>
CHEMBL1994_lig147

> <s_m_subgroup_title>
dock_pv

> <s_m_subgroupid>
dock_pv

> <b_m_subgroup_collapsed>
1

$$$$
CHEMBL1994_lig823
                    3D
 Schrodinger Suite 2021-1.
 37 38  0  0  1  0            999 V2000
   16.4863   76.4261   23.9410 C   0  0  0  0  0  0
   16.5453   75.8620   22.6502 O   0  0  0  0  0  0
   17.7557   75.4319   22.1705 C   0  0  0  0  0  0
   18.9564   75.4620   22.8940 C   0  0  0  0  0  0
   20.1281   74.9995   22.3083 C   0  0  0  0  0  0
   20.1036   74.4987   21.0065 C   0  0  0  0  0  0
   21.3980   73.9615   20.4125 C   0  0  0  0  0  0
   21.2605   73.0059   19.1983 C   0  0  0  0  0  0
   20.3879   71.7651   19.3560 C   0  0  0  0  0  0
   19.8410   71.3571   20.5810 C   0  0  0  0  0  0
   19.0287   70.2271   20.6143 C   0  0  0  0  0  0
   18.7355   69.5040   19.5073 N   0  0  0  0  0  0
   19.2801   69.9007   18.3224 C   0  0  0  0  0  0
   19.0410   69.1797   17.1510 N   0  0  0  0  0  0
   17.8824   68.6620   16.7149 C   0  0  0  0  0  0
   17.8410   68.0290   15.6700 O   0  0  0  0  0  0
   16.7746   68.9140   17.4139 N   0  0  0  0  0  0
   20.1203   71.0069   18.2156 C   0  0  0  0  0  0
   18.9063   74.4859   20.2837 C   0  0  0  0  0  0
   17.7380   74.9446   20.8700 C   0  0  0  0  0  0
   15.4409   76.6620   24.0700 H   0  0  0  0  0  0
   17.0652   77.3476   24.0220 H   0  0  0  0  0  0
   16.7831   75.7236   24.7217 H   0  0  0  0  0  0
   18.9951   75.8380   23.9047 H   0  0  0  0  0  0
   21.0513   75.0221   22.8700 H   0  0  0  0  0  0
   21.9738   74.8406   20.1252 H   0  0  0  0  0  0
   21.9711   73.4620   21.1946 H   0  0  0  0  0  0
   20.8983   73.5682   18.3377 H   0  0  0  0  0  0
   22.2410   72.6412   18.9130 H   0  0  0  0  0  0
   20.0262   71.8994   21.4942 H   0  0  0  0  0  0
   18.5885   69.8919   21.5418 H   0  0  0  0  0  0
   19.8018   69.1555   16.4906 H   0  0  0  0  0  0
   15.8926   68.5421   17.1014 H   0  0  0  0  0  0
   16.8509   69.3425   18.3251 H   0  0  0  0  0  0
   20.5401   71.2935   17.2614 H   0  0  0  0  0  0
   18.8620   74.1187   19.2700 H   0  0  0  0  0  0
   16.8125   74.9282   20.3135 H   0  0  0  0  0  0
  1  2  1  0  0  0
  1 21  1  0  0  0
  1 22  1  0  0  0
  1 23  1  0  0  0
  2  3  1  0  0  0
  3  4  2  0  0  0
  3 20  1  0  0  0
  4  5  1  0  0  0
  4 24  1  0  0  0
  5  6  2  0  0  0
  5 25  1  0  0  0
  6  7  1  0  0  0
  6 19  1  0  0  0
  7  8  1  0  0  0
  7 26  1  0  0  0
  7 27  1  0  0  0
  8  9  1  0  0  0
  8 28  1  0  0  0
  8 29  1  0  0  0
  9 10  2  0  0  0
  9 18  1  0  0  0
 10 11  1  0  0  0
 10 30  1  0  0  0
 11 12  2  0  0  0
 11 31  1  0  0  0
 12 13  1  0  0  0
 13 14  1  0  0  0
 13 18  2  0  0  0
 14 15  1  0  0  0
 14 32  1  0  0  0
 15 16  2  0  0  0
 15 17  1  0  0  0
 17 33  1  0  0  0
 17 34  1  0  0  0
 18 35  1  0  0  0
 19 20  2  0  0  0
 19 36  1  0  0  0
 20 37  1  0  0  0
M  END
> <s_m_entry_id>
9826

> <s_m_entry_name>
dock_pv.266

> <s_m_Source_Path>
/home/csk/Desktop/cluster/DUD-E-result/mcr

> <s_m_Source_File>
dock_pv.maegz

> <i_m_Source_File_Index>
266

> <chembl_id>
CHEMBL3643688

> <chembl_pref_name>
None

> <i_lp_mmshare_version>
53161

> <i_f3d_flags>
0

> <r_lp_tautomer_probability>
1

> <s_lp_Force_Field>
OPLS_2005

> <r_lp_Energy>
11.247436

> <b_lp_Chiralities_Consistent>
1

> <s_lp_Variant>
CHEMBL1994_lig823-1

> <s_i_glide_gridfile>
glide-grid_2aa2

> <i_i_glide_lignum>
1249

> <i_i_glide_rotatable_bonds>
6

> <r_i_docking_score>
-6.92893763550862

> <r_i_glide_ligand_efficiency>
-0.346446881775431

> <r_i_glide_ligand_efficiency_sa>
-0.940401518166539

> <r_i_glide_ligand_efficiency_ln>
-1.73408455850965

> <r_i_glide_gscore>
-6.92893763550862

> <r_i_glide_lipo>
-3.65301438879781

> <r_i_glide_hbond>
-0.33257194737323

> <r_i_glide_metal>
0

> <r_i_glide_rewards>
-1.67484618128699

> <r_i_glide_evdw>
-39.0324630737305

> <r_i_glide_ecoul>
-1.93103289604187

> <r_i_glide_erotb>
0.972772970042217

> <r_i_glide_esite>
0

> <r_i_glide_emodel>
-54.5653277948624

> <r_i_glide_energy>
-40.9634959697723

> <r_i_glide_einternal>
3.13367414474487

> <i_i_glide_confnum>
75

> <i_i_glide_posenum>
336

> <r_i_glide_eff_state_penalty>
0

> <s_user_duplicate_titles>
CHEMBL1994_lig823

> <s_m_subgroup_title>
dock_pv

> <s_m_subgroupid>
dock_pv

> <b_m_subgroup_collapsed>
1

$$$$
CHEMBL1994_lig1051
                    3D
 Schrodinger Suite 2021-1.
 50 53  0  0  1  0            999 V2000
   17.8959   74.3719   19.2670 C   0  0  0  0  0  0
   17.8416   73.0178   18.9511 C   0  0  0  0  0  0
   17.4852   72.1032   19.9318 C   0  0  0  0  0  0
   17.1361   72.5660   21.1971 C   0  0  0  0  0  0
   17.0415   73.9390   21.4487 C   0  0  0  0  0  0
   17.4409   74.8488   20.4867 C   0  0  0  0  0  0
   17.4755   70.6095   19.6980 C   0  0  0  0  0  0
   17.8112   70.0243   18.3547 C   0  0  0  0  0  0
   16.6938   69.3415   17.7146 C   0  0  0  0  0  0
   17.0404   68.6617   16.6144 N   0  0  0  0  0  0
   18.2418   68.6368   16.0008 C   0  0  0  0  0  0
   19.2524   69.2493   16.6370 N   0  0  0  0  0  0
   19.0385   69.9504   17.7642 C   0  0  0  0  0  0
   18.3151   68.2769   14.8680 O   0  0  0  0  0  0
   15.5266   69.3456   18.0723 O   0  0  0  0  0  0
   20.2643   70.3919   18.1852 N   0  0  0  0  0  0
   20.8479   69.9653   19.4439 C   0  0  0  0  0  0
   20.6355   71.1028   20.4135 C   0  0  0  0  0  0
   21.0428   71.4594   17.5464 C   0  0  0  0  0  0
   21.0324   72.7451   18.4071 C   0  0  0  0  0  0
   21.1610   72.4792   19.9249 C   0  0  0  0  0  0
   20.8456   73.6378   20.8629 C   0  0  0  0  0  0
   19.9569   73.4540   21.9282 C   0  0  0  0  0  0
   19.8345   74.3519   22.9470 C   0  0  0  0  0  0
   20.6214   75.4707   22.8733 C   0  0  0  0  0  0
   21.4409   75.7549   21.7909 C   0  0  0  0  0  0
   21.5517   74.8355   20.7751 C   0  0  0  0  0  0
   17.0413   71.4154   22.4739 Cl  0  0  0  0  0  0
   18.2409   75.0625   18.5185 H   0  0  0  0  0  0
   18.1135   72.6866   17.9607 H   0  0  0  0  0  0
   16.7982   74.3102   22.4305 H   0  0  0  0  0  0
   17.4582   75.9035   20.6999 H   0  0  0  0  0  0
   18.0197   70.0301   20.4394 H   0  0  0  0  0  0
   16.4564   70.3965   19.9390 H   0  0  0  0  0  0
   16.2652   68.2570   16.1195 H   0  0  0  0  0  0
   20.1867   69.1152   16.2851 H   0  0  0  0  0  0
   20.3556   69.0727   19.8371 H   0  0  0  0  0  0
   21.9060   69.7626   19.2680 H   0  0  0  0  0  0
   19.6146   71.1862   20.6414 H   0  0  0  0  0  0
   21.0386   70.7703   21.3569 H   0  0  0  0  0  0
   22.0155   71.0774   17.2324 H   0  0  0  0  0  0
   20.5338   71.7030   16.6133 H   0  0  0  0  0  0
   21.8578   73.3599   18.0692 H   0  0  0  0  0  0
   20.1785   73.3646   18.1700 H   0  0  0  0  0  0
   22.2415   72.4890   20.0334 H   0  0  0  0  0  0
   19.4415   72.5332   22.1039 H   0  0  0  0  0  0
   19.1891   74.1651   23.7931 H   0  0  0  0  0  0
   20.5488   76.1759   23.6697 H   0  0  0  0  0  0
   22.0213   76.6620   21.7550 H   0  0  0  0  0  0
   22.2405   75.0612   19.9818 H   0  0  0  0  0  0
  1  2  2  0  0  0
  1  6  1  0  0  0
  1 29  1  0  0  0
  2  3  1  0  0  0
  2 30  1  0  0  0
  3  7  1  0  0  0
  3  4  2  0  0  0
  4  5  1  0  0  0
  4 28  1  0  0  0
  5  6  2  0  0  0
  5 31  1  0  0  0
  6 32  1  0  0  0
  7  8  1  0  0  0
  7 33  1  0  0  0
  7 34  1  0  0  0
  8  9  1  0  0  0
  8 13  2  0  0  0
  9 15  2  0  0  0
  9 10  1  0  0  0
 10 11  1  0  0  0
 10 35  1  0  0  0
 11 14  2  0  0  0
 11 12  1  0  0  0
 12 13  1  0  0  0
 12 36  1  0  0  0
 13 16  1  0  0  0
 16 17  1  0  0  0
 16 19  1  0  0  0
 17 18  1  0  0  0
 17 37  1  0  0  0
 17 38  1  0  0  0
 18 21  1  0  0  0
 18 39  1  0  0  0
 18 40  1  0  0  0
 19 20  1  0  0  0
 19 41  1  0  0  0
 19 42  1  0  0  0
 20 21  1  0  0  0
 20 43  1  0  0  0
 20 44  1  0  0  0
 21 22  1  0  0  0
 21 45  1  0  0  0
 22 23  2  0  0  0
 22 27  1  0  0  0
 23 24  1  0  0  0
 23 46  1  0  0  0
 24 25  2  0  0  0
 24 47  1  0  0  0
 25 26  1  0  0  0
 25 48  1  0  0  0
 26 27  2  0  0  0
 26 49  1  0  0  0
 27 50  1  0  0  0
M  END
> <s_m_entry_id>
9827

> <s_m_entry_name>
dock_pv.267

> <s_m_Source_Path>
/home/csk/Desktop/cluster/DUD-E-result/mcr

> <s_m_Source_File>
dock_pv.maegz

> <i_m_Source_File_Index>
267

> <chembl_id>
CHEMBL398171

> <chembl_pref_name>
None

> <i_lp_mmshare_version>
53161

> <i_f3d_flags>
0

> <r_lp_tautomer_probability>
0.983149644547051

> <s_lp_Force_Field>
OPLS_2005

> <r_lp_Energy>
28.262933

> <b_lp_Chiralities_Consistent>
1

> <s_lp_Variant>
CHEMBL1994_lig1051-1

> <s_i_glide_gridfile>
glide-grid_2aa2

> <i_i_glide_lignum>
1525

> <i_i_glide_rotatable_bonds>
4

> <r_i_docking_score>
-6.92254023589928

> <r_i_glide_ligand_efficiency>
-0.247233579853546

> <r_i_glide_ligand_efficiency_sa>
-0.750746761226737

> <r_i_glide_ligand_efficiency_ln>
-1.59792554105884

> <r_i_glide_gscore>
-6.92254023589928

> <r_i_glide_lipo>
-4.82180588195946

> <r_i_glide_hbond>
-0.0127627525471326

> <r_i_glide_metal>
0

> <r_i_glide_rewards>
-2.20531516983355

> <r_i_glide_evdw>
-2.52470135688782

> <r_i_glide_ecoul>
-1.70420396327972

> <r_i_glide_erotb>
0.499209230777211

> <r_i_glide_esite>
0

> <r_i_glide_emodel>
-19.9517713529984

> <r_i_glide_energy>
-4.22890532016754

> <r_i_glide_einternal>
12.6871509552002

> <i_i_glide_confnum>
21

> <i_i_glide_posenum>
341

> <r_i_glide_eff_state_penalty>
0

> <s_user_duplicate_titles>
CHEMBL1994_lig1051

> <s_m_subgroup_title>
dock_pv

> <s_m_subgroupid>
dock_pv

> <b_m_subgroup_collapsed>
1

$$$$
CHEMBL1994_lig154
                    3D
 Schrodinger Suite 2021-1.
 45 46  0  0  1  0            999 V2000
   20.0798   72.6205   19.1335 C   0  0  0  0  0  0
   20.9581   72.9509   20.1756 C   0  0  0  0  0  0
   20.7447   74.0292   21.0326 C   0  0  0  0  0  0
   19.6220   74.8244   20.8705 C   0  0  0  0  0  0
   18.7674   74.5777   19.8044 C   0  0  0  0  0  0
   19.0323   73.5397   18.9003 C   0  0  0  0  0  0
   20.3413   71.3454   18.2454 C   0  0  0  0  0  0
   18.0806   70.4208   20.0037 C   0  0  0  0  0  0
   18.1291   69.7291   18.6352 C   0  0  1  0  0  0
   19.0696   70.5651   17.7198 C   0  0  0  0  0  0
   18.6410   68.4202   18.7295 O   0  0  0  0  0  0
   16.7556   69.4947   17.8959 C   0  0  0  0  0  0
   15.9428   68.6617   18.5279 F   0  0  0  0  0  0
   16.0632   70.6037   17.6699 F   0  0  0  0  0  0
   16.9466   68.9254   16.7029 F   0  0  0  0  0  0
   21.0397   71.8623   17.0132 C   0  0  0  0  0  0
   21.3853   70.3483   18.8348 C   0  0  0  0  0  0
   21.6208   74.2989   22.0255 F   0  0  0  0  0  0
   18.2410   73.4620   17.7919 O   0  0  0  0  0  0
   18.5072   74.4884   16.8421 C   0  0  0  0  0  0
   17.2481   71.5134   20.2091 C   0  0  0  0  0  0
   17.2904   72.2584   21.3768 C   0  0  0  0  0  0
   18.2373   71.9492   22.3402 C   0  0  0  0  0  0
   19.0825   70.8709   22.1433 C   0  0  0  0  0  0
   18.9586   70.0594   21.0271 C   0  0  0  0  0  0
   21.8410   72.3710   20.3310 H   0  0  0  0  0  0
   19.4372   75.6502   21.5413 H   0  0  0  0  0  0
   17.9210   75.2296   19.6449 H   0  0  0  0  0  0
   18.4121   71.2897   17.2700 H   0  0  0  0  0  0
   19.3648   69.9355   16.8769 H   0  0  0  0  0  0
   17.9415   67.8193   19.0083 H   0  0  0  0  0  0
   21.4411   71.0651   16.3853 H   0  0  0  0  0  0
   20.3847   72.4658   16.4104 H   0  0  0  0  0  0
   21.8410   72.4966   17.3690 H   0  0  0  0  0  0
   21.4686   69.4620   18.2087 H   0  0  0  0  0  0
   22.3899   70.7732   18.8700 H   0  0  0  0  0  0
   21.1723   70.0157   19.8402 H   0  0  0  0  0  0
   17.7387   74.5033   16.0707 H   0  0  0  0  0  0
   18.4985   75.4740   17.2807 H   0  0  0  0  0  0
   19.4410   74.3659   16.3258 H   0  0  0  0  0  0
   16.6410   71.8616   19.4104 H   0  0  0  0  0  0
   16.6423   73.1132   21.5055 H   0  0  0  0  0  0
   18.3214   72.5573   23.2297 H   0  0  0  0  0  0
   19.8437   70.6618   22.8698 H   0  0  0  0  0  0
   19.6029   69.1987   20.9335 H   0  0  0  0  0  0
  1  6  1  0  0  0
  1  7  1  0  0  0
  1  2  2  0  0  0
  2  3  1  0  0  0
  2 26  1  0  0  0
  3 18  1  0  0  0
  3  4  2  0  0  0
  4  5  1  0  0  0
  4 27  1  0  0  0
  5  6  2  0  0  0
  5 28  1  0  0  0
  6 19  1  0  0  0
  7 10  1  0  0  0
  7 16  1  0  0  0
  7 17  1  0  0  0
  8  9  1  0  0  0
  8 21  2  0  0  0
  8 25  1  0  0  0
  9 10  1  0  0  0
  9 11  1  0  0  0
  9 12  1  0  0  0
 10 29  1  0  0  0
 10 30  1  0  0  0
 11 31  1  0  0  0
 12 13  1  0  0  0
 12 14  1  0  0  0
 12 15  1  0  0  0
 16 32  1  0  0  0
 16 33  1  0  0  0
 16 34  1  0  0  0
 17 35  1  0  0  0
 17 36  1  0  0  0
 17 37  1  0  0  0
 19 20  1  0  0  0
 20 38  1  0  0  0
 20 39  1  0  0  0
 20 40  1  0  0  0
 21 22  1  0  0  0
 21 41  1  0  0  0
 22 23  2  0  0  0
 22 42  1  0  0  0
 23 24  1  0  0  0
 23 43  1  0  0  0
 24 25  2  0  0  0
 24 44  1  0  0  0
 25 45  1  0  0  0
M  END
> <s_m_entry_id>
9828

> <s_m_entry_name>
dock_pv.268

> <s_m_Source_Path>
/home/csk/Desktop/cluster/DUD-E-result/mcr

> <s_m_Source_File>
dock_pv.maegz

> <i_m_Source_File_Index>
268

> <chembl_id>
CHEMBL236403

> <chembl_pref_name>
None

> <i_lp_mmshare_version>
53161

> <i_f3d_flags>
0

> <r_lp_tautomer_probability>
1

> <s_lp_Force_Field>
OPLS_2005

> <r_lp_Energy>
33.639193

> <b_lp_Chiralities_Consistent>
1

> <s_lp_Variant>
CHEMBL1994_lig154-1

> <s_i_glide_gridfile>
glide-grid_2aa2

> <i_i_glide_lignum>
257

> <i_i_glide_rotatable_bonds>
7

> <r_i_docking_score>
-6.88537425216106

> <r_i_glide_ligand_efficiency>
-0.275414970086442

> <r_i_glide_ligand_efficiency_sa>
-0.80531825703805

> <r_i_glide_ligand_efficiency_ln>
-1.63204003577805

> <r_i_glide_gscore>
-6.88537425216106

> <r_i_glide_lipo>
-4.20813826416572

> <r_i_glide_hbond>
-0.0150422402224361

> <r_i_glide_metal>
0

> <r_i_glide_rewards>
-2.3350806364527

> <r_i_glide_evdw>
-8.16809749603271

> <r_i_glide_ecoul>
-2.32386302947998

> <r_i_glide_erotb>
0.45196283931351

> <r_i_glide_esite>
-0.022091621410084

> <r_i_glide_emodel>
-34.2398581079738

> <r_i_glide_energy>
-10.4919605255127

> <r_i_glide_einternal>
10.3739452362061

> <i_i_glide_confnum>
6

> <i_i_glide_posenum>
259

> <r_i_glide_eff_state_penalty>
0

> <s_user_duplicate_titles>
CHEMBL1994_lig154

> <s_m_subgroup_title>
dock_pv

> <s_m_subgroupid>
dock_pv

> <b_m_subgroup_collapsed>
1

$$$$
CHEMBL1994_lig256
                    3D
 Schrodinger Suite 2021-1.
 42 43  0  0  1  0            999 V2000
   18.9899   72.8850   19.3421 C   0  0  0  0  0  0
   18.9606   70.8056   20.7290 C   0  0  0  0  0  0
   18.3292   73.5358   20.3542 C   0  0  0  0  0  0
   19.3666   71.3785   19.3945 C   0  0  1  0  0  0
   17.9792   72.8232   21.4616 N   0  0  0  0  0  0
   18.2853   71.5137   21.6415 C   0  0  0  0  0  0
   19.3691   73.4624   18.0704 C   0  0  0  0  0  0
   19.0774   69.4058   20.8577 C   0  0  0  0  0  0
   19.0410   68.2619   20.8697 N   0  0  0  0  0  0
   18.7851   70.5055   18.2685 C   0  0  0  0  0  0
   20.2404   72.9403   17.3784 O   0  0  0  0  0  0
   18.6410   74.5217   17.7339 O   0  0  0  0  0  0
   17.8496   74.9844   20.5086 C   0  0  0  0  0  0
   17.7048   70.9557   22.8704 C   0  0  0  0  0  0
   19.6417   69.8618   17.3708 C   0  0  0  0  0  0
   17.4076   70.2534   18.2285 C   0  0  0  0  0  0
   18.6676   75.1495   16.4703 C   0  0  0  0  0  0
   18.7590   75.8751   21.3835 C   0  0  0  0  0  0
   18.9031   75.4469   22.8556 C   0  0  0  0  0  0
   19.1290   68.9346   16.4730 C   0  0  0  0  0  0
   16.8989   69.3177   17.3379 C   0  0  0  0  0  0
   17.7659   68.6619   16.4697 C   0  0  0  0  0  0
   20.4542   71.2843   19.3329 H   0  0  0  0  0  0
   17.4752   73.2969   22.1993 H   0  0  0  0  0  0
   17.6916   75.4801   19.5605 H   0  0  0  0  0  0
   16.8431   74.9809   20.9341 H   0  0  0  0  0  0
   17.8410   69.8782   22.8705 H   0  0  0  0  0  0
   18.1412   71.4498   23.7409 H   0  0  0  0  0  0
   16.6410   71.1205   22.8694 H   0  0  0  0  0  0
   20.7064   70.0449   17.3966 H   0  0  0  0  0  0
   16.7404   70.7382   18.9272 H   0  0  0  0  0  0
   18.4494   76.2122   16.5554 H   0  0  0  0  0  0
   19.6243   75.0628   15.9613 H   0  0  0  0  0  0
   17.8541   74.7395   15.8778 H   0  0  0  0  0  0
   19.7465   75.9610   20.9273 H   0  0  0  0  0  0
   18.3345   76.8759   21.3797 H   0  0  0  0  0  0
   19.4371   76.2041   23.4304 H   0  0  0  0  0  0
   17.9277   75.3094   23.3253 H   0  0  0  0  0  0
   19.4639   74.5172   22.9555 H   0  0  0  0  0  0
   19.7932   68.4066   15.8075 H   0  0  0  0  0  0
   15.8437   69.0907   17.3354 H   0  0  0  0  0  0
   17.3781   67.9299   15.7827 H   0  0  0  0  0  0
  1  3  2  0  0  0
  1  4  1  0  0  0
  1  7  1  0  0  0
  2  4  1  0  0  0
  2  6  2  0  0  0
  2  8  1  0  0  0
  3  5  1  0  0  0
  3 13  1  0  0  0
  4 10  1  0  0  0
  4 23  1  0  0  0
  5  6  1  0  0  0
  5 24  1  0  0  0
  6 14  1  0  0  0
  7 11  2  0  0  0
  7 12  1  0  0  0
  8  9  3  0  0  0
 10 15  2  0  0  0
 10 16  1  0  0  0
 12 17  1  0  0  0
 13 18  1  0  0  0
 13 25  1  0  0  0
 13 26  1  0  0  0
 14 27  1  0  0  0
 14 28  1  0  0  0
 14 29  1  0  0  0
 15 20  1  0  0  0
 15 30  1  0  0  0
 16 21  2  0  0  0
 16 31  1  0  0  0
 17 32  1  0  0  0
 17 33  1  0  0  0
 17 34  1  0  0  0
 18 19  1  0  0  0
 18 35  1  0  0  0
 18 36  1  0  0  0
 19 37  1  0  0  0
 19 38  1  0  0  0
 19 39  1  0  0  0
 20 22  2  0  0  0
 20 40  1  0  0  0
 21 22  1  0  0  0
 21 41  1  0  0  0
 22 42  1  0  0  0
M  END
> <s_m_entry_id>
9829

> <s_m_entry_name>
dock_pv.269

> <s_m_Source_Path>
/home/csk/Desktop/cluster/DUD-E-result/mcr

> <s_m_Source_File>
dock_pv.maegz

> <i_m_Source_File_Index>
269

> <chembl_id>
CHEMBL1215548

> <chembl_pref_name>
None

> <i_lp_mmshare_version>
53161

> <i_f3d_flags>
0

> <r_lp_tautomer_probability>
1

> <s_lp_Force_Field>
OPLS_2005

> <r_lp_Energy>
15.582483

> <b_lp_Chiralities_Consistent>
1

> <s_lp_Variant>
CHEMBL1994_lig256-1

> <s_i_glide_gridfile>
glide-grid_2aa2

> <i_i_glide_lignum>
432

> <i_i_glide_rotatable_bonds>
5

> <r_i_docking_score>
-6.85993865734715

> <r_i_glide_ligand_efficiency>
-0.31181539351578

> <r_i_glide_ligand_efficiency_sa>
-0.873718995634767

> <r_i_glide_ligand_efficiency_ln>
-1.67681923019788

> <r_i_glide_gscore>
-6.85993865734715

> <r_i_glide_lipo>
-3.81784618741449

> <r_i_glide_hbond>
-0.0980906868659197

> <r_i_glide_metal>
0

> <r_i_glide_rewards>
-2.59789826905575

> <r_i_glide_evdw>
-18.7709922790527

> <r_i_glide_ecoul>
-0.221717238426208

> <r_i_glide_erotb>
0.625703685705573

> <r_i_glide_esite>
0

> <r_i_glide_emodel>
-30.1328896866157

> <r_i_glide_energy>
-18.9927095174789

> <r_i_glide_einternal>
4.88963842391968

> <i_i_glide_confnum>
14

> <i_i_glide_posenum>
11

> <r_i_glide_eff_state_penalty>
0

> <s_user_duplicate_titles>
CHEMBL1994_lig256

> <s_m_subgroup_title>
dock_pv

> <s_m_subgroupid>
dock_pv

> <b_m_subgroup_collapsed>
1

$$$$
CHEMBL1994_lig251
                    3D
 Schrodinger Suite 2021-1.
 45 46  0  0  1  0            999 V2000
   18.7377   71.2931   20.5043 C   0  0  0  0  0  0
   19.0037   71.8708   19.0907 C   0  0  2  0  0  0
   18.4357   73.3041   18.9893 C   0  0  0  0  0  0
   18.0741   71.9729   21.4651 C   0  0  0  0  0  0
   17.5391   73.1841   21.1585 N   0  0  0  0  0  0
   17.7609   73.8773   20.0137 C   0  0  0  0  0  0
   19.2250   69.9434   20.7358 C   0  0  0  0  0  0
   18.5687   70.8821   18.0045 C   0  0  0  0  0  0
   18.7114   74.0418   17.8044 C   0  0  0  0  0  0
   18.9995   74.6611   16.8700 N   0  0  0  0  0  0
   19.5088   70.1722   17.2321 C   0  0  0  0  0  0
   18.7879   68.9506   20.1504 O   0  0  0  0  0  0
   20.2409   69.9391   21.5666 O   0  0  0  0  0  0
   17.7799   71.5668   22.9003 C   0  0  0  0  0  0
   21.1970   70.5339   17.2703 Cl  0  0  0  0  0  0
   17.2110   75.2825   20.1258 C   0  0  0  0  0  0
   17.2278   70.4751   17.9918 C   0  0  0  0  0  0
   19.1027   69.0761   16.4745 C   0  0  0  0  0  0
   21.0412   68.7877   21.6699 C   0  0  0  0  0  0
   18.2579   72.5356   24.0303 C   0  0  0  0  0  0
   18.2640   74.0802   23.7919 C   0  0  0  0  0  0
   16.8433   69.3508   17.2700 C   0  0  0  0  0  0
   18.0818   74.9777   25.0127 C   0  0  0  0  0  0
   17.7763   68.6621   16.4994 C   0  0  0  0  0  0
   20.0843   71.9793   19.0232 H   0  0  0  0  0  0
   16.8874   73.5676   21.8301 H   0  0  0  0  0  0
   16.7020   71.4312   22.9418 H   0  0  0  0  0  0
   18.1900   70.5815   23.1052 H   0  0  0  0  0  0
   17.4400   75.8787   19.2668 H   0  0  0  0  0  0
   16.1318   75.2787   20.2643 H   0  0  0  0  0  0
   17.6543   75.7930   20.9818 H   0  0  0  0  0  0
   16.5027   70.9695   18.6227 H   0  0  0  0  0  0
   19.8331   68.5125   15.9156 H   0  0  0  0  0  0
   21.6117   68.8466   22.5946 H   0  0  0  0  0  0
   20.4775   67.8546   21.6686 H   0  0  0  0  0  0
   21.7646   68.7929   20.8700 H   0  0  0  0  0  0
   17.7268   72.2909   24.9497 H   0  0  0  0  0  0
   19.2935   72.2636   24.2126 H   0  0  0  0  0  0
   19.1800   74.3556   23.2663 H   0  0  0  0  0  0
   17.4466   74.4073   23.1622 H   0  0  0  0  0  0
   15.8273   69.0024   17.3176 H   0  0  0  0  0  0
   18.3787   75.9969   24.7709 H   0  0  0  0  0  0
   17.0255   75.0169   25.2703 H   0  0  0  0  0  0
   18.6408   74.6621   25.8890 H   0  0  0  0  0  0
   17.4753   67.8014   15.9335 H   0  0  0  0  0  0
  1  2  1  0  0  0
  1  4  2  0  0  0
  1  7  1  0  0  0
  2  3  1  0  0  0
  2  8  1  0  0  0
  2 25  1  0  0  0
  3  6  2  0  0  0
  3  9  1  0  0  0
  4  5  1  0  0  0
  4 14  1  0  0  0
  5  6  1  0  0  0
  5 26  1  0  0  0
  6 16  1  0  0  0
  7 12  2  0  0  0
  7 13  1  0  0  0
  8 11  2  0  0  0
  8 17  1  0  0  0
  9 10  3  0  0  0
 11 15  1  0  0  0
 11 18  1  0  0  0
 13 19  1  0  0  0
 14 20  1  0  0  0
 14 27  1  0  0  0
 14 28  1  0  0  0
 16 29  1  0  0  0
 16 30  1  0  0  0
 16 31  1  0  0  0
 17 22  2  0  0  0
 17 32  1  0  0  0
 18 24  2  0  0  0
 18 33  1  0  0  0
 19 34  1  0  0  0
 19 35  1  0  0  0
 19 36  1  0  0  0
 20 21  1  0  0  0
 20 37  1  0  0  0
 20 38  1  0  0  0
 21 23  1  0  0  0
 21 39  1  0  0  0
 21 40  1  0  0  0
 22 24  1  0  0  0
 22 41  1  0  0  0
 23 42  1  0  0  0
 23 43  1  0  0  0
 23 44  1  0  0  0
 24 45  1  0  0  0
M  END
> <s_m_entry_id>
9830

> <s_m_entry_name>
dock_pv.270

> <s_m_Source_Path>
/home/csk/Desktop/cluster/DUD-E-result/mcr

> <s_m_Source_File>
dock_pv.maegz

> <i_m_Source_File_Index>
270

> <chembl_id>
CHEMBL1215480

> <chembl_pref_name>
None

> <i_lp_mmshare_version>
53161

> <i_f3d_flags>
0

> <r_lp_tautomer_probability>
1

> <s_lp_Force_Field>
OPLS_2005

> <r_lp_Energy>
16.78382

> <b_lp_Chiralities_Consistent>
1

> <s_lp_Variant>
CHEMBL1994_lig251-1

> <s_i_glide_gridfile>
glide-grid_2aa2

> <i_i_glide_lignum>
422

> <i_i_glide_rotatable_bonds>
6

> <r_i_docking_score>
-6.82267545622812

> <r_i_glide_ligand_efficiency>
-0.284278144009505

> <r_i_glide_ligand_efficiency_sa>
-0.820000061222325

> <r_i_glide_ligand_efficiency_ln>
-1.63297930885202

> <r_i_glide_gscore>
-6.82267545622812

> <r_i_glide_lipo>
-3.59617345397978

> <r_i_glide_hbond>
0

> <r_i_glide_metal>
0

> <r_i_glide_rewards>
-2.30072649293236

> <r_i_glide_evdw>
-28.2335166931152

> <r_i_glide_ecoul>
-1.01983141899109

> <r_i_glide_erotb>
0.638875038188436

> <r_i_glide_esite>
0

> <r_i_glide_emodel>
-30.0665643674899

> <r_i_glide_energy>
-29.2533481121063

> <r_i_glide_einternal>
19.4835510253906

> <i_i_glide_confnum>
25

> <i_i_glide_posenum>
233

> <r_i_glide_eff_state_penalty>
0

> <s_user_duplicate_titles>
CHEMBL1994_lig251,687345

> <s_m_subgroup_title>
dock_pv

> <s_m_subgroupid>
dock_pv

> <b_m_subgroup_collapsed>
1

$$$$
CHEMBL1994_lig189
                    3D
 Schrodinger Suite 2021-1.
 43 46  0  0  1  0            999 V2000
   17.8944   70.7839   20.0740 C   0  0  0  0  0  0
   18.2412   70.4507   21.3726 C   0  0  0  0  0  0
   18.4654   71.4618   22.2948 C   0  0  0  0  0  0
   17.8437   72.0928   19.6951 C   0  0  0  0  0  0
   18.4824   72.7990   21.9140 C   0  0  0  0  0  0
   18.2606   73.1064   20.5461 C   0  0  0  0  0  0
   18.5900   74.4975   19.9968 C   0  0  2  0  0  0
   18.6325   73.8147   22.8785 N   0  0  0  0  0  0
   17.6312   75.4621   20.4765 O   0  0  0  0  0  0
   18.0794   75.0466   22.9235 C   0  0  0  0  0  0
   18.3438   75.8686   23.7953 O   0  0  0  0  0  0
   17.6273   69.9000   18.9443 C   0  0  0  0  0  0
   16.4217   69.4117   18.4689 C   0  0  0  0  0  0
   16.6409   68.7870   17.2856 C   0  0  0  0  0  0
   17.9876   68.7728   17.1328 C   0  0  0  0  0  0
   18.6190   69.5482   18.0652 N   0  0  0  0  0  0
   18.6406   67.8599   16.3013 C   0  0  0  0  0  0
   19.1076   67.0500   15.6700 N   0  0  0  0  0  0
   17.0518   75.3171   21.7978 C   0  0  0  0  0  0
   18.6465   74.4948   18.4326 C   0  0  0  0  0  0
   19.9989   74.8421   20.4829 C   0  0  0  0  0  0
   21.1344   74.0733   20.7038 C   0  0  0  0  0  0
   22.0744   74.9150   21.2701 C   0  0  0  0  0  0
   21.5333   76.1720   21.2699 C   0  0  0  0  0  0
   20.2459   76.1197   20.8700 O   0  0  0  0  0  0
   20.0397   69.8871   18.1723 C   0  0  0  0  0  0
   18.2648   69.4195   21.6704 H   0  0  0  0  0  0
   18.6407   71.2024   23.3124 H   0  0  0  0  0  0
   17.5615   72.2498   18.6726 H   0  0  0  0  0  0
   19.1986   73.6019   23.6856 H   0  0  0  0  0  0
   15.4396   69.4627   18.8700 H   0  0  0  0  0  0
   15.9059   68.2618   16.6962 H   0  0  0  0  0  0
   16.2978   74.5291   21.7768 H   0  0  0  0  0  0
   16.4975   76.2133   22.0735 H   0  0  0  0  0  0
   19.5354   73.9686   18.0821 H   0  0  0  0  0  0
   17.8412   73.9741   17.9488 H   0  0  0  0  0  0
   18.6387   75.4613   17.9527 H   0  0  0  0  0  0
   21.2397   73.0124   20.5289 H   0  0  0  0  0  0
   23.0473   74.6556   21.6253 H   0  0  0  0  0  0
   21.9031   77.1296   21.5867 H   0  0  0  0  0  0
   20.4056   69.6361   19.1680 H   0  0  0  0  0  0
   20.6283   69.3682   17.4164 H   0  0  0  0  0  0
   20.1567   70.9579   18.0065 H   0  0  0  0  0  0
  1  2  2  0  0  0
  1  4  1  0  0  0
  1 12  1  0  0  0
  2  3  1  0  0  0
  2 27  1  0  0  0
  3  5  2  0  0  0
  3 28  1  0  0  0
  4  6  2  0  0  0
  4 29  1  0  0  0
  5  6  1  0  0  0
  5  8  1  0  0  0
  6  7  1  0  0  0
  7  9  1  0  0  0
  7 20  1  0  0  0
  7 21  1  0  0  0
  8 10  1  0  0  0
  8 30  1  0  0  0
  9 19  1  0  0  0
 10 11  2  0  0  0
 10 19  1  0  0  0
 12 13  2  0  0  0
 12 16  1  0  0  0
 13 14  1  0  0  0
 13 31  1  0  0  0
 14 15  2  0  0  0
 14 32  1  0  0  0
 15 16  1  0  0  0
 15 17  1  0  0  0
 16 26  1  0  0  0
 17 18  3  0  0  0
 19 33  1  0  0  0
 19 34  1  0  0  0
 20 35  1  0  0  0
 20 36  1  0  0  0
 20 37  1  0  0  0
 21 22  2  0  0  0
 21 25  1  0  0  0
 22 23  1  0  0  0
 22 38  1  0  0  0
 23 24  2  0  0  0
 23 39  1  0  0  0
 24 25  1  0  0  0
 24 40  1  0  0  0
 26 41  1  0  0  0
 26 42  1  0  0  0
 26 43  1  0  0  0
M  END
> <s_m_entry_id>
9831

> <s_m_entry_name>
dock_pv.271

> <s_m_Source_Path>
/home/csk/Desktop/cluster/DUD-E-result/mcr

> <s_m_Source_File>
dock_pv.maegz

> <i_m_Source_File_Index>
271

> <chembl_id>
CHEMBL489788

> <chembl_pref_name>
None

> <i_lp_mmshare_version>
53161

> <i_f3d_flags>
0

> <r_lp_tautomer_probability>
1

> <s_lp_Force_Field>
OPLS_2005

> <r_lp_Energy>
29.286788

> <b_lp_Chiralities_Consistent>
1

> <s_lp_Variant>
CHEMBL1994_lig189-1

> <s_i_glide_gridfile>
glide-grid_2aa2

> <i_i_glide_lignum>
324

> <i_i_glide_rotatable_bonds>
2

> <r_i_docking_score>
-6.82117226555984

> <r_i_glide_ligand_efficiency>
-0.262352779444609

> <r_i_glide_ligand_efficiency_sa>
-0.777219076796316

> <r_i_glide_ligand_efficiency_ln>
-1.60192992447496

> <r_i_glide_gscore>
-6.82117226555984

> <r_i_glide_lipo>
-3.91465602332695

> <r_i_glide_hbond>
-0.16

> <r_i_glide_metal>
0

> <r_i_glide_rewards>
-2.03794845054778

> <r_i_glide_evdw>
-14.4862031936646

> <r_i_glide_ecoul>
-1.65814793109894

> <r_i_glide_erotb>
0.315313782949987

> <r_i_glide_esite>
-0.0508492252870344

> <r_i_glide_emodel>
-51.3097571069709

> <r_i_glide_energy>
-16.1443511247635

> <r_i_glide_einternal>
2.77747488021851

> <i_i_glide_confnum>
4

> <i_i_glide_posenum>
63

> <r_i_glide_eff_state_penalty>
0

> <s_user_duplicate_titles>
CHEMBL1994_lig189

> <s_m_subgroup_title>
dock_pv

> <s_m_subgroupid>
dock_pv

> <b_m_subgroup_collapsed>
1

$$$$
12825
                    3D
 Schrodinger Suite 2021-1.
 51 54  0  0  1  0            999 V2000
   17.0678   76.5041   23.4399 C   0  0  0  0  0  0
   18.2408   75.5405   23.4134 C   0  0  0  0  0  0
   18.6407   75.0625   24.4698 O   0  0  0  0  0  0
   18.8808   75.1819   22.0468 C   0  0  1  0  0  0
   20.4074   75.4606   21.9931 C   0  0  0  0  0  0
   21.0276   74.3657   21.0982 C   0  0  0  0  0  0
   19.8217   73.6097   20.5276 C   0  0  2  0  0  0
   18.7529   73.6813   21.6495 C   0  0  2  0  0  0
   17.4154   73.3339   20.9716 C   0  0  0  0  0  0
   17.4403   71.8746   20.4840 C   0  0  0  0  0  0
   18.6224   71.5791   19.5104 C   0  0  1  0  0  0
   19.9968   72.1587   19.9916 C   0  0  1  0  0  0
   21.0009   72.0404   18.8280 C   0  0  0  0  0  0
   21.2005   70.5679   18.4078 C   0  0  0  0  0  0
   19.8521   69.9383   18.0298 C   0  0  0  0  0  0
   19.6580   69.3487   16.8283 C   0  0  0  0  0  0
   18.3947   68.7793   16.3719 C   0  0  0  0  0  0
   18.2412   68.2621   15.2714 O   0  0  0  0  0  0
   17.2837   68.9852   17.2822 C   0  0  0  0  0  0
   17.4115   69.5634   18.4864 C   0  0  0  0  0  0
   18.7272   70.0718   19.0982 C   0  0  2  0  0  0
   19.0554   69.1488   20.3006 C   0  0  0  0  0  0
   19.0289   72.7125   22.8544 C   0  0  0  0  0  0
   18.3909   75.8036   21.2967 H   0  0  0  0  0  0
   19.4785   74.2038   19.6756 H   0  0  0  0  0  0
   18.3760   72.1517   18.6127 H   0  0  0  0  0  0
   20.3865   71.5422   20.7983 H   0  0  0  0  0  0
   17.3776   77.4766   23.0640 H   0  0  0  0  0  0
   16.7248   76.6392   24.4689 H   0  0  0  0  0  0
   16.2401   76.1187   22.8452 H   0  0  0  0  0  0
   20.5799   76.4379   21.5399 H   0  0  0  0  0  0
   20.8854   75.4649   22.9751 H   0  0  0  0  0  0
   21.6375   74.8020   20.3062 H   0  0  0  0  0  0
   21.6736   73.6990   21.6696 H   0  0  0  0  0  0
   16.5904   73.4713   21.6697 H   0  0  0  0  0  0
   17.2067   74.0085   20.1392 H   0  0  0  0  0  0
   16.4976   71.6269   20.0135 H   0  0  0  0  0  0
   17.4764   71.2237   21.3542 H   0  0  0  0  0  0
   20.6769   72.6494   17.9820 H   0  0  0  0  0  0
   21.9578   72.4698   19.1248 H   0  0  0  0  0  0
   21.6798   70.0049   19.2094 H   0  0  0  0  0  0
   21.8981   70.5271   17.5695 H   0  0  0  0  0  0
   20.4937   69.3124   16.1450 H   0  0  0  0  0  0
   16.2989   68.6574   16.9836 H   0  0  0  0  0  0
   16.5037   69.6470   19.0638 H   0  0  0  0  0  0
   19.0403   68.0961   20.0151 H   0  0  0  0  0  0
   20.0419   69.3385   20.7217 H   0  0  0  0  0  0
   18.3492   69.2610   21.1180 H   0  0  0  0  0  0
   19.2652   71.6889   22.5760 H   0  0  0  0  0  0
   19.8428   73.0629   23.4806 H   0  0  0  0  0  0
   18.1591   72.6433   23.5075 H   0  0  0  0  0  0
  1  2  1  0  0  0
  1 28  1  0  0  0
  1 29  1  0  0  0
  1 30  1  0  0  0
  2  3  2  0  0  0
  2  4  1  0  0  0
  4 24  1  0  0  0
  4  8  1  0  0  0
  4  5  1  0  0  0
  5  6  1  0  0  0
  5 31  1  0  0  0
  5 32  1  0  0  0
  6  7  1  0  0  0
  6 33  1  0  0  0
  6 34  1  0  0  0
  7 25  1  0  0  0
  7 12  1  0  0  0
  7  8  1  0  0  0
  8  9  1  0  0  0
  8 23  1  0  0  0
  9 10  1  0  0  0
  9 35  1  0  0  0
  9 36  1  0  0  0
 10 11  1  0  0  0
 10 37  1  0  0  0
 10 38  1  0  0  0
 11 26  1  0  0  0
 11 21  1  0  0  0
 11 12  1  0  0  0
 12 27  1  0  0  0
 12 13  1  0  0  0
 13 14  1  0  0  0
 13 39  1  0  0  0
 13 40  1  0  0  0
 14 15  1  0  0  0
 14 41  1  0  0  0
 14 42  1  0  0  0
 15 21  1  0  0  0
 15 16  2  0  0  0
 16 17  1  0  0  0
 16 43  1  0  0  0
 17 18  2  0  0  0
 17 19  1  0  0  0
 19 20  2  0  0  0
 19 44  1  0  0  0
 20 21  1  0  0  0
 20 45  1  0  0  0
 21 22  1  0  0  0
 22 46  1  0  0  0
 22 47  1  0  0  0
 22 48  1  0  0  0
 23 49  1  0  0  0
 23 50  1  0  0  0
 23 51  1  0  0  0
M  END
> <s_m_entry_id>
9896

> <s_m_entry_name>
ligand_docking-pose.3

> <s_m_Source_Path>
/home/csk/Desktop/cluster/DUD-E-result/mcr

> <s_m_Source_File>
ligand_docking-pose.sdf

> <i_m_Source_File_Index>
3

> <i_lp_mmshare_version>
53161

> <r_lp_tautomer_probability>
0.99999997

> <s_lp_Force_Field>
OPLS_2005

> <r_lp_Energy>
38.463011

> <b_lp_Chiralities_Consistent>
1

> <s_lp_Variant>
12825-1

> <s_i_glide_gridfile>
glide-grid_2aa2

> <i_i_glide_lignum>
364

> <i_i_glide_rotatable_bonds>
1

> <r_i_docking_score>
-10.9616932839705

> <r_i_glide_ligand_efficiency>
-0.47659536017263

> <r_i_glide_ligand_efficiency_sa>
-1.35537380612882

> <r_i_glide_ligand_efficiency_ln>
-2.65063683120342

> <r_i_glide_gscore>
-10.9616932839705

> <r_i_glide_lipo>
-5.09704035664911

> <r_i_glide_hbond>
-0.104038484556798

> <r_i_glide_metal>
0

> <r_i_glide_rewards>
-3.03952941888459

> <r_i_glide_evdw>
-46.8725051879883

> <r_i_glide_ecoul>
-2.51639842987061

> <r_i_glide_erotb>
0

> <r_i_glide_esite>
0

> <r_i_glide_emodel>
-79.2201126006392

> <r_i_glide_energy>
-49.3889036178589

> <r_i_glide_einternal>
3.04582548141479

> <i_i_glide_confnum>
1

> <i_i_glide_posenum>
87

> <r_i_glide_eff_state_penalty>
0

> <i_f3d_flags>
0

> <s_user_duplicate_titles>
12825

> <s_m_subgroup_title>
dock_pv

> <s_m_subgroupid>
dock_pv1

> <b_m_subgroup_collapsed>
0

$$$$
385719
                    3D
 Schrodinger Suite 2021-1.
 50 53  0  0  1  0            999 V2000
   17.4415   74.9315   20.3757 C   0  0  0  0  0  0
   18.0581   74.3813   19.2692 C   0  0  0  0  0  0
   17.9668   73.0183   19.0057 C   0  0  0  0  0  0
   17.4417   72.1682   19.9662 C   0  0  0  0  0  0
   16.8505   72.7176   21.1068 C   0  0  0  0  0  0
   16.7937   74.1027   21.2700 C   0  0  0  0  0  0
   17.4129   70.6621   19.7730 C   0  0  0  0  0  0
   17.7696   70.0158   18.4266 C   0  0  0  0  0  0
   18.9923   69.9265   17.8193 C   0  0  0  0  0  0
   19.2049   69.2307   16.6777 N   0  0  0  0  0  0
   18.1957   68.6317   16.0186 C   0  0  0  0  0  0
   18.2560   68.2620   14.8704 O   0  0  0  0  0  0
   17.0018   68.6619   16.6501 N   0  0  0  0  0  0
   16.6566   69.3432   17.7562 C   0  0  0  0  0  0
   15.4804   69.3651   18.0700 O   0  0  0  0  0  0
   20.2210   70.3857   18.2087 N   0  0  0  0  0  0
   20.8558   69.9552   19.4381 C   0  0  0  0  0  0
   20.6403   71.0715   20.4218 C   0  0  0  0  0  0
   21.1369   72.4575   19.9472 C   0  0  0  0  0  0
   21.0300   72.7367   18.4235 C   0  0  0  0  0  0
   20.9654   71.4623   17.5517 C   0  0  0  0  0  0
   20.7788   73.5908   20.9027 C   0  0  0  0  0  0
   21.4809   74.7919   20.8490 C   0  0  0  0  0  0
   21.3017   75.7289   21.8455 C   0  0  0  0  0  0
   20.4099   75.4617   22.8834 C   0  0  0  0  0  0
   19.6514   74.3191   22.9248 C   0  0  0  0  0  0
   19.8408   73.3913   21.9305 C   0  0  0  0  0  0
   20.1396   69.1097   16.3224 H   0  0  0  0  0  0
   16.2208   68.2613   16.1578 H   0  0  0  0  0  0
   17.4543   75.9982   20.5257 H   0  0  0  0  0  0
   18.5296   75.0321   18.5492 H   0  0  0  0  0  0
   18.3404   72.6187   18.0765 H   0  0  0  0  0  0
   16.3730   72.0699   21.8259 H   0  0  0  0  0  0
   16.2858   74.5507   22.1053 H   0  0  0  0  0  0
   17.8954   70.1259   20.5850 H   0  0  0  0  0  0
   16.3770   70.4836   19.9597 H   0  0  0  0  0  0
   20.3864   69.0628   19.8475 H   0  0  0  0  0  0
   21.9152   69.7824   19.2370 H   0  0  0  0  0  0
   19.6057   71.1303   20.6291 H   0  0  0  0  0  0
   21.0386   70.7391   21.3656 H   0  0  0  0  0  0
   22.2195   72.4779   20.0557 H   0  0  0  0  0  0
   21.8733   73.3030   18.0693 H   0  0  0  0  0  0
   20.2625   73.4512   18.1629 H   0  0  0  0  0  0
   21.8411   71.1500   16.9845 H   0  0  0  0  0  0
   20.3279   71.7534   16.7175 H   0  0  0  0  0  0
   22.1964   74.9980   20.0701 H   0  0  0  0  0  0
   21.8552   76.6517   21.8140 H   0  0  0  0  0  0
   20.2694   76.1861   23.6687 H   0  0  0  0  0  0
   18.9480   74.1420   23.7255 H   0  0  0  0  0  0
   19.2774   72.4857   22.0543 H   0  0  0  0  0  0
  1  6  1  0  0  0
  1  2  2  0  0  0
  1 30  1  0  0  0
  2  3  1  0  0  0
  2 31  1  0  0  0
  3  4  2  0  0  0
  3 32  1  0  0  0
  4  5  1  0  0  0
  4  7  1  0  0  0
  5  6  2  0  0  0
  5 33  1  0  0  0
  6 34  1  0  0  0
  7  8  1  0  0  0
  7 35  1  0  0  0
  7 36  1  0  0  0
  8 14  1  0  0  0
  8  9  2  0  0  0
  9 10  1  0  0  0
  9 16  1  0  0  0
 10 28  1  0  0  0
 10 11  1  0  0  0
 11 12  2  0  0  0
 11 13  1  0  0  0
 13 29  1  0  0  0
 13 14  1  0  0  0
 14 15  2  0  0  0
 16 21  1  0  0  0
 16 17  1  0  0  0
 17 18  1  0  0  0
 17 37  1  0  0  0
 17 38  1  0  0  0
 18 19  1  0  0  0
 18 39  1  0  0  0
 18 40  1  0  0  0
 19 20  1  0  0  0
 19 22  1  0  0  0
 19 41  1  0  0  0
 20 21  1  0  0  0
 20 42  1  0  0  0
 20 43  1  0  0  0
 21 44  1  0  0  0
 21 45  1  0  0  0
 22 27  1  0  0  0
 22 23  2  0  0  0
 23 24  1  0  0  0
 23 46  1  0  0  0
 24 25  2  0  0  0
 24 47  1  0  0  0
 25 26  1  0  0  0
 25 48  1  0  0  0
 26 27  2  0  0  0
 26 49  1  0  0  0
 27 50  1  0  0  0
M  END
> <s_m_entry_id>
9917

> <s_m_entry_name>
ligand_docking-pose.24

> <s_m_Source_Path>
/home/csk/Desktop/cluster/DUD-E-result/mcr

> <s_m_Source_File>
ligand_docking-pose.sdf

> <i_m_Source_File_Index>
24

> <i_lp_mmshare_version>
53161

> <r_lp_tautomer_probability>
0.983149644547051

> <s_lp_Force_Field>
OPLS_2005

> <r_lp_Energy>
29.385441

> <b_lp_Chiralities_Consistent>
1

> <s_lp_Variant>
385719-1

> <s_i_glide_gridfile>
glide-grid_2aa2

> <i_i_glide_lignum>
32

> <i_i_glide_rotatable_bonds>
4

> <r_i_docking_score>
-7.35101844266116

> <r_i_glide_ligand_efficiency>
-0.272259942320784

> <r_i_glide_ligand_efficiency_sa>
-0.816779826065027

> <r_i_glide_ligand_efficiency_ln>
-1.7111959024409

> <r_i_glide_gscore>
-7.35101844266116

> <r_i_glide_lipo>
-4.88223991816828

> <r_i_glide_hbond>
-0.0275040698086264

> <r_i_glide_metal>
0

> <r_i_glide_rewards>
-2.46659464595416

> <r_i_glide_evdw>
-4.14229106903076

> <r_i_glide_ecoul>
-2.36776328086853

> <r_i_glide_erotb>
0.58759923685173

> <r_i_glide_esite>
0

> <r_i_glide_emodel>
-16.8502808552685

> <r_i_glide_energy>
-6.51005434989929

> <r_i_glide_einternal>
8.9617223739624

> <i_i_glide_confnum>
72

> <i_i_glide_posenum>
168

> <r_i_glide_eff_state_penalty>
0

> <i_f3d_flags>
0

> <s_user_duplicate_titles>
385719

> <s_m_subgroup_title>
dock_pv

> <s_m_subgroupid>
dock_pv1

> <b_m_subgroup_collapsed>
0

$$$$
402773
                    3D
 Schrodinger Suite 2021-1.
 49 50  0  0  1  0            999 V2000
   21.5997   74.4803   22.4714 C   0  0  0  0  0  0
   20.4133   74.6601   21.5574 C   0  0  0  0  0  0
   20.9819   75.8170   20.6965 C   0  0  0  0  0  0
   20.1422   73.3446   20.7323 C   0  0  0  0  0  0
   19.1952   73.4051   19.4877 C   0  0  2  0  0  0
   17.9118   72.5433   19.5596 C   0  0  0  0  0  0
   18.0384   71.0576   19.3544 C   0  0  0  0  0  0
   17.5913   70.5109   18.1486 C   0  0  0  0  0  0
   17.7642   69.1589   17.8985 C   0  0  0  0  0  0
   18.2437   68.3282   18.9055 C   0  0  0  0  0  0
   18.7180   68.8798   20.0862 C   0  0  0  0  0  0
   18.6409   70.2447   20.3096 C   0  0  0  0  0  0
   19.4361   67.8668   21.2700 Cl  0  0  0  0  0  0
   17.5772   68.6619   16.5585 C   0  0  0  0  0  0
   17.4410   68.2620   15.4838 N   0  0  0  0  0  0
   19.9944   73.1427   18.1613 C   0  0  0  0  0  0
   21.2799   73.4620   18.2409 F   0  0  0  0  0  0
   20.0260   71.8828   17.7334 F   0  0  0  0  0  0
   19.4410   73.8620   17.1908 F   0  0  0  0  0  0
   18.5567   74.6620   19.4826 O   0  0  0  0  0  0
   19.1983   75.0209   22.4640 C   0  0  0  0  0  0
   18.5771   76.2695   22.3779 C   0  0  0  0  0  0
   17.6348   76.6666   23.3283 C   0  0  0  0  0  0
   17.3126   75.8620   24.3944 C   0  0  0  0  0  0
   17.8817   74.6146   24.4700 C   0  0  0  0  0  0
   18.7381   74.1452   23.4754 C   0  0  0  0  0  0
   19.1409   72.8339   23.5410 O   0  0  0  0  0  0
   18.0917   71.8795   23.4491 C   0  0  0  0  0  0
   17.0410   77.8620   23.2700 F   0  0  0  0  0  0
   22.4911   74.0648   21.9982 H   0  0  0  0  0  0
   21.8411   75.4165   22.9774 H   0  0  0  0  0  0
   21.2807   73.8620   23.2700 H   0  0  0  0  0  0
   21.8089   75.4815   20.0700 H   0  0  0  0  0  0
   20.2410   76.2500   20.0700 H   0  0  0  0  0  0
   21.3536   76.6642   21.2732 H   0  0  0  0  0  0
   21.0975   72.8904   20.4683 H   0  0  0  0  0  0
   19.7461   72.5921   21.3900 H   0  0  0  0  0  0
   17.3267   72.7310   20.4613 H   0  0  0  0  0  0
   17.3119   72.8721   18.7138 H   0  0  0  0  0  0
   17.1964   71.1548   17.3748 H   0  0  0  0  0  0
   18.4206   67.2766   18.7701 H   0  0  0  0  0  0
   19.0374   70.6419   21.2241 H   0  0  0  0  0  0
   18.2282   74.8413   20.3676 H   0  0  0  0  0  0
   18.8419   76.9788   21.6092 H   0  0  0  0  0  0
   16.6295   76.2083   25.1548 H   0  0  0  0  0  0
   17.6037   73.9594   25.2700 H   0  0  0  0  0  0
   18.4835   70.8846   23.2700 H   0  0  0  0  0  0
   17.5016   71.8612   24.3654 H   0  0  0  0  0  0
   17.4410   72.0943   22.6044 H   0  0  0  0  0  0
  1  2  1  0  0  0
  1 30  1  0  0  0
  1 31  1  0  0  0
  1 32  1  0  0  0
  2  3  1  0  0  0
  2  4  1  0  0  0
  2 21  1  0  0  0
  3 33  1  0  0  0
  3 34  1  0  0  0
  3 35  1  0  0  0
  4  5  1  0  0  0
  4 36  1  0  0  0
  4 37  1  0  0  0
  5  6  1  0  0  0
  5 16  1  0  0  0
  5 20  1  0  0  0
  6  7  1  0  0  0
  6 38  1  0  0  0
  6 39  1  0  0  0
  7 12  1  0  0  0
  7  8  2  0  0  0
  8  9  1  0  0  0
  8 40  1  0  0  0
  9 10  2  0  0  0
  9 14  1  0  0  0
 10 11  1  0  0  0
 10 41  1  0  0  0
 11 12  2  0  0  0
 11 13  1  0  0  0
 12 42  1  0  0  0
 14 15  3  0  0  0
 16 17  1  0  0  0
 16 18  1  0  0  0
 16 19  1  0  0  0
 20 43  1  0  0  0
 21 26  1  0  0  0
 21 22  2  0  0  0
 22 23  1  0  0  0
 22 44  1  0  0  0
 23 24  2  0  0  0
 23 29  1  0  0  0
 24 25  1  0  0  0
 24 45  1  0  0  0
 25 26  2  0  0  0
 25 46  1  0  0  0
 26 27  1  0  0  0
 27 28  1  0  0  0
 28 47  1  0  0  0
 28 48  1  0  0  0
 28 49  1  0  0  0
M  END
> <s_m_entry_id>
9920

> <s_m_entry_name>
ligand_docking-pose.27

> <s_m_Source_Path>
/home/csk/Desktop/cluster/DUD-E-result/mcr

> <s_m_Source_File>
ligand_docking-pose.sdf

> <i_m_Source_File_Index>
27

> <i_lp_mmshare_version>
53161

> <r_lp_tautomer_probability>
1

> <s_lp_Force_Field>
OPLS_2005

> <r_lp_Energy>
32.452857

> <b_lp_Chiralities_Consistent>
1

> <s_lp_Variant>
402773-2

> <s_i_glide_gridfile>
glide-grid_2aa2

> <i_i_glide_lignum>
295

> <i_i_glide_rotatable_bonds>
8

> <r_i_docking_score>
-6.96138346707877

> <r_i_glide_ligand_efficiency>
-0.240047705761337

> <r_i_glide_ligand_efficiency_sa>
-0.737502604550045

> <r_i_glide_ligand_efficiency_ln>
-1.59398028850735

> <r_i_glide_gscore>
-6.96138346707877

> <r_i_glide_lipo>
-4.37574443187479

> <r_i_glide_hbond>
-0.32

> <r_i_glide_metal>
0

> <r_i_glide_rewards>
-2.01832048744868

> <r_i_glide_evdw>
-2.07766819000244

> <r_i_glide_ecoul>
-4.4676513671875

> <r_i_glide_erotb>
0.537889539296339

> <r_i_glide_esite>
-0.0111769724733894

> <r_i_glide_emodel>
-17.9847755460728

> <r_i_glide_energy>
-6.54531955718994

> <r_i_glide_einternal>
15.7991170883179

> <i_i_glide_confnum>
137

> <i_i_glide_posenum>
202

> <r_i_glide_eff_state_penalty>
0

> <i_f3d_flags>
0

> <s_user_duplicate_titles>
402773

> <s_m_subgroup_title>
dock_pv

> <s_m_subgroupid>
dock_pv1

> <b_m_subgroup_collapsed>
0

$$$$
