CHEMBL3286_lig416
                    3D
 Schrodinger Suite 2021-1.
 32 33  0  0  1  0            999 V2000
   24.1833   13.3918   32.9406 C   0  0  0  0  0  0
   23.6001   14.7261   33.3444 C   0  0  0  0  0  0
   23.5410   12.1616   33.1977 C   0  0  0  0  0  0
   22.3029   14.9081   33.0200 N   0  0  0  0  0  0
   18.7063   19.3107   33.5288 C   0  0  0  0  0  0
   25.4342   13.3730   32.3053 C   0  0  0  0  0  0
   24.1347   10.9622   32.8065 C   0  0  0  0  0  0
   19.6843   18.1973   33.4323 C   0  0  0  0  0  0
   17.5661   19.2120   33.0199 N   0  0  0  0  0  0
   24.3099   15.5588   33.9086 O   0  0  0  0  0  0
   21.4883   16.0404   33.1951 C   0  0  0  0  0  0
   21.0724   18.4063   33.5054 C   0  0  0  0  0  0
   19.2276   16.8821   33.2420 C   0  0  0  0  0  0
   25.3671   10.9638   32.1592 C   0  0  0  0  0  0
   19.1240   20.4120   34.2200 N   0  0  0  0  0  0
   22.3240   12.0776   33.8200 O   0  0  0  0  0  0
   26.0184   12.1695   31.9114 C   0  0  0  0  0  0
   20.1151   15.8198   33.1182 C   0  0  0  0  0  0
   21.9673   17.3431   33.3902 C   0  0  0  0  0  0
   26.0780    9.4747   31.6556 Cl  0  0  0  0  0  0
   21.8267   14.1153   32.6200 H   0  0  0  0  0  0
   25.9616   14.2961   32.1037 H   0  0  0  0  0  0
   23.6350   10.0239   33.0024 H   0  0  0  0  0  0
   17.0023   20.0284   33.2133 H   0  0  0  0  0  0
   21.4754   19.4018   33.6327 H   0  0  0  0  0  0
   18.1687   16.6712   33.1791 H   0  0  0  0  0  0
   18.4536   21.1398   34.4318 H   0  0  0  0  0  0
   20.0168   20.4587   34.7004 H   0  0  0  0  0  0
   21.6065   12.3328   33.2207 H   0  0  0  0  0  0
   26.9772   12.1737   31.4129 H   0  0  0  0  0  0
   19.7192   14.8249   32.9742 H   0  0  0  0  0  0
   23.0240   17.5579   33.4282 H   0  0  0  0  0  0
  1  2  1  0  0  0
  1  3  2  0  0  0
  1  6  1  0  0  0
  2  4  1  0  0  0
  2 10  2  0  0  0
  3  7  1  0  0  0
  3 16  1  0  0  0
  4 11  1  0  0  0
  4 21  1  0  0  0
  5  8  1  0  0  0
  5  9  2  0  0  0
  5 15  1  0  0  0
  6 17  2  0  0  0
  6 22  1  0  0  0
  7 14  2  0  0  0
  7 23  1  0  0  0
  8 12  1  0  0  0
  8 13  2  0  0  0
  9 24  1  0  0  0
 11 18  2  0  0  0
 11 19  1  0  0  0
 12 19  2  0  0  0
 12 25  1  0  0  0
 13 18  1  0  0  0
 13 26  1  0  0  0
 14 17  1  0  0  0
 14 20  1  0  0  0
 15 27  1  0  0  0
 15 28  1  0  0  0
 16 29  1  0  0  0
 17 30  1  0  0  0
 18 31  1  0  0  0
 19 32  1  0  0  0
M  END
> <s_m_entry_id>
42037

> <s_m_entry_name>
dock_pv.2

> <s_m_Source_Path>
/home/csk/Desktop/cluster/DUD-E-result/urok

> <s_m_Source_File>
dock_pv.maegz

> <i_m_Source_File_Index>
2

> <chembl_id>
CHEMBL264760

> <chembl_pref_name>
None

> <i_lp_mmshare_version>
53161

> <r_lp_tautomer_probability>
0.999999999997365

> <s_lp_Force_Field>
OPLS_2005

> <r_lp_Energy>
17.258494

> <b_lp_Chiralities_Consistent>
1

> <s_lp_Variant>
CHEMBL3286_lig416-1

> <s_i_glide_gridfile>
glide-grid_1sqt

> <i_i_glide_lignum>
547

> <i_i_glide_rotatable_bonds>
5

> <r_i_docking_score>
-8.39696252516412

> <r_i_glide_ligand_efficiency>
-0.419848126258206

> <r_i_glide_ligand_efficiency_sa>
-1.13964314907161

> <r_i_glide_ligand_efficiency_ln>
-2.10148276968904

> <r_i_glide_gscore>
-8.39696252516412

> <r_i_glide_lipo>
-2.16879847887829

> <r_i_glide_hbond>
-1.36795380028987

> <r_i_glide_metal>
0

> <r_i_glide_rewards>
-1.90182463763796

> <r_i_glide_evdw>
-29.794075012207

> <r_i_glide_ecoul>
-14.1310510635376

> <r_i_glide_erotb>
0.650975801782999

> <r_i_glide_esite>
0

> <r_i_glide_emodel>
-61.4828344509389

> <r_i_glide_energy>
-43.9251260757446

> <r_i_glide_einternal>
6.80216217041016

> <i_i_glide_confnum>
3

> <i_i_glide_posenum>
318

> <r_i_glide_eff_state_penalty>
0

> <s_user_duplicate_titles>
CHEMBL3286_lig416

> <i_f3d_flags>
0

> <s_m_subgroup_title>
dock_pv

> <s_m_subgroupid>
dock_pv

> <b_m_subgroup_collapsed>
1

$$$$
CHEMBL3286_lig462
                    3D
 Schrodinger Suite 2021-1.
 48 51  0  0  1  0            999 V2000
   21.5311   17.5269   33.9130 C   0  0  0  0  0  0
   22.8167   17.4150   34.5505 C   0  0  0  0  0  0
   24.1524   14.1207   33.1473 C   0  0  0  0  0  0
   23.2425   15.3048   33.3874 C   0  0  0  0  0  0
   23.6355   16.3182   34.2601 C   0  0  0  0  0  0
   20.6086   18.5986   34.1395 C   0  0  0  0  0  0
   21.1445   16.5052   32.9930 C   0  0  0  0  0  0
   18.3375   19.7159   33.8262 C   0  0  0  0  0  0
   19.3468   18.6559   33.5229 C   0  0  0  0  0  0
   23.5239   12.9532   32.8858 N   0  0  0  0  0  0
   22.0129   15.4217   32.7369 C   0  0  0  0  0  0
   17.1662   19.6121   33.4200 N   0  0  0  0  0  0
   25.3735   14.2429   33.2523 O   0  0  0  0  0  0
   19.8937   16.5840   32.3468 C   0  0  0  0  0  0
   23.3177   18.5108   35.5038 C   0  0  2  0  0  0
   19.0261   17.6308   32.6200 C   0  0  0  0  0  0
   24.8892   20.2596   35.7308 O   0  0  0  0  0  0
   18.7240   20.7557   34.6200 N   0  0  0  0  0  0
   24.0911   11.6947   32.6234 C   0  0  0  0  0  0
   23.9163   19.7418   34.8154 C   0  0  0  0  0  0
   24.8281   19.5703   36.9776 C   0  0  0  0  0  0
   24.3250   18.1878   36.5948 C   0  0  0  0  0  0
   25.3500   11.5218   32.0291 C   0  0  0  0  0  0
   23.3166   10.5781   32.9489 C   0  0  0  0  0  0
   23.7954    9.2963   32.6931 C   0  0  0  0  0  0
   25.8234   10.2383   31.7682 C   0  0  0  0  0  0
   25.0441    9.1320   32.0991 C   0  0  0  0  0  0
   24.6048   16.2368   34.7269 H   0  0  0  0  0  0
   20.8783   19.3811   34.8269 H   0  0  0  0  0  0
   22.5147   12.9700   32.9333 H   0  0  0  0  0  0
   21.6986   14.6832   32.0166 H   0  0  0  0  0  0
   16.5751   20.3555   33.7803 H   0  0  0  0  0  0
   19.6051   15.8174   31.6421 H   0  0  0  0  0  0
   22.4332   18.8222   36.0557 H   0  0  0  0  0  0
   18.0733   17.6336   32.1071 H   0  0  0  0  0  0
   18.0106   21.3796   34.9940 H   0  0  0  0  0  0
   19.6789   20.8748   34.9472 H   0  0  0  0  0  0
   23.1284   20.4699   34.6199 H   0  0  0  0  0  0
   24.4154   19.4536   33.8888 H   0  0  0  0  0  0
   25.8024   19.5486   37.4670 H   0  0  0  0  0  0
   24.1368   20.0811   37.6502 H   0  0  0  0  0  0
   25.1601   17.5965   36.2222 H   0  0  0  0  0  0
   23.8938   17.6095   37.4123 H   0  0  0  0  0  0
   25.9604   12.3673   31.7484 H   0  0  0  0  0  0
   22.3453   10.6917   33.4089 H   0  0  0  0  0  0
   23.1962    8.4335   32.9513 H   0  0  0  0  0  0
   26.7900   10.1015   31.3048 H   0  0  0  0  0  0
   25.4124    8.1375   31.8944 H   0  0  0  0  0  0
  1  2  2  0  0  0
  1  6  1  0  0  0
  1  7  1  0  0  0
  2  5  1  0  0  0
  2 15  1  0  0  0
  3  4  1  0  0  0
  3 10  1  0  0  0
  3 13  2  0  0  0
  4 11  1  0  0  0
  4  5  2  0  0  0
  5 28  1  0  0  0
  6  9  2  0  0  0
  6 29  1  0  0  0
  7 11  2  0  0  0
  7 14  1  0  0  0
  8  9  1  0  0  0
  8 12  2  0  0  0
  8 18  1  0  0  0
  9 16  1  0  0  0
 10 19  1  0  0  0
 10 30  1  0  0  0
 11 31  1  0  0  0
 12 32  1  0  0  0
 14 16  2  0  0  0
 14 33  1  0  0  0
 15 20  1  0  0  0
 15 22  1  0  0  0
 15 34  1  0  0  0
 16 35  1  0  0  0
 17 20  1  0  0  0
 17 21  1  0  0  0
 18 36  1  0  0  0
 18 37  1  0  0  0
 19 23  2  0  0  0
 19 24  1  0  0  0
 20 38  1  0  0  0
 20 39  1  0  0  0
 21 22  1  0  0  0
 21 40  1  0  0  0
 21 41  1  0  0  0
 22 42  1  0  0  0
 22 43  1  0  0  0
 23 26  1  0  0  0
 23 44  1  0  0  0
 24 25  2  0  0  0
 24 45  1  0  0  0
 25 27  1  0  0  0
 25 46  1  0  0  0
 26 27  2  0  0  0
 26 47  1  0  0  0
 27 48  1  0  0  0
M  END
> <s_m_entry_id>
42038

> <s_m_entry_name>
dock_pv.3

> <s_m_Source_Path>
/home/csk/Desktop/cluster/DUD-E-result/urok

> <s_m_Source_File>
dock_pv.maegz

> <i_m_Source_File_Index>
3

> <chembl_id>
CHEMBL105395

> <chembl_pref_name>
None

> <i_lp_mmshare_version>
53161

> <r_lp_tautomer_probability>
1

> <s_lp_Force_Field>
OPLS_2005

> <r_lp_Energy>
33.982923

> <b_lp_Chiralities_Consistent>
1

> <s_lp_Variant>
CHEMBL3286_lig462-1

> <s_i_glide_gridfile>
glide-grid_1sqt

> <i_i_glide_lignum>
610

> <i_i_glide_rotatable_bonds>
5

> <r_i_docking_score>
-8.31926251281571

> <r_i_glide_ligand_efficiency>
-0.308120833807989

> <r_i_glide_ligand_efficiency_sa>
-0.924362500408451

> <r_i_glide_ligand_efficiency_ln>
-1.93658715922182

> <r_i_glide_gscore>
-8.31926251281571

> <r_i_glide_lipo>
-3.22223175350662

> <r_i_glide_hbond>
-0.731654199235108

> <r_i_glide_metal>
0

> <r_i_glide_rewards>
-1.08332342452048

> <r_i_glide_evdw>
-37.5595436096191

> <r_i_glide_ecoul>
-13.0606670379639

> <r_i_glide_erotb>
0.593487667115264

> <r_i_glide_esite>
-0.0384635664932264

> <r_i_glide_emodel>
-72.9392927661376

> <r_i_glide_energy>
-50.620210647583

> <r_i_glide_einternal>
4.37003612518311

> <i_i_glide_confnum>
11

> <i_i_glide_posenum>
171

> <r_i_glide_eff_state_penalty>
0

> <s_user_duplicate_titles>
CHEMBL3286_lig462,171073

> <i_f3d_flags>
0

> <s_m_subgroup_title>
dock_pv

> <s_m_subgroupid>
dock_pv

> <b_m_subgroup_collapsed>
1

$$$$
CHEMBL3286_lig46
                    3D
 Schrodinger Suite 2021-1.
 19 19  0  0  1  0            999 V2000
   20.3748   14.8120   33.6376 N   0  0  0  0  0  0
   19.9236   15.3450   31.4199 N   0  0  0  0  0  0
   19.9932   15.6495   32.6296 C   0  0  0  0  0  0
   19.6488   17.0016   33.0598 C   0  0  0  0  0  0
   20.2262   19.0404   34.2213 C   0  0  0  0  0  0
   20.5351   17.7380   33.8555 C   0  0  0  0  0  0
   18.4500   17.5968   32.6385 C   0  0  0  0  0  0
   18.1343   18.8944   33.0260 C   0  0  0  0  0  0
   19.0228   19.6077   33.8199 C   0  0  0  0  0  0
   18.7240   20.9049   34.2199 N   0  0  0  0  0  0
   20.5898   13.8641   33.3524 H   0  0  0  0  0  0
   20.0301   14.9713   34.5745 H   0  0  0  0  0  0
   19.6412   16.1273   30.8471 H   0  0  0  0  0  0
   20.9248   19.6120   34.8127 H   0  0  0  0  0  0
   21.4772   17.3151   34.1754 H   0  0  0  0  0  0
   17.7504   17.0572   32.0154 H   0  0  0  0  0  0
   17.2028   19.3371   32.7079 H   0  0  0  0  0  0
   17.7485   21.1598   34.3514 H   0  0  0  0  0  0
   19.3961   21.3178   34.8573 H   0  0  0  0  0  0
  1  3  1  0  0  0
  1 11  1  0  0  0
  1 12  1  0  0  0
  2  3  2  0  0  0
  2 13  1  0  0  0
  3  4  1  0  0  0
  4  6  1  0  0  0
  4  7  2  0  0  0
  5  6  2  0  0  0
  5  9  1  0  0  0
  5 14  1  0  0  0
  6 15  1  0  0  0
  7  8  1  0  0  0
  7 16  1  0  0  0
  8  9  2  0  0  0
  8 17  1  0  0  0
  9 10  1  0  0  0
 10 18  1  0  0  0
 10 19  1  0  0  0
M  END
> <s_m_entry_id>
42039

> <s_m_entry_name>
dock_pv.4

> <s_m_Source_Path>
/home/csk/Desktop/cluster/DUD-E-result/urok

> <s_m_Source_File>
dock_pv.maegz

> <i_m_Source_File_Index>
4

> <chembl_id>
CHEMBL124632

> <chembl_pref_name>
None

> <i_lp_mmshare_version>
53161

> <r_lp_tautomer_probability>
1

> <s_lp_Force_Field>
OPLS_2005

> <r_lp_Energy>
6.631832

> <b_lp_Chiralities_Consistent>
1

> <s_lp_Variant>
CHEMBL3286_lig46-1

> <s_i_glide_gridfile>
glide-grid_1sqt

> <i_i_glide_lignum>
78

> <i_i_glide_rotatable_bonds>
1

> <r_i_docking_score>
-7.97544589298748

> <r_i_glide_ligand_efficiency>
-0.797544589298748

> <r_i_glide_ligand_efficiency_sa>
-1.71825772871364

> <r_i_glide_ligand_efficiency_ln>
-2.41491003817168

> <r_i_glide_gscore>
-7.97544589298748

> <r_i_glide_lipo>
-1.69916820096876

> <r_i_glide_hbond>
-1.16020725981476

> <r_i_glide_metal>
0

> <r_i_glide_rewards>
-2.64681337240267

> <r_i_glide_evdw>
-16.3218688964844

> <r_i_glide_ecoul>
-10.5531139373779

> <r_i_glide_erotb>
0

> <r_i_glide_esite>
-0.0701965243703744

> <r_i_glide_emodel>
-39.9592136409203

> <r_i_glide_energy>
-26.8749828338623

> <r_i_glide_einternal>
0.66509622335434

> <i_i_glide_confnum>
1

> <i_i_glide_posenum>
80

> <r_i_glide_eff_state_penalty>
0

> <s_user_duplicate_titles>
CHEMBL3286_lig46

> <i_f3d_flags>
0

> <s_m_subgroup_title>
dock_pv

> <s_m_subgroupid>
dock_pv

> <b_m_subgroup_collapsed>
1

$$$$
CHEMBL3286_lig462
                    3D
 Schrodinger Suite 2021-1.
 48 51  0  0  1  0            999 V2000
   21.5610   17.5886   33.9624 C   0  0  0  0  0  0
   22.8376   17.4852   34.6207 C   0  0  0  0  0  0
   24.1619   14.1458   33.3053 C   0  0  0  0  0  0
   23.2649   15.3466   33.5062 C   0  0  0  0  0  0
   23.6519   16.3748   34.3663 C   0  0  0  0  0  0
   20.6347   18.6608   34.1606 C   0  0  0  0  0  0
   21.1861   16.5543   33.0510 C   0  0  0  0  0  0
   18.3531   19.7444   33.8287 C   0  0  0  0  0  0
   19.3788   18.7014   33.5310 C   0  0  0  0  0  0
   23.5240   12.9910   33.0073 N   0  0  0  0  0  0
   22.0500   15.4619   32.8294 C   0  0  0  0  0  0
   17.1850   19.6120   33.4200 N   0  0  0  0  0  0
   25.3794   14.2427   33.4672 O   0  0  0  0  0  0
   19.9499   16.6261   32.3775 C   0  0  0  0  0  0
   23.3402   18.6009   35.5607 C   0  0  1  0  0  0
   19.0770   17.6730   32.6254 C   0  0  0  0  0  0
   25.6577   18.4645   36.0318 O   0  0  0  0  0  0
   18.7240   20.7933   34.6200 N   0  0  0  0  0  0
   24.0853   11.7354   32.7200 C   0  0  0  0  0  0
   24.3801   18.2344   36.6310 C   0  0  0  0  0  0
   25.5333   19.1851   34.8065 C   0  0  0  0  0  0
   24.0926   19.6815   34.8125 C   0  0  0  0  0  0
   25.3478   11.5724   32.1300 C   0  0  0  0  0  0
   23.2995   10.6149   32.9996 C   0  0  0  0  0  0
   23.7710    9.3385   32.7052 C   0  0  0  0  0  0
   25.8130   10.2948   31.8270 C   0  0  0  0  0  0
   25.0231    9.1841   32.1156 C   0  0  0  0  0  0
   24.6129   16.3039   34.8563 H   0  0  0  0  0  0
   20.8928   19.4538   34.8385 H   0  0  0  0  0  0
   22.5144   13.0196   33.0200 H   0  0  0  0  0  0
   21.7405   14.7117   32.1183 H   0  0  0  0  0  0
   16.5784   20.3458   33.7729 H   0  0  0  0  0  0
   19.6724   15.8511   31.6777 H   0  0  0  0  0  0
   22.4700   19.0183   36.0595 H   0  0  0  0  0  0
   18.1312   17.6673   32.1000 H   0  0  0  0  0  0
   18.0018   21.4073   34.9941 H   0  0  0  0  0  0
   19.6766   20.9223   34.9520 H   0  0  0  0  0  0
   24.2703   17.2120   36.9882 H   0  0  0  0  0  0
   24.2594   18.9010   37.4869 H   0  0  0  0  0  0
   26.2405   20.0120   34.7524 H   0  0  0  0  0  0
   25.6900   18.5085   33.9648 H   0  0  0  0  0  0
   23.9950   20.6284   35.3424 H   0  0  0  0  0  0
   23.6849   19.8727   33.8200 H   0  0  0  0  0  0
   25.9660   12.4225   31.8817 H   0  0  0  0  0  0
   22.3240   10.7216   33.4498 H   0  0  0  0  0  0
   23.1635    8.4720   32.9286 H   0  0  0  0  0  0
   26.7811   10.1658   31.3647 H   0  0  0  0  0  0
   25.3848    8.1938   31.8793 H   0  0  0  0  0  0
  1  2  2  0  0  0
  1  6  1  0  0  0
  1  7  1  0  0  0
  2  5  1  0  0  0
  2 15  1  0  0  0
  3  4  1  0  0  0
  3 10  1  0  0  0
  3 13  2  0  0  0
  4 11  1  0  0  0
  4  5  2  0  0  0
  5 28  1  0  0  0
  6  9  2  0  0  0
  6 29  1  0  0  0
  7 11  2  0  0  0
  7 14  1  0  0  0
  8  9  1  0  0  0
  8 12  2  0  0  0
  8 18  1  0  0  0
  9 16  1  0  0  0
 10 19  1  0  0  0
 10 30  1  0  0  0
 11 31  1  0  0  0
 12 32  1  0  0  0
 14 16  2  0  0  0
 14 33  1  0  0  0
 15 20  1  0  0  0
 15 22  1  0  0  0
 15 34  1  0  0  0
 16 35  1  0  0  0
 17 20  1  0  0  0
 17 21  1  0  0  0
 18 36  1  0  0  0
 18 37  1  0  0  0
 19 23  2  0  0  0
 19 24  1  0  0  0
 20 38  1  0  0  0
 20 39  1  0  0  0
 21 22  1  0  0  0
 21 40  1  0  0  0
 21 41  1  0  0  0
 22 42  1  0  0  0
 22 43  1  0  0  0
 23 26  1  0  0  0
 23 44  1  0  0  0
 24 25  2  0  0  0
 24 45  1  0  0  0
 25 27  1  0  0  0
 25 46  1  0  0  0
 26 27  2  0  0  0
 26 47  1  0  0  0
 27 48  1  0  0  0
M  END
> <s_m_entry_id>
42040

> <s_m_entry_name>
dock_pv.5

> <s_m_Source_Path>
/home/csk/Desktop/cluster/DUD-E-result/urok

> <s_m_Source_File>
dock_pv.maegz

> <i_m_Source_File_Index>
5

> <chembl_id>
CHEMBL105395

> <chembl_pref_name>
None

> <i_lp_mmshare_version>
53161

> <r_lp_tautomer_probability>
1

> <s_lp_Force_Field>
OPLS_2005

> <r_lp_Energy>
33.982922

> <b_lp_Chiralities_Consistent>
1

> <s_lp_Variant>
CHEMBL3286_lig462-2

> <s_i_glide_gridfile>
glide-grid_1sqt

> <i_i_glide_lignum>
611

> <i_i_glide_rotatable_bonds>
5

> <r_i_docking_score>
-7.9345660231948

> <r_i_glide_ligand_efficiency>
-0.293872815673881

> <r_i_glide_ligand_efficiency_sa>
-0.881618446053087

> <r_i_glide_ligand_efficiency_ln>
-1.84703615865538

> <r_i_glide_gscore>
-7.9345660231948

> <r_i_glide_lipo>
-3.16580097512505

> <r_i_glide_hbond>
-0.702383255688973

> <r_i_glide_metal>
0

> <r_i_glide_rewards>
-1.07298515606676

> <r_i_glide_evdw>
-36.6000175476074

> <r_i_glide_ecoul>
-11.4477605819702

> <r_i_glide_erotb>
0.593487667115264

> <r_i_glide_esite>
-0.039719338753381

> <r_i_glide_emodel>
-67.558069286893

> <r_i_glide_energy>
-48.0477781295776

> <r_i_glide_einternal>
3.29900979995728

> <i_i_glide_confnum>
38

> <i_i_glide_posenum>
240

> <r_i_glide_eff_state_penalty>
0

> <s_user_duplicate_titles>
CHEMBL3286_lig462

> <i_f3d_flags>
0

> <s_m_subgroup_title>
dock_pv

> <s_m_subgroupid>
dock_pv

> <b_m_subgroup_collapsed>
1

$$$$
CHEMBL3286_lig895
                    3D
 Schrodinger Suite 2021-1.
 52 55  0  0  1  0            999 V2000
   22.9777   15.5543   32.9895 C   0  0  0  0  0  0
   24.2719   16.0740   32.7747 C   0  0  0  0  0  0
   25.3492   15.2361   32.8211 N   0  0  0  0  0  0
   25.1474   13.9119   33.0263 C   0  0  0  0  0  0
   23.8503   13.3991   33.1944 C   0  0  0  0  0  0
   22.7763   14.2274   33.1795 N   0  0  0  0  0  0
   26.2942   13.1212   33.0514 N   0  0  0  0  0  0
   24.4962   17.4203   32.4125 N   0  0  0  0  0  0
   23.5223   11.9403   33.3542 C   0  0  0  0  0  0
   24.0133   11.1365   32.3303 N   0  0  0  0  0  0
   22.7238   11.5666   34.2200 O   0  0  0  0  0  0
   24.1775    9.8758   32.4573 C   0  0  0  0  0  0
   24.7251    9.1057   31.4199 N   0  0  0  0  0  0
   23.8784    9.0563   33.5699 N   0  0  0  0  0  0
   25.7893   18.0353   32.7604 C   0  0  0  0  0  0
   26.1527   19.4267   32.1932 C   0  0  0  0  0  0
   23.8371   17.8233   31.1614 C   0  0  0  0  0  0
   26.5815   19.4456   30.7128 C   0  0  0  0  0  0
   24.6773   17.8955   29.8747 C   0  0  0  0  0  0
   25.4560   19.2070   29.6961 C   0  0  0  0  0  0
   21.7187   16.3473   33.0195 C   0  0  0  0  0  0
   21.5438   17.6433   34.1869 S   0  0  0  0  0  0
   20.5978   16.1850   32.2315 C   0  0  0  0  0  0
   19.5936   17.1536   32.4845 C   0  0  0  0  0  0
   19.9654   18.0450   33.5337 C   0  0  0  0  0  0
   19.1282   19.0951   33.9342 C   0  0  0  0  0  0
   17.9240   19.2611   33.2578 C   0  0  0  0  0  0
   17.5515   18.4114   32.2201 C   0  0  0  0  0  0
   18.3587   17.3402   31.8452 C   0  0  0  0  0  0
   26.1949   12.1165   33.0393 H   0  0  0  0  0  0
   27.1765   13.5612   32.8353 H   0  0  0  0  0  0
   25.1751    9.6098   30.6708 H   0  0  0  0  0  0
   25.2796    8.3082   31.6914 H   0  0  0  0  0  0
   23.3211    9.5044   34.2852 H   0  0  0  0  0  0
   23.4800    8.1485   33.3757 H   0  0  0  0  0  0
   25.9614   17.9786   33.8360 H   0  0  0  0  0  0
   26.5420   17.3846   32.3127 H   0  0  0  0  0  0
   25.3056   20.1029   32.3192 H   0  0  0  0  0  0
   26.9670   19.8372   32.7908 H   0  0  0  0  0  0
   22.9208   17.2669   30.9726 H   0  0  0  0  0  0
   23.4465   18.8172   31.3784 H   0  0  0  0  0  0
   27.0383   20.4111   30.4911 H   0  0  0  0  0  0
   27.3737   18.7124   30.5541 H   0  0  0  0  0  0
   25.3956   17.0738   29.8647 H   0  0  0  0  0  0
   24.0227   17.7496   29.0152 H   0  0  0  0  0  0
   25.8894   19.2118   28.6944 H   0  0  0  0  0  0
   24.7600   20.0476   29.7171 H   0  0  0  0  0  0
   20.5135   15.4327   31.4642 H   0  0  0  0  0  0
   19.4083   19.7675   34.7349 H   0  0  0  0  0  0
   17.2624   20.0666   33.5511 H   0  0  0  0  0  0
   16.6075   18.5722   31.7178 H   0  0  0  0  0  0
   18.0539   16.6920   31.0390 H   0  0  0  0  0  0
  1  2  2  0  0  0
  1  6  1  0  0  0
  1 21  1  0  0  0
  2  3  1  0  0  0
  2  8  1  0  0  0
  3  4  2  0  0  0
  4  5  1  0  0  0
  4  7  1  0  0  0
  5  6  2  0  0  0
  5  9  1  0  0  0
  7 30  1  0  0  0
  7 31  1  0  0  0
  8 15  1  0  0  0
  8 17  1  0  0  0
  9 10  1  0  0  0
  9 11  2  0  0  0
 10 12  2  0  0  0
 12 14  1  0  0  0
 12 13  1  0  0  0
 13 33  1  0  0  0
 13 32  1  0  0  0
 14 35  1  0  0  0
 14 34  1  0  0  0
 15 16  1  0  0  0
 15 36  1  0  0  0
 15 37  1  0  0  0
 16 18  1  0  0  0
 16 38  1  0  0  0
 16 39  1  0  0  0
 17 19  1  0  0  0
 17 40  1  0  0  0
 17 41  1  0  0  0
 18 20  1  0  0  0
 18 42  1  0  0  0
 18 43  1  0  0  0
 19 20  1  0  0  0
 19 44  1  0  0  0
 19 45  1  0  0  0
 20 46  1  0  0  0
 20 47  1  0  0  0
 21 22  1  0  0  0
 21 23  2  0  0  0
 22 25  1  0  0  0
 23 24  1  0  0  0
 23 48  1  0  0  0
 24 25  2  0  0  0
 24 29  1  0  0  0
 25 26  1  0  0  0
 26 27  2  0  0  0
 26 49  1  0  0  0
 27 28  1  0  0  0
 27 50  1  0  0  0
 28 29  2  0  0  0
 28 51  1  0  0  0
 29 52  1  0  0  0
M  END
> <s_m_entry_id>
42041

> <s_m_entry_name>
dock_pv.6

> <s_m_Source_Path>
/home/csk/Desktop/cluster/DUD-E-result/urok

> <s_m_Source_File>
dock_pv.maegz

> <i_m_Source_File_Index>
6

> <chembl_id>
CHEMBL4208316

> <chembl_pref_name>
None

> <i_lp_mmshare_version>
53161

> <r_lp_tautomer_probability>
0.499994999999877

> <s_lp_Force_Field>
OPLS_2005

> <r_lp_Energy>
61.007454

> <b_lp_Chiralities_Consistent>
1

> <s_lp_Variant>
CHEMBL3286_lig895-1

> <s_i_glide_gridfile>
glide-grid_1sqt

> <i_i_glide_lignum>
1203

> <i_i_glide_rotatable_bonds>
4

> <r_i_docking_score>
-7.8750532323394

> <r_i_glide_ligand_efficiency>
-0.271553559735841

> <r_i_glide_ligand_efficiency_sa>
-0.834298569714869

> <r_i_glide_ligand_efficiency_ln>
-1.80318749608583

> <r_i_glide_gscore>
-7.8750532323394

> <r_i_glide_lipo>
-3.70601602396242

> <r_i_glide_hbond>
-0.270183018622941

> <r_i_glide_metal>
0

> <r_i_glide_rewards>
-0.914979534902337

> <r_i_glide_evdw>
-48.6592712402344

> <r_i_glide_ecoul>
-6.77221870422363

> <r_i_glide_erotb>
0.469689571843194

> <r_i_glide_esite>
-0.00476785904962755

> <r_i_glide_emodel>
-73.8082795223246

> <r_i_glide_energy>
-55.431489944458

> <r_i_glide_einternal>
12.4307041168213

> <i_i_glide_confnum>
31

> <i_i_glide_posenum>
114

> <r_i_glide_eff_state_penalty>
0

> <s_user_duplicate_titles>
CHEMBL3286_lig895

> <i_f3d_flags>
1

> <s_m_subgroup_title>
dock_pv

> <s_m_subgroupid>
dock_pv

> <b_m_subgroup_collapsed>
1

$$$$
CHEMBL3286_lig904
                    3D
 Schrodinger Suite 2021-1.
 57 59  0  0  1  0            999 V2000
   22.9239   17.2241   34.3263 C   0  0  0  0  0  0
   23.0317   15.8799   33.8811 C   0  0  0  0  0  0
   21.9020   15.2688   33.4200 N   0  0  0  0  0  0
   20.7398   15.9497   33.3405 C   0  0  0  0  0  0
   20.6558   17.2974   33.7201 C   0  0  0  0  0  0
   21.7557   17.9109   34.2284 N   0  0  0  0  0  0
   19.6537   15.2120   32.8879 N   0  0  0  0  0  0
   24.1790   15.0358   33.9115 N   0  0  0  0  0  0
   19.3828   18.1130   33.5934 C   0  0  0  0  0  0
   19.5234   19.4809   33.8200 N   0  0  0  0  0  0
   18.3240   17.5685   33.2607 O   0  0  0  0  0  0
   18.5394   20.2842   33.9396 C   0  0  0  0  0  0
   18.7240   21.6448   34.2200 N   0  0  0  0  0  0
   17.1643   20.0120   33.8200 N   0  0  0  0  0  0
   24.2382   13.9279   32.9316 C   0  0  0  0  0  0
   25.5678   13.1957   32.6393 C   0  0  0  0  0  0
   25.4420   15.4214   34.5488 C   0  0  0  0  0  0
   26.6671   14.0500   31.9792 C   0  0  0  0  0  0
   26.5270   16.0379   33.6452 C   0  0  0  0  0  0
   27.4095   15.0012   32.9318 C   0  0  0  0  0  0
   23.9899   18.0715   34.8959 C   0  0  0  0  0  0
   24.1531   18.1662   36.2807 C   0  0  0  0  0  0
   25.1726   18.9544   36.8313 C   0  0  0  0  0  0
   26.0148   19.6536   35.9668 C   0  0  0  0  0  0
   25.8438   19.6120   34.5818 C   0  0  0  0  0  0
   24.8207   18.8131   34.0560 C   0  0  0  0  0  0
   26.6952   20.3913   33.8200 O   0  0  0  0  0  0
   26.5617   20.3765   32.4007 C   0  0  0  0  0  0
   25.4088   19.0968   38.1847 O   0  0  0  0  0  0
   24.5558   18.4348   39.1142 C   0  0  0  0  0  0
   18.7495   15.6725   32.9103 H   0  0  0  0  0  0
   19.7499   14.2068   32.8489 H   0  0  0  0  0  0
   19.6313   21.8801   34.6054 H   0  0  0  0  0  0
   18.0018   22.0453   34.8134 H   0  0  0  0  0  0
   16.8565   19.1164   33.4817 H   0  0  0  0  0  0
   16.4846   20.4788   34.4185 H   0  0  0  0  0  0
   23.4715   13.1873   33.1646 H   0  0  0  0  0  0
   23.9967   14.3854   31.9700 H   0  0  0  0  0  0
   25.9462   12.7240   33.5467 H   0  0  0  0  0  0
   25.3414   12.3657   31.9687 H   0  0  0  0  0  0
   25.2761   16.0319   35.4298 H   0  0  0  0  0  0
   25.8205   14.5148   35.0200 H   0  0  0  0  0  0
   27.4029   13.3814   31.5296 H   0  0  0  0  0  0
   26.2450   14.6167   31.1476 H   0  0  0  0  0  0
   26.0550   16.6382   32.8666 H   0  0  0  0  0  0
   27.1575   16.7064   34.2330 H   0  0  0  0  0  0
   28.1808   15.5276   32.3676 H   0  0  0  0  0  0
   27.9457   14.4141   33.6789 H   0  0  0  0  0  0
   23.4804   17.6120   36.9168 H   0  0  0  0  0  0
   26.8070   20.2563   36.3842 H   0  0  0  0  0  0
   24.6541   18.7547   32.9910 H   0  0  0  0  0  0
   27.3122   21.0325   31.9596 H   0  0  0  0  0  0
   26.7200   19.3763   31.9938 H   0  0  0  0  0  0
   25.5817   20.7400   32.0862 H   0  0  0  0  0  0
   24.8865   18.6563   40.1291 H   0  0  0  0  0  0
   23.5240   18.7769   39.0253 H   0  0  0  0  0  0
   24.5859   17.3515   38.9867 H   0  0  0  0  0  0
  1  2  2  0  0  0
  1  6  1  0  0  0
  1 21  1  0  0  0
  2  3  1  0  0  0
  2  8  1  0  0  0
  3  4  2  0  0  0
  4  5  1  0  0  0
  4  7  1  0  0  0
  5  6  2  0  0  0
  5  9  1  0  0  0
  7 31  1  0  0  0
  7 32  1  0  0  0
  8 15  1  0  0  0
  8 17  1  0  0  0
  9 10  1  0  0  0
  9 11  2  0  0  0
 10 12  2  0  0  0
 12 14  1  0  0  0
 12 13  1  0  0  0
 13 34  1  0  0  0
 13 33  1  0  0  0
 14 36  1  0  0  0
 14 35  1  0  0  0
 15 16  1  0  0  0
 15 37  1  0  0  0
 15 38  1  0  0  0
 16 18  1  0  0  0
 16 39  1  0  0  0
 16 40  1  0  0  0
 17 19  1  0  0  0
 17 41  1  0  0  0
 17 42  1  0  0  0
 18 20  1  0  0  0
 18 43  1  0  0  0
 18 44  1  0  0  0
 19 20  1  0  0  0
 19 45  1  0  0  0
 19 46  1  0  0  0
 20 47  1  0  0  0
 20 48  1  0  0  0
 21 22  2  0  0  0
 21 26  1  0  0  0
 22 23  1  0  0  0
 22 49  1  0  0  0
 23 24  2  0  0  0
 23 29  1  0  0  0
 24 25  1  0  0  0
 24 50  1  0  0  0
 25 26  2  0  0  0
 25 27  1  0  0  0
 26 51  1  0  0  0
 27 28  1  0  0  0
 28 52  1  0  0  0
 28 53  1  0  0  0
 28 54  1  0  0  0
 29 30  1  0  0  0
 30 55  1  0  0  0
 30 56  1  0  0  0
 30 57  1  0  0  0
M  END
> <s_m_entry_id>
42042

> <s_m_entry_name>
dock_pv.7

> <s_m_Source_Path>
/home/csk/Desktop/cluster/DUD-E-result/urok

> <s_m_Source_File>
dock_pv.maegz

> <i_m_Source_File_Index>
7

> <chembl_id>
CHEMBL4207061

> <chembl_pref_name>
None

> <i_lp_mmshare_version>
53161

> <r_lp_tautomer_probability>
0.499994999999877

> <s_lp_Force_Field>
OPLS_2005

> <r_lp_Energy>
62.232775

> <b_lp_Chiralities_Consistent>
1

> <s_lp_Variant>
CHEMBL3286_lig904-1

> <s_i_glide_gridfile>
glide-grid_1sqt

> <i_i_glide_lignum>
1212

> <i_i_glide_rotatable_bonds>
6

> <r_i_docking_score>
-7.70602755887576

> <r_i_glide_ligand_efficiency>
-0.256867585295859

> <r_i_glide_ligand_efficiency_sa>
-0.798147309852282

> <r_i_glide_ligand_efficiency_ln>
-1.75089342527181

> <r_i_glide_gscore>
-7.70602755887576

> <r_i_glide_lipo>
-1.72831439009289

> <r_i_glide_hbond>
-1.56975741162007

> <r_i_glide_metal>
0

> <r_i_glide_rewards>
-1.23800641648352

> <r_i_glide_evdw>
-37.9497947692871

> <r_i_glide_ecoul>
-10.3190565109253

> <r_i_glide_erotb>
0.461594258653946

> <r_i_glide_esite>
-0.186195384230077

> <r_i_glide_emodel>
-64.749083876543

> <r_i_glide_energy>
-48.2688512802124

> <r_i_glide_einternal>
10.4715356826782

> <i_i_glide_confnum>
40

> <i_i_glide_posenum>
155

> <r_i_glide_eff_state_penalty>
0

> <s_user_duplicate_titles>
CHEMBL3286_lig904

> <i_f3d_flags>
1

> <s_m_subgroup_title>
dock_pv

> <s_m_subgroupid>
dock_pv

> <b_m_subgroup_collapsed>
1

$$$$
CHEMBL3286_lig925 
                    3D
 Schrodinger Suite 2021-1.
 36 38  0  0  1  0            999 V2000
   23.3513   15.4997   33.6409 C   0  0  0  0  0  0
   24.6534   15.9888   33.8625 C   0  0  0  0  0  0
   25.7282   15.1637   33.8773 N   0  0  0  0  0  0
   25.5288   13.8455   33.6424 C   0  0  0  0  0  0
   24.2384   13.3427   33.4053 C   0  0  0  0  0  0
   23.1588   14.1691   33.4150 N   0  0  0  0  0  0
   26.6743   13.0507   33.6268 N   0  0  0  0  0  0
   24.9395   17.3396   34.0327 N   0  0  0  0  0  0
   23.9534   11.8990   33.1129 C   0  0  0  0  0  0
   24.2790   11.0245   34.1402 N   0  0  0  0  0  0
   23.5238   11.5502   32.0113 O   0  0  0  0  0  0
   23.5541   10.0108   34.4172 C   0  0  0  0  0  0
   23.9234    9.1010   35.4197 N   0  0  0  0  0  0
   22.3363    9.6121   33.8213 N   0  0  0  0  0  0
   22.0919   16.3153   33.5502 C   0  0  0  0  0  0
   21.8266   17.6855   34.6199 S   0  0  0  0  0  0
   21.0080   16.1107   32.7120 C   0  0  0  0  0  0
   19.9787   17.0808   32.8529 C   0  0  0  0  0  0
   20.2844   18.0353   33.8632 C   0  0  0  0  0  0
   19.4165   19.0963   34.1604 C   0  0  0  0  0  0
   18.2444   19.2103   33.4195 C   0  0  0  0  0  0
   17.9241   18.2860   32.4294 C   0  0  0  0  0  0
   18.7697   17.2123   32.1498 C   0  0  0  0  0  0
   26.5940   12.0713   33.3946 H   0  0  0  0  0  0
   27.5743   13.4994   33.7153 H   0  0  0  0  0  0
   24.1866   18.0113   33.9860 H   0  0  0  0  0  0
   25.9025   17.6222   34.1295 H   0  0  0  0  0  0
   24.6773    9.3751   36.0290 H   0  0  0  0  0  0
   23.1770    8.6758   35.9499 H   0  0  0  0  0  0
   22.1576    9.9971   32.9049 H   0  0  0  0  0  0
   22.1316    8.6188   33.8205 H   0  0  0  0  0  0
   20.9605   15.3085   31.9925 H   0  0  0  0  0  0
   19.6455   19.8148   34.9356 H   0  0  0  0  0  0
   17.5639   20.0256   33.6299 H   0  0  0  0  0  0
   17.0030   18.4024   31.8747 H   0  0  0  0  0  0
   18.5092   16.5105   31.3730 H   0  0  0  0  0  0
  1  2  2  0  0  0
  1  6  1  0  0  0
  1 15  1  0  0  0
  2  3  1  0  0  0
  2  8  1  0  0  0
  3  4  2  0  0  0
  4  5  1  0  0  0
  4  7  1  0  0  0
  5  6  2  0  0  0
  5  9  1  0  0  0
  7 24  1  0  0  0
  7 25  1  0  0  0
  8 26  1  0  0  0
  8 27  1  0  0  0
  9 10  1  0  0  0
  9 11  2  0  0  0
 10 12  2  0  0  0
 12 14  1  0  0  0
 12 13  1  0  0  0
 13 29  1  0  0  0
 13 28  1  0  0  0
 14 31  1  0  0  0
 14 30  1  0  0  0
 15 16  1  0  0  0
 15 17  2  0  0  0
 16 19  1  0  0  0
 17 18  1  0  0  0
 17 32  1  0  0  0
 18 19  2  0  0  0
 18 23  1  0  0  0
 19 20  1  0  0  0
 20 21  2  0  0  0
 20 33  1  0  0  0
 21 22  1  0  0  0
 21 34  1  0  0  0
 22 23  2  0  0  0
 22 35  1  0  0  0
 23 36  1  0  0  0
M  END
> <s_m_entry_id>
42043

> <s_m_entry_name>
dock_pv.8

> <s_m_Source_Path>
/home/csk/Desktop/cluster/DUD-E-result/urok

> <s_m_Source_File>
dock_pv.maegz

> <i_m_Source_File_Index>
8

> <chembl_id>
CHEMBL4546029

> <chembl_pref_name>
None

> <i_lp_mmshare_version>
53161

> <r_lp_tautomer_probability>
0.499995

> <s_lp_Force_Field>
OPLS_2005

> <r_lp_Energy>
44.740487

> <b_lp_Chiralities_Consistent>
1

> <s_lp_Variant>
CHEMBL3286_lig925 -1

> <s_i_glide_gridfile>
glide-grid_1sqt

> <i_i_glide_lignum>
1233

> <i_i_glide_rotatable_bonds>
3

> <r_i_docking_score>
-7.57345936775659

> <r_i_glide_ligand_efficiency>
-0.329280842076373

> <r_i_glide_ligand_efficiency_sa>
-0.936430912899992

> <r_i_glide_ligand_efficiency_ln>
-1.83133114745634

> <r_i_glide_gscore>
-7.57345936775659

> <r_i_glide_lipo>
-2.92072363788681

> <r_i_glide_hbond>
-0.424172422010549

> <r_i_glide_metal>
0

> <r_i_glide_rewards>
-1.39135744758204

> <r_i_glide_evdw>
-38.8924331665039

> <r_i_glide_ecoul>
-8.91523361206055

> <r_i_glide_erotb>
0.525358051255252

> <r_i_glide_esite>
-0.0806572113981733

> <r_i_glide_emodel>
-64.9954008040847

> <r_i_glide_energy>
-47.8076667785645

> <r_i_glide_einternal>
9.71435546875

> <i_i_glide_confnum>
6

> <i_i_glide_posenum>
208

> <r_i_glide_eff_state_penalty>
0

> <s_user_duplicate_titles>
CHEMBL3286_lig925 

> <i_f3d_flags>
1

> <s_m_subgroup_title>
dock_pv

> <s_m_subgroupid>
dock_pv

> <b_m_subgroup_collapsed>
1

$$$$
CHEMBL3286_lig508
                    3D
 Schrodinger Suite 2021-1.
 44 46  0  0  1  0            999 V2000
   24.1623   14.1823   33.2960 C   0  0  0  0  0  0
   18.3337   19.7326   33.8359 C   0  0  0  0  0  0
   23.5240   13.0267   33.0066 N   0  0  0  0  0  0
   23.2550   15.3753   33.4881 C   0  0  0  0  0  0
   19.3462   18.6800   33.5456 C   0  0  0  0  0  0
   22.0634   15.4939   32.7620 C   0  0  0  0  0  0
   20.5762   18.5976   34.2200 C   0  0  0  0  0  0
   21.1662   16.5579   32.9988 C   0  0  0  0  0  0
   21.4963   17.5486   33.9663 C   0  0  0  0  0  0
   17.1663   19.6120   33.4200 N   0  0  0  0  0  0
   24.0762   11.7656   32.7379 C   0  0  0  0  0  0
   25.3794   14.2847   33.4553 O   0  0  0  0  0  0
   25.3252   11.5771   32.1256 C   0  0  0  0  0  0
   23.5911   16.3789   34.4035 C   0  0  0  0  0  0
   19.0613   17.6876   32.5928 C   0  0  0  0  0  0
   22.7316   17.4485   34.6509 C   0  0  0  0  0  0
   19.9413   16.6523   32.3090 C   0  0  0  0  0  0
   18.7240   20.7797   34.6200 N   0  0  0  0  0  0
   25.7817   10.2830   31.8200 C   0  0  0  0  0  0
   26.9837    9.9916   31.2046 O   0  0  0  0  0  0
   23.7447    9.3690   32.7693 C   0  0  0  0  0  0
   23.2899   10.6548   33.0496 C   0  0  0  0  0  0
   24.9819    9.1891   32.1554 C   0  0  0  0  0  0
   27.8157   11.0297   30.6877 C   0  0  0  0  0  0
   27.2541   11.6295   29.3884 C   0  0  0  0  0  0
   22.5144   13.0587   33.0200 H   0  0  0  0  0  0
   21.7928   14.7645   32.0137 H   0  0  0  0  0  0
   20.8401   19.3182   34.9784 H   0  0  0  0  0  0
   16.5670   20.3547   33.7666 H   0  0  0  0  0  0
   25.9239   12.4360   31.8684 H   0  0  0  0  0  0
   24.5175   16.3198   34.9587 H   0  0  0  0  0  0
   18.1297   17.7114   32.0431 H   0  0  0  0  0  0
   22.9963   18.2010   35.3800 H   0  0  0  0  0  0
   19.6825   15.9110   31.5668 H   0  0  0  0  0  0
   18.0124   21.4063   34.9932 H   0  0  0  0  0  0
   19.6798   20.8938   34.9482 H   0  0  0  0  0  0
   23.1337    8.5123   33.0200 H   0  0  0  0  0  0
   22.3240   10.7759   33.5163 H   0  0  0  0  0  0
   25.3249    8.1898   31.9299 H   0  0  0  0  0  0
   28.0104   11.7993   31.4360 H   0  0  0  0  0  0
   28.7852   10.5792   30.4720 H   0  0  0  0  0  0
   27.9641   12.3296   28.9479 H   0  0  0  0  0  0
   27.0617   10.8477   28.6524 H   0  0  0  0  0  0
   26.3240   12.1706   29.5547 H   0  0  0  0  0  0
  1  3  1  0  0  0
  1  4  1  0  0  0
  1 12  2  0  0  0
  2  5  1  0  0  0
  2 10  2  0  0  0
  2 18  1  0  0  0
  3 11  1  0  0  0
  3 26  1  0  0  0
  4  6  1  0  0  0
  4 14  2  0  0  0
  5  7  2  0  0  0
  5 15  1  0  0  0
  6  8  2  0  0  0
  6 27  1  0  0  0
  7  9  1  0  0  0
  7 28  1  0  0  0
  8 17  1  0  0  0
  8  9  1  0  0  0
  9 16  2  0  0  0
 10 29  1  0  0  0
 11 13  2  0  0  0
 11 22  1  0  0  0
 13 19  1  0  0  0
 13 30  1  0  0  0
 14 16  1  0  0  0
 14 31  1  0  0  0
 15 17  2  0  0  0
 15 32  1  0  0  0
 16 33  1  0  0  0
 17 34  1  0  0  0
 18 35  1  0  0  0
 18 36  1  0  0  0
 19 20  1  0  0  0
 19 23  2  0  0  0
 20 24  1  0  0  0
 21 22  2  0  0  0
 21 23  1  0  0  0
 21 37  1  0  0  0
 22 38  1  0  0  0
 23 39  1  0  0  0
 24 25  1  0  0  0
 24 40  1  0  0  0
 24 41  1  0  0  0
 25 42  1  0  0  0
 25 43  1  0  0  0
 25 44  1  0  0  0
M  END
> <s_m_entry_id>
42044

> <s_m_entry_name>
dock_pv.9

> <s_m_Source_Path>
/home/csk/Desktop/cluster/DUD-E-result/urok

> <s_m_Source_File>
dock_pv.maegz

> <i_m_Source_File_Index>
9

> <chembl_id>
CHEMBL108098

> <chembl_pref_name>
None

> <i_lp_mmshare_version>
53161

> <r_lp_tautomer_probability>
1

> <s_lp_Force_Field>
OPLS_2005

> <r_lp_Energy>
17.221271

> <b_lp_Chiralities_Consistent>
1

> <s_lp_Variant>
CHEMBL3286_lig508-1

> <s_i_glide_gridfile>
glide-grid_1sqt

> <i_i_glide_lignum>
669

> <i_i_glide_rotatable_bonds>
6

> <r_i_docking_score>
-7.51782231281574

> <r_i_glide_ligand_efficiency>
-0.30071289251263

> <r_i_glide_ligand_efficiency_sa>
-0.879289830872786

> <r_i_glide_ligand_efficiency_ln>
-1.78194917909218

> <r_i_glide_gscore>
-7.51782231281574

> <r_i_glide_lipo>
-2.92181127743338

> <r_i_glide_hbond>
-0.696164131328863

> <r_i_glide_metal>
0

> <r_i_glide_rewards>
-1.24273087477832

> <r_i_glide_evdw>
-33.0014610290527

> <r_i_glide_ecoul>
-10.9582958221436

> <r_i_glide_erotb>
0.678279985404529

> <r_i_glide_esite>
-0.0415785899055388

> <r_i_glide_emodel>
-62.0178567332298

> <r_i_glide_energy>
-43.9597568511963

> <r_i_glide_einternal>
1.83867406845093

> <i_i_glide_confnum>
6

> <i_i_glide_posenum>
70

> <r_i_glide_eff_state_penalty>
0

> <s_user_duplicate_titles>
CHEMBL3286_lig508,181400

> <i_f3d_flags>
0

> <s_m_subgroup_title>
dock_pv

> <s_m_subgroupid>
dock_pv

> <b_m_subgroup_collapsed>
1

$$$$
CHEMBL3286_lig527
                    3D
 Schrodinger Suite 2021-1.
 28 29  0  0  1  0            999 V2000
   19.8450   19.4250   33.9676 N   0  0  0  0  0  0
   20.2389   18.0887   33.7866 C   0  0  0  0  0  0
   18.6093   20.0991   33.8456 C   0  0  0  0  0  0
   21.6143   17.7515   33.9448 C   0  0  0  0  0  0
   19.2874   17.1727   33.4690 N   0  0  0  0  0  0
   22.6268   18.6924   34.2722 C   0  0  0  0  0  0
   21.9842   16.3880   33.7453 C   0  0  0  0  0  0
   17.5240   19.6120   33.4695 N   0  0  0  0  0  0
   18.7240   21.4436   34.2200 N   0  0  0  0  0  0
   23.3431   16.0128   33.8734 C   0  0  0  0  0  0
   23.9650   18.3067   34.3599 C   0  0  0  0  0  0
   19.6608   15.8866   33.2953 C   0  0  0  0  0  0
   24.3115   16.9686   34.1718 C   0  0  0  0  0  0
   24.7240   20.6484   34.2200 O   0  0  0  0  0  0
   20.9763   15.4498   33.4200 C   0  0  0  0  0  0
   25.0527   19.3365   34.6415 C   0  0  0  0  0  0
   20.5980   20.0261   34.2658 H   0  0  0  0  0  0
   22.3581   19.7267   34.4298 H   0  0  0  0  0  0
   16.7729   20.2872   33.5355 H   0  0  0  0  0  0
   17.8656   21.9096   34.5032 H   0  0  0  0  0  0
   19.4683   21.6699   34.8667 H   0  0  0  0  0  0
   23.6259   14.9812   33.7224 H   0  0  0  0  0  0
   18.8689   15.1904   33.0594 H   0  0  0  0  0  0
   25.3456   16.6631   34.2467 H   0  0  0  0  0  0
   24.2588   20.5819   33.3732 H   0  0  0  0  0  0
   21.2311   14.4120   33.2753 H   0  0  0  0  0  0
   25.2563   19.3531   35.7128 H   0  0  0  0  0  0
   25.9821   19.0439   34.1502 H   0  0  0  0  0  0
  1  2  1  0  0  0
  1  3  1  0  0  0
  1 17  1  0  0  0
  2  4  1  0  0  0
  2  5  2  0  0  0
  3  8  2  0  0  0
  3  9  1  0  0  0
  4  6  2  0  0  0
  4  7  1  0  0  0
  5 12  1  0  0  0
  6 11  1  0  0  0
  6 18  1  0  0  0
  7 10  2  0  0  0
  7 15  1  0  0  0
  8 19  1  0  0  0
  9 20  1  0  0  0
  9 21  1  0  0  0
 10 13  1  0  0  0
 10 22  1  0  0  0
 11 16  1  0  0  0
 11 13  2  0  0  0
 12 15  2  0  0  0
 12 23  1  0  0  0
 13 24  1  0  0  0
 14 16  1  0  0  0
 14 25  1  0  0  0
 15 26  1  0  0  0
 16 27  1  0  0  0
 16 28  1  0  0  0
M  END
> <s_m_entry_id>
42045

> <s_m_entry_name>
dock_pv.10

> <s_m_Source_Path>
/home/csk/Desktop/cluster/DUD-E-result/urok

> <s_m_Source_File>
dock_pv.maegz

> <i_m_Source_File_Index>
10

> <chembl_id>
CHEMBL324663

> <chembl_pref_name>
None

> <i_lp_mmshare_version>
53161

> <r_lp_tautomer_probability>
1

> <s_lp_Force_Field>
OPLS_2005

> <r_lp_Energy>
0.496809

> <b_lp_Chiralities_Consistent>
1

> <s_lp_Variant>
CHEMBL3286_lig527-1

> <s_i_glide_gridfile>
glide-grid_1sqt

> <i_i_glide_lignum>
691

> <i_i_glide_rotatable_bonds>
4

> <r_i_docking_score>
-7.50075956796905

> <r_i_glide_ligand_efficiency>
-0.468797472998066

> <r_i_glide_ligand_efficiency_sa>
-1.18129560764382

> <r_i_glide_ligand_efficiency_ln>
-1.98822615456366

> <r_i_glide_gscore>
-7.50075956796905

> <r_i_glide_lipo>
-1.6460820676646

> <r_i_glide_hbond>
-1.24519913989331

> <r_i_glide_metal>
0

> <r_i_glide_rewards>
-1.93473286363636

> <r_i_glide_evdw>
-26.7355403900146

> <r_i_glide_ecoul>
-15.5213203430176

> <r_i_glide_erotb>
1.07482380874523

> <r_i_glide_esite>
-0.0845942345666345

> <r_i_glide_emodel>
-60.8368423264056

> <r_i_glide_energy>
-42.2568607330322

> <r_i_glide_einternal>
1.83896553516388

> <i_i_glide_confnum>
8

> <i_i_glide_posenum>
88

> <r_i_glide_eff_state_penalty>
0

> <s_user_duplicate_titles>
CHEMBL3286_lig527

> <i_f3d_flags>
0

> <s_m_subgroup_title>
dock_pv

> <s_m_subgroupid>
dock_pv

> <b_m_subgroup_collapsed>
1

$$$$
CHEMBL3286_lig48
                    3D
 Schrodinger Suite 2021-1.
 18 19  0  0  1  0            999 V2000
   21.8154   15.6246   33.4191 C   0  0  0  0  0  0
   20.5121   15.9794   33.0629 C   0  0  0  0  0  0
   20.0362   17.2366   33.4627 C   0  0  0  0  0  0
   20.8757   18.0964   34.2195 C   0  0  0  0  0  0
   22.1745   17.7423   34.5912 C   0  0  0  0  0  0
   22.6201   16.4877   34.1653 C   0  0  0  0  0  0
   18.8155   17.8175   33.2303 N   0  0  0  0  0  0
   18.9031   18.9871   33.8062 C   0  0  0  0  0  0
   20.1016   19.2119   34.4255 N   0  0  0  0  0  0
   17.9239   19.9242   33.8200 N   0  0  0  0  0  0
   22.3240   14.4121   33.0343 O   0  0  0  0  0  0
   19.8831   15.3159   32.4915 H   0  0  0  0  0  0
   22.8054   18.4041   35.1664 H   0  0  0  0  0  0
   23.6217   16.1733   34.4208 H   0  0  0  0  0  0
   20.3273   20.0772   34.9078 H   0  0  0  0  0  0
   17.0488   19.7562   33.3458 H   0  0  0  0  0  0
   17.8883   20.6630   34.5146 H   0  0  0  0  0  0
   21.6695   13.8321   32.6206 H   0  0  0  0  0  0
  1  2  2  0  0  0
  1  6  1  0  0  0
  1 11  1  0  0  0
  2  3  1  0  0  0
  2 12  1  0  0  0
  3  4  2  0  0  0
  3  7  1  0  0  0
  4  5  1  0  0  0
  4  9  1  0  0  0
  5  6  2  0  0  0
  5 13  1  0  0  0
  6 14  1  0  0  0
  7  8  2  0  0  0
  8  9  1  0  0  0
  8 10  1  0  0  0
  9 15  1  0  0  0
 10 16  1  0  0  0
 10 17  1  0  0  0
 11 18  1  0  0  0
M  END
> <s_m_entry_id>
42046

> <s_m_entry_name>
dock_pv.11

> <s_m_Source_Path>
/home/csk/Desktop/cluster/DUD-E-result/urok

> <s_m_Source_File>
dock_pv.maegz

> <i_m_Source_File_Index>
11

> <chembl_id>
CHEMBL126589

> <chembl_pref_name>
None

> <i_lp_mmshare_version>
53161

> <r_lp_tautomer_probability>
1

> <s_lp_Force_Field>
OPLS_2005

> <r_lp_Energy>
2.85285

> <b_lp_Chiralities_Consistent>
1

> <s_lp_Variant>
CHEMBL3286_lig48-1

> <s_i_glide_gridfile>
glide-grid_1sqt

> <i_i_glide_lignum>
80

> <i_i_glide_rotatable_bonds>
1

> <r_i_docking_score>
-7.49048568948336

> <r_i_glide_ligand_efficiency>
-0.680953244498488

> <r_i_glide_ligand_efficiency_sa>
-1.51442645716274

> <r_i_glide_ligand_efficiency_ln>
-2.2044486625141

> <r_i_glide_gscore>
-7.49048568948336

> <r_i_glide_lipo>
-1.50338276754749

> <r_i_glide_hbond>
-0.609803209781696

> <r_i_glide_metal>
0

> <r_i_glide_rewards>
-2.62075579073632

> <r_i_glide_evdw>
-23.040979385376

> <r_i_glide_ecoul>
-10.4257793426514

> <r_i_glide_erotb>
0

> <r_i_glide_esite>
-0.0406280507513505

> <r_i_glide_emodel>
-48.7455677230461

> <r_i_glide_energy>
-33.4667587280273

> <r_i_glide_einternal>
0.138537749648094

> <i_i_glide_confnum>
1

> <i_i_glide_posenum>
97

> <r_i_glide_eff_state_penalty>
0

> <s_user_duplicate_titles>
CHEMBL3286_lig48

> <i_f3d_flags>
0

> <s_m_subgroup_title>
dock_pv

> <s_m_subgroupid>
dock_pv

> <b_m_subgroup_collapsed>
1

$$$$
CHEMBL3286_lig229 
                    3D
 Schrodinger Suite 2021-1.
 36 38  0  0  1  0            999 V2000
   23.1700   15.6754   33.8203 C   0  0  0  0  0  0
   24.4373   16.1361   34.2126 C   0  0  0  0  0  0
   25.5181   15.3173   34.2154 N   0  0  0  0  0  0
   25.3483   14.0344   33.8141 C   0  0  0  0  0  0
   24.0838   13.5625   33.4257 C   0  0  0  0  0  0
   23.0015   14.3847   33.4200 N   0  0  0  0  0  0
   26.4933   13.2381   33.8120 N   0  0  0  0  0  0
   24.6674   17.4548   34.5912 N   0  0  0  0  0  0
   23.8359   12.1485   33.0069 C   0  0  0  0  0  0
   23.4191   11.3085   34.0328 N   0  0  0  0  0  0
   23.9237   11.8367   31.8200 O   0  0  0  0  0  0
   23.4956   10.0343   33.9513 C   0  0  0  0  0  0
   23.1240    9.2120   35.0212 N   0  0  0  0  0  0
   23.9237    9.2384   32.8624 N   0  0  0  0  0  0
   21.9342   16.5132   33.7865 C   0  0  0  0  0  0
   21.0123   16.2099   32.8217 O   0  0  0  0  0  0
   21.5198   17.6125   34.5348 C   0  0  0  0  0  0
   20.2806   18.0446   33.9753 C   0  0  0  0  0  0
   20.0140   17.1337   32.9310 C   0  0  0  0  0  0
   18.8717   17.2108   32.1269 C   0  0  0  0  0  0
   17.9891   18.2618   32.3837 C   0  0  0  0  0  0
   18.2329   19.1790   33.4093 C   0  0  0  0  0  0
   19.3639   19.0760   34.2204 C   0  0  0  0  0  0
   26.4531   12.3145   33.4060 H   0  0  0  0  0  0
   27.3781   13.6844   34.0035 H   0  0  0  0  0  0
   23.9276   18.1295   34.4636 H   0  0  0  0  0  0
   25.6154   17.7397   34.7828 H   0  0  0  0  0  0
   22.7238    9.6471   35.8390 H   0  0  0  0  0  0
   22.6704    8.3263   34.8139 H   0  0  0  0  0  0
   24.0424    9.7359   31.9902 H   0  0  0  0  0  0
   23.4303    8.3742   32.7011 H   0  0  0  0  0  0
   22.0460   18.0535   35.3673 H   0  0  0  0  0  0
   18.6988   16.5051   31.3290 H   0  0  0  0  0  0
   17.1007   18.3728   31.7780 H   0  0  0  0  0  0
   17.5260   19.9786   33.5946 H   0  0  0  0  0  0
   19.5206   19.7802   35.0211 H   0  0  0  0  0  0
  1  2  2  0  0  0
  1  6  1  0  0  0
  1 15  1  0  0  0
  2  3  1  0  0  0
  2  8  1  0  0  0
  3  4  2  0  0  0
  4  5  1  0  0  0
  4  7  1  0  0  0
  5  6  2  0  0  0
  5  9  1  0  0  0
  7 24  1  0  0  0
  7 25  1  0  0  0
  8 26  1  0  0  0
  8 27  1  0  0  0
  9 10  1  0  0  0
  9 11  2  0  0  0
 10 12  2  0  0  0
 12 14  1  0  0  0
 12 13  1  0  0  0
 13 29  1  0  0  0
 13 28  1  0  0  0
 14 31  1  0  0  0
 14 30  1  0  0  0
 15 16  1  0  0  0
 15 17  2  0  0  0
 16 19  1  0  0  0
 17 18  1  0  0  0
 17 32  1  0  0  0
 18 19  2  0  0  0
 18 23  1  0  0  0
 19 20  1  0  0  0
 20 21  2  0  0  0
 20 33  1  0  0  0
 21 22  1  0  0  0
 21 34  1  0  0  0
 22 23  2  0  0  0
 22 35  1  0  0  0
 23 36  1  0  0  0
M  END
> <s_m_entry_id>
42047

> <s_m_entry_name>
dock_pv.12

> <s_m_Source_Path>
/home/csk/Desktop/cluster/DUD-E-result/urok

> <s_m_Source_File>
dock_pv.maegz

> <i_m_Source_File_Index>
12

> <chembl_id>
CHEMBL4473654

> <chembl_pref_name>
None

> <i_lp_mmshare_version>
53161

> <r_lp_tautomer_probability>
0.499995

> <s_lp_Force_Field>
OPLS_2005

> <r_lp_Energy>
39.601101

> <b_lp_Chiralities_Consistent>
1

> <s_lp_Variant>
CHEMBL3286_lig229 -1

> <s_i_glide_gridfile>
glide-grid_1sqt

> <i_i_glide_lignum>
319

> <i_i_glide_rotatable_bonds>
3

> <r_i_docking_score>
-7.44291351684468

> <r_i_glide_ligand_efficiency>
-0.323604935514986

> <r_i_glide_ligand_efficiency_sa>
-0.92028938966621

> <r_i_glide_ligand_efficiency_ln>
-1.79976397698151

> <r_i_glide_gscore>
-7.44291351684468

> <r_i_glide_lipo>
-2.76043805330828

> <r_i_glide_hbond>
-0.397760982775196

> <r_i_glide_metal>
0

> <r_i_glide_rewards>
-1.46741708485405

> <r_i_glide_evdw>
-38.0177154541016

> <r_i_glide_ecoul>
-9.5326566696167

> <r_i_glide_erotb>
0.574053866151082

> <r_i_glide_esite>
-0.060566988910647

> <r_i_glide_emodel>
-65.0348430440829

> <r_i_glide_energy>
-47.5503721237183

> <r_i_glide_einternal>
6.47290897369385

> <i_i_glide_confnum>
8

> <i_i_glide_posenum>
330

> <r_i_glide_eff_state_penalty>
0

> <s_user_duplicate_titles>
CHEMBL3286_lig229 

> <i_f3d_flags>
1

> <s_m_subgroup_title>
dock_pv

> <s_m_subgroupid>
dock_pv

> <b_m_subgroup_collapsed>
1

$$$$
CHEMBL3286_lig468
                    3D
 Schrodinger Suite 2021-1.
 40 42  0  0  1  0            999 V2000
   23.7823   14.9879   32.6907 C   0  0  0  0  0  0
   22.5561   15.1067   32.0570 C   0  0  0  0  0  0
   21.6441   16.1076   32.4422 C   0  0  0  0  0  0
   22.0063   17.0347   33.4666 C   0  0  0  0  0  0
   23.3144   16.9359   34.0575 C   0  0  0  0  0  0
   24.1765   15.8857   33.6873 C   0  0  0  0  0  0
   20.3785   16.2064   31.8251 C   0  0  0  0  0  0
   19.4810   17.1875   32.2207 C   0  0  0  0  0  0
   19.7798   18.1182   33.2294 C   0  0  0  0  0  0
   21.0390   18.0163   33.8458 C   0  0  0  0  0  0
   18.7732   19.1584   33.6045 C   0  0  0  0  0  0
   17.6644   19.2121   33.0200 N   0  0  0  0  0  0
   19.1240   20.0099   34.6194 N   0  0  0  0  0  0
   25.4076   15.7999   34.3181 O   0  0  0  0  0  0
   26.3103   14.7464   33.9921 C   0  0  0  0  0  0
   23.8284   17.9687   35.0149 C   0  0  0  0  0  0
   24.5437   17.7965   36.1932 C   0  0  0  0  0  0
   24.8379   19.0542   36.6448 N   0  0  0  0  0  0
   24.3244   20.0118   35.8732 N   0  0  0  0  0  0
   23.7515   19.3651   34.8891 C   0  0  0  0  0  0
   25.6036   19.4794   38.1165 S   0  0  0  0  0  0
   26.3206   18.2801   38.5614 O   0  0  0  0  0  0
   26.2876   20.7548   37.8678 O   0  0  0  0  0  0
   24.1143   19.7613   39.2233 C   0  0  0  0  0  0
   24.4311   14.1873   32.3724 H   0  0  0  0  0  0
   22.2847   14.4116   31.2757 H   0  0  0  0  0  0
   20.1103   15.5182   31.0368 H   0  0  0  0  0  0
   18.5268   17.2233   31.7137 H   0  0  0  0  0  0
   21.2868   18.6916   34.6492 H   0  0  0  0  0  0
   17.0784   19.9471   33.3962 H   0  0  0  0  0  0
   18.4306   20.6583   34.9709 H   0  0  0  0  0  0
   20.0796   20.1687   34.9074 H   0  0  0  0  0  0
   27.2034   14.8388   34.6093 H   0  0  0  0  0  0
   25.8742   13.7669   34.1944 H   0  0  0  0  0  0
   26.6236   14.7965   32.9474 H   0  0  0  0  0  0
   24.8839   16.9169   36.7220 H   0  0  0  0  0  0
   23.2719   19.8995   34.0821 H   0  0  0  0  0  0
   24.4718   20.0114   40.2184 H   0  0  0  0  0  0
   23.5196   20.5778   38.8195 H   0  0  0  0  0  0
   23.5259   18.8459   39.2597 H   0  0  0  0  0  0
  1  2  1  0  0  0
  1  6  2  0  0  0
  1 25  1  0  0  0
  2  3  2  0  0  0
  2 26  1  0  0  0
  3  4  1  0  0  0
  3  7  1  0  0  0
  4  5  2  0  0  0
  4 10  1  0  0  0
  5  6  1  0  0  0
  5 16  1  0  0  0
  6 14  1  0  0  0
  7  8  2  0  0  0
  7 27  1  0  0  0
  8  9  1  0  0  0
  8 28  1  0  0  0
  9 10  2  0  0  0
  9 11  1  0  0  0
 10 29  1  0  0  0
 11 12  2  0  0  0
 11 13  1  0  0  0
 12 30  1  0  0  0
 13 31  1  0  0  0
 13 32  1  0  0  0
 14 15  1  0  0  0
 15 33  1  0  0  0
 15 34  1  0  0  0
 15 35  1  0  0  0
 16 17  2  0  0  0
 16 20  1  0  0  0
 17 18  1  0  0  0
 17 36  1  0  0  0
 18 19  1  0  0  0
 18 21  1  0  0  0
 19 20  2  0  0  0
 20 37  1  0  0  0
 21 22  2  0  0  0
 21 23  2  0  0  0
 21 24  1  0  0  0
 24 38  1  0  0  0
 24 39  1  0  0  0
 24 40  1  0  0  0
M  END
> <s_m_entry_id>
42048

> <s_m_entry_name>
dock_pv.13

> <s_m_Source_Path>
/home/csk/Desktop/cluster/DUD-E-result/urok

> <s_m_Source_File>
dock_pv.maegz

> <i_m_Source_File_Index>
13

> <chembl_id>
CHEMBL321944

> <chembl_pref_name>
None

> <i_lp_mmshare_version>
53161

> <r_lp_tautomer_probability>
1

> <s_lp_Force_Field>
OPLS_2005

> <r_lp_Energy>
11.970275

> <b_lp_Chiralities_Consistent>
1

> <s_lp_Variant>
CHEMBL3286_lig468-1

> <s_i_glide_gridfile>
glide-grid_1sqt

> <i_i_glide_lignum>
618

> <i_i_glide_rotatable_bonds>
4

> <r_i_docking_score>
-7.43681409345294

> <r_i_glide_ligand_efficiency>
-0.309867253893872

> <r_i_glide_ligand_efficiency_sa>
-0.893811826614687

> <r_i_glide_ligand_efficiency_ln>
-1.77997086572568

> <r_i_glide_gscore>
-7.43681409345294

> <r_i_glide_lipo>
-2.6127004700224

> <r_i_glide_hbond>
-0.375776249260396

> <r_i_glide_metal>
0

> <r_i_glide_rewards>
-1.59865877819554

> <r_i_glide_evdw>
-36.3668632507324

> <r_i_glide_ecoul>
-7.94280862808228

> <r_i_glide_erotb>
0.16008586077437

> <r_i_glide_esite>
0

> <r_i_glide_emodel>
-63.982091424175

> <r_i_glide_energy>
-44.3096718788147

> <r_i_glide_einternal>
0.739610433578491

> <i_i_glide_confnum>
2

> <i_i_glide_posenum>
157

> <r_i_glide_eff_state_penalty>
0

> <s_user_duplicate_titles>
CHEMBL3286_lig468,170527

> <i_f3d_flags>
0

> <s_m_subgroup_title>
dock_pv

> <s_m_subgroupid>
dock_pv

> <b_m_subgroup_collapsed>
1

$$$$
CHEMBL3286_lig522
                    3D
 Schrodinger Suite 2021-1.
 27 28  0  0  1  0            999 V2000
   19.8702   19.4661   33.8708 N   0  0  0  0  0  0
   20.2938   18.1357   33.7090 C   0  0  0  0  0  0
   18.6159   20.1124   33.8207 C   0  0  0  0  0  0
   21.6826   17.8462   33.8416 C   0  0  0  0  0  0
   22.6676   18.8330   34.1006 C   0  0  0  0  0  0
   24.0223   18.5113   34.1697 C   0  0  0  0  0  0
   25.0404   19.5998   34.3910 C   0  0  0  0  0  0
   19.3650   17.1818   33.4431 N   0  0  0  0  0  0
   26.0794   19.4126   35.0195 O   0  0  0  0  0  0
   22.0953   16.4896   33.6926 C   0  0  0  0  0  0
   24.4107   17.1730   34.0603 C   0  0  0  0  0  0
   23.4700   16.1697   33.8220 C   0  0  0  0  0  0
   17.5240   19.6120   33.4876 N   0  0  0  0  0  0
   18.7240   21.4506   34.2200 N   0  0  0  0  0  0
   24.7241   20.8026   33.8200 O   0  0  0  0  0  0
   19.7788   15.9019   33.3056 C   0  0  0  0  0  0
   21.1107   15.5085   33.4200 C   0  0  0  0  0  0
   20.6182   20.0866   34.1353 H   0  0  0  0  0  0
   22.3575   19.8618   34.2200 H   0  0  0  0  0  0
   25.4556   16.9039   34.1383 H   0  0  0  0  0  0
   23.7869   15.1421   33.7192 H   0  0  0  0  0  0
   16.7632   20.2709   33.6004 H   0  0  0  0  0  0
   17.8652   21.9027   34.5253 H   0  0  0  0  0  0
   19.4738   21.6713   34.8623 H   0  0  0  0  0  0
   23.9804   20.7618   33.1972 H   0  0  0  0  0  0
   19.0053   15.1727   33.1110 H   0  0  0  0  0  0
   21.3927   14.4717   33.3086 H   0  0  0  0  0  0
  1  2  1  0  0  0
  1  3  1  0  0  0
  1 18  1  0  0  0
  2  4  1  0  0  0
  2  8  2  0  0  0
  3 13  2  0  0  0
  3 14  1  0  0  0
  4  5  2  0  0  0
  4 10  1  0  0  0
  5  6  1  0  0  0
  5 19  1  0  0  0
  6  7  1  0  0  0
  6 11  2  0  0  0
  7  9  2  0  0  0
  7 15  1  0  0  0
  8 16  1  0  0  0
 10 12  2  0  0  0
 10 17  1  0  0  0
 11 12  1  0  0  0
 11 20  1  0  0  0
 12 21  1  0  0  0
 13 22  1  0  0  0
 14 23  1  0  0  0
 14 24  1  0  0  0
 15 25  1  0  0  0
 16 17  2  0  0  0
 16 26  1  0  0  0
 17 27  1  0  0  0
M  END
> <s_m_entry_id>
42049

> <s_m_entry_name>
dock_pv.14

> <s_m_Source_Path>
/home/csk/Desktop/cluster/DUD-E-result/urok

> <s_m_Source_File>
dock_pv.maegz

> <i_m_Source_File_Index>
14

> <chembl_id>
CHEMBL113114

> <chembl_pref_name>
None

> <i_lp_mmshare_version>
53161

> <r_lp_tautomer_probability>
1

> <s_lp_Force_Field>
OPLS_2005

> <r_lp_Energy>
4.264132

> <b_lp_Chiralities_Consistent>
1

> <s_lp_Variant>
CHEMBL3286_lig522-1

> <s_i_glide_gridfile>
glide-grid_1sqt

> <i_i_glide_lignum>
686

> <i_i_glide_rotatable_bonds>
4

> <r_i_docking_score>
-7.40850168873702

> <r_i_glide_ligand_efficiency>
-0.435794216984531

> <r_i_glide_ligand_efficiency_sa>
-1.12054964638939

> <r_i_glide_ligand_efficiency_ln>
-1.93271311137029

> <r_i_glide_gscore>
-7.40850168873702

> <r_i_glide_lipo>
-1.51647964703253

> <r_i_glide_hbond>
-0.616572015709531

> <r_i_glide_metal>
0

> <r_i_glide_rewards>
-1.83939068181818

> <r_i_glide_evdw>
-26.2087593078613

> <r_i_glide_ecoul>
-19.8017807006836

> <r_i_glide_erotb>
0.966790272770202

> <r_i_glide_esite>
-0.122144546451371

> <r_i_glide_emodel>
-64.3818887195999

> <r_i_glide_energy>
-46.0105400085449

> <r_i_glide_einternal>
3.96915364265442

> <i_i_glide_confnum>
4

> <i_i_glide_posenum>
190

> <r_i_glide_eff_state_penalty>
0

> <s_user_duplicate_titles>
CHEMBL3286_lig522

> <i_f3d_flags>
0

> <s_m_subgroup_title>
dock_pv

> <s_m_subgroupid>
dock_pv

> <b_m_subgroup_collapsed>
1

$$$$
CHEMBL3286_lig901
                    3D
 Schrodinger Suite 2021-1.
 55 57  0  0  1  0            999 V2000
   22.9878   17.6063   32.8274 C   0  0  0  0  0  0
   23.0271   16.2632   32.4103 C   0  0  0  0  0  0
   21.9028   15.4989   32.4809 N   0  0  0  0  0  0
   20.7484   16.0691   32.8996 C   0  0  0  0  0  0
   20.6846   17.4285   33.2544 C   0  0  0  0  0  0
   21.8235   18.1768   33.2299 N   0  0  0  0  0  0
   19.6590   15.2120   32.9920 N   0  0  0  0  0  0
   24.2263   15.6338   32.0280 N   0  0  0  0  0  0
   19.3966   18.1171   33.6763 C   0  0  0  0  0  0
   19.5226   19.4783   33.9378 N   0  0  0  0  0  0
   18.3442   17.4777   33.8200 O   0  0  0  0  0  0
   18.5400   20.2865   33.9827 C   0  0  0  0  0  0
   18.7240   21.6549   34.2200 N   0  0  0  0  0  0
   17.1711   20.0122   33.8200 N   0  0  0  0  0  0
   25.1534   15.4035   33.1424 C   0  0  0  0  0  0
   25.1434   14.0209   33.8190 C   0  0  0  0  0  0
   24.1718   14.6726   30.9143 C   0  0  0  0  0  0
   25.9715   12.9484   33.0913 C   0  0  0  0  0  0
   25.3542   13.7081   30.6830 C   0  0  0  0  0  0
   25.4661   12.5515   31.6954 C   0  0  0  0  0  0
   24.1627   18.5182   32.8325 C   0  0  0  0  0  0
   24.8842   18.8266   31.6674 C   0  0  0  0  0  0
   25.9635   19.6636   31.6851 N   0  0  0  0  0  0
   26.2927   20.2083   32.8881 C   0  0  0  0  0  0
   25.6320   20.0120   34.0538 N   0  0  0  0  0  0
   24.5776   19.1596   34.0069 C   0  0  0  0  0  0
   24.4458   18.3274   30.4529 O   0  0  0  0  0  0
   24.9703   18.8690   29.2442 C   0  0  0  0  0  0
   27.3891   21.0426   32.9950 O   0  0  0  0  0  0
   28.2739   21.1725   31.8828 C   0  0  0  0  0  0
   18.8135   15.5985   33.3999 H   0  0  0  0  0  0
   19.8348   14.2166   32.9756 H   0  0  0  0  0  0
   19.6245   21.8951   34.6185 H   0  0  0  0  0  0
   17.9934   22.0729   34.7905 H   0  0  0  0  0  0
   16.8804   19.0907   33.5497 H   0  0  0  0  0  0
   16.4856   20.4848   34.4078 H   0  0  0  0  0  0
   26.1431   15.5932   32.7248 H   0  0  0  0  0  0
   25.0791   16.1908   33.8938 H   0  0  0  0  0  0
   25.5240   14.1291   34.8340 H   0  0  0  0  0  0
   24.1156   13.6620   33.8936 H   0  0  0  0  0  0
   23.3653   13.9862   31.1709 H   0  0  0  0  0  0
   23.8534   15.1651   29.9938 H   0  0  0  0  0  0
   27.0057   13.2879   33.0142 H   0  0  0  0  0  0
   26.0064   12.0526   33.7129 H   0  0  0  0  0  0
   25.2662   13.2913   29.6801 H   0  0  0  0  0  0
   26.2885   14.2714   30.6857 H   0  0  0  0  0  0
   24.5032   12.0469   31.7871 H   0  0  0  0  0  0
   26.1475   11.8019   31.2898 H   0  0  0  0  0  0
   24.0521   18.9982   34.9376 H   0  0  0  0  0  0
   24.4569   18.4120   28.3999 H   0  0  0  0  0  0
   24.7983   19.9450   29.1859 H   0  0  0  0  0  0
   26.0385   18.6726   29.1410 H   0  0  0  0  0  0
   29.1040   21.8250   32.1528 H   0  0  0  0  0  0
   28.6922   20.2074   31.5917 H   0  0  0  0  0  0
   27.7764   21.6118   31.0202 H   0  0  0  0  0  0
  1  2  2  0  0  0
  1  6  1  0  0  0
  1 21  1  0  0  0
  2  3  1  0  0  0
  2  8  1  0  0  0
  3  4  2  0  0  0
  4  5  1  0  0  0
  4  7  1  0  0  0
  5  6  2  0  0  0
  5  9  1  0  0  0
  7 31  1  0  0  0
  7 32  1  0  0  0
  8 15  1  0  0  0
  8 17  1  0  0  0
  9 10  1  0  0  0
  9 11  2  0  0  0
 10 12  2  0  0  0
 12 14  1  0  0  0
 12 13  1  0  0  0
 13 34  1  0  0  0
 13 33  1  0  0  0
 14 36  1  0  0  0
 14 35  1  0  0  0
 15 16  1  0  0  0
 15 37  1  0  0  0
 15 38  1  0  0  0
 16 18  1  0  0  0
 16 39  1  0  0  0
 16 40  1  0  0  0
 17 19  1  0  0  0
 17 41  1  0  0  0
 17 42  1  0  0  0
 18 20  1  0  0  0
 18 43  1  0  0  0
 18 44  1  0  0  0
 19 20  1  0  0  0
 19 45  1  0  0  0
 19 46  1  0  0  0
 20 47  1  0  0  0
 20 48  1  0  0  0
 21 22  2  0  0  0
 21 26  1  0  0  0
 22 23  1  0  0  0
 22 27  1  0  0  0
 23 24  2  0  0  0
 24 25  1  0  0  0
 24 29  1  0  0  0
 25 26  2  0  0  0
 26 49  1  0  0  0
 27 28  1  0  0  0
 28 50  1  0  0  0
 28 51  1  0  0  0
 28 52  1  0  0  0
 29 30  1  0  0  0
 30 53  1  0  0  0
 30 54  1  0  0  0
 30 55  1  0  0  0
M  END
> <s_m_entry_id>
42050

> <s_m_entry_name>
dock_pv.15

> <s_m_Source_Path>
/home/csk/Desktop/cluster/DUD-E-result/urok

> <s_m_Source_File>
dock_pv.maegz

> <i_m_Source_File_Index>
15

> <chembl_id>
CHEMBL4206764

> <chembl_pref_name>
None

> <i_lp_mmshare_version>
53161

> <r_lp_tautomer_probability>
0.499994999999877

> <s_lp_Force_Field>
OPLS_2005

> <r_lp_Energy>
45.533522

> <b_lp_Chiralities_Consistent>
1

> <s_lp_Variant>
CHEMBL3286_lig901-1

> <s_i_glide_gridfile>
glide-grid_1sqt

> <i_i_glide_lignum>
1209

> <i_i_glide_rotatable_bonds>
6

> <r_i_docking_score>
-7.39876863643556

> <r_i_glide_ligand_efficiency>
-0.246625621214519

> <r_i_glide_ligand_efficiency_sa>
-0.76632314617001

> <r_i_glide_ligand_efficiency_ln>
-1.68108085023929

> <r_i_glide_gscore>
-7.39876863643556

> <r_i_glide_lipo>
-1.28829530175588

> <r_i_glide_hbond>
-1.68326315878892

> <r_i_glide_metal>
0

> <r_i_glide_rewards>
-1.09414647979711

> <r_i_glide_evdw>
-38.2321586608887

> <r_i_glide_ecoul>
-11.2854499816895

> <r_i_glide_erotb>
0.457637414790633

> <r_i_glide_esite>
-0.186275680586425

> <r_i_glide_emodel>
-68.5495121634413

> <r_i_glide_energy>
-49.5176086425781

> <r_i_glide_einternal>
7.54265308380127

> <i_i_glide_confnum>
3

> <i_i_glide_posenum>
192

> <r_i_glide_eff_state_penalty>
0

> <s_user_duplicate_titles>
CHEMBL3286_lig901

> <i_f3d_flags>
1

> <s_m_subgroup_title>
dock_pv

> <s_m_subgroupid>
dock_pv

> <b_m_subgroup_collapsed>
1

$$$$
CHEMBL3286_lig683
                    3D
 Schrodinger Suite 2021-1.
 68 70  0  0  1  0            999 V2000
   27.1652   16.2296   32.4956 C   0  0  0  0  0  0
   27.1332   15.2015   34.0830 S   0  0  0  0  0  0
   28.1760   16.0832   35.2130 N   0  0  2  0  0  0
   27.6171   17.1085   36.1394 C   0  0  2  0  0  0
   26.9080   18.2103   35.3292 C   0  0  0  0  0  0
   25.5864   18.2741   35.4981 N   0  0  0  0  0  0
   27.5378   18.9725   34.5924 O   0  0  0  0  0  0
   28.6904   17.6487   37.1299 C   0  0  0  0  0  0
   28.3537   18.9752   37.8782 C   0  0  0  0  0  0
   26.9306   19.0742   38.4580 C   0  0  0  0  0  0
   26.2239   20.2399   38.3729 N   0  3  0  0  0  0
   24.9624   20.3618   38.8358 C   0  0  0  0  0  0
   24.3240   19.2705   39.4202 C   0  0  0  0  0  0
   25.0107   18.0657   39.5382 C   0  0  0  0  0  0
   26.3223   17.9693   39.0706 C   0  0  0  0  0  0
   24.7122   19.2118   34.8360 C   0  0  0  0  0  0
   23.2949   18.6820   35.0350 C   0  0  0  0  0  0
   22.3880   19.2132   34.2195 N   0  0  0  0  0  0
   23.0315   17.8391   35.8936 O   0  0  0  0  0  0
   26.7295   21.2596   37.8217 O   0  5  0  0  0  0
   20.9410   19.0441   34.2708 C   0  0  0  0  0  0
   20.3740   17.8796   33.4601 C   0  0  0  0  0  0
   21.1537   16.7235   33.2916 C   0  0  0  0  0  0
   20.7349   15.6866   32.4728 C   0  0  0  0  0  0
   19.5243   15.7925   31.8067 C   0  0  0  0  0  0
   18.7127   16.9066   31.9962 C   0  0  0  0  0  0
   19.1055   17.9553   32.8344 C   0  0  0  0  0  0
   18.1325   19.1447   32.9304 C   0  0  0  0  0  0
   25.7692   15.2125   34.6209 O   0  0  0  0  0  0
   27.8062   13.9307   33.7968 O   0  0  0  0  0  0
   18.0884   19.8104   34.2198 N   0  0  0  0  0  0
   26.0217   15.8692   31.5645 C   0  0  0  0  0  0
   24.8243   16.5888   31.6179 C   0  0  0  0  0  0
   23.7789   16.2631   30.7571 C   0  0  0  0  0  0
   23.9298   15.2125   29.8559 C   0  0  0  0  0  0
   25.1143   14.4779   29.8175 C   0  0  0  0  0  0
   26.1646   14.8072   30.6694 C   0  0  0  0  0  0
   28.1336   16.0714   32.0212 H   0  0  0  0  0  0
   27.1003   17.2815   32.7599 H   0  0  0  0  0  0
   29.1573   16.1853   34.9441 H   0  0  0  0  0  0
   26.8771   16.5830   36.7465 H   0  0  0  0  0  0
   25.1123   17.6024   36.0896 H   0  0  0  0  0  0
   28.9077   16.8712   37.8622 H   0  0  0  0  0  0
   29.6275   17.8013   36.5936 H   0  0  0  0  0  0
   29.0667   19.1356   38.6868 H   0  0  0  0  0  0
   28.5288   19.7950   37.1804 H   0  0  0  0  0  0
   24.4979   21.3291   38.7171 H   0  0  0  0  0  0
   23.3099   19.3616   39.7869 H   0  0  0  0  0  0
   24.5200   17.2153   39.9871 H   0  0  0  0  0  0
   26.8519   17.0324   39.1585 H   0  0  0  0  0  0
   24.8085   20.1962   35.2935 H   0  0  0  0  0  0
   24.9515   19.2921   33.7744 H   0  0  0  0  0  0
   22.7086   19.8674   33.5151 H   0  0  0  0  0  0
   20.5783   18.9828   35.3005 H   0  0  0  0  0  0
   20.5751   19.9746   33.8354 H   0  0  0  0  0  0
   22.1104   16.6181   33.7755 H   0  0  0  0  0  0
   21.3619   14.8158   32.3404 H   0  0  0  0  0  0
   19.2109   15.0140   31.1311 H   0  0  0  0  0  0
   17.7731   16.9605   31.4669 H   0  0  0  0  0  0
   18.3794   19.8811   32.1705 H   0  0  0  0  0  0
   17.1253   18.8125   32.6864 H   0  0  0  0  0  0
   17.4610   20.6098   34.2067 H   0  0  0  0  0  0
   17.7217   19.2185   34.9585 H   0  0  0  0  0  0
   24.7025   17.3999   32.3202 H   0  0  0  0  0  0
   22.8571   16.8232   30.7867 H   0  0  0  0  0  0
   23.1243   14.9667   29.1776 H   0  0  0  0  0  0
   25.2279   13.6710   29.1090 H   0  0  0  0  0  0
   27.0848   14.2408   30.6309 H   0  0  0  0  0  0
  1  2  1  0  0  0
  1 32  1  0  0  0
  1 38  1  0  0  0
  1 39  1  0  0  0
  2 29  2  0  0  0
  2 30  2  0  0  0
  2  3  1  0  0  0
  3  4  1  0  0  0
  3 40  1  0  0  0
  4  5  1  0  0  0
  4  8  1  0  0  0
  4 41  1  0  0  0
  5  6  1  0  0  0
  5  7  2  0  0  0
  6 16  1  0  0  0
  6 42  1  0  0  0
  8  9  1  0  0  0
  8 43  1  0  0  0
  8 44  1  0  0  0
  9 10  1  0  0  0
  9 45  1  0  0  0
  9 46  1  0  0  0
 10 15  1  0  0  0
 10 11  2  0  0  0
 11 20  1  0  0  0
 11 12  1  0  0  0
 12 13  2  0  0  0
 12 47  1  0  0  0
 13 14  1  0  0  0
 13 48  1  0  0  0
 14 15  2  0  0  0
 14 49  1  0  0  0
 15 50  1  0  0  0
 16 17  1  0  0  0
 16 51  1  0  0  0
 16 52  1  0  0  0
 17 18  1  0  0  0
 17 19  2  0  0  0
 18 21  1  0  0  0
 18 53  1  0  0  0
 21 22  1  0  0  0
 21 54  1  0  0  0
 21 55  1  0  0  0
 22 23  2  0  0  0
 22 27  1  0  0  0
 23 24  1  0  0  0
 23 56  1  0  0  0
 24 25  2  0  0  0
 24 57  1  0  0  0
 25 26  1  0  0  0
 25 58  1  0  0  0
 26 27  2  0  0  0
 26 59  1  0  0  0
 27 28  1  0  0  0
 28 31  1  0  0  0
 28 60  1  0  0  0
 28 61  1  0  0  0
 31 62  1  0  0  0
 31 63  1  0  0  0
 32 33  2  0  0  0
 32 37  1  0  0  0
 33 34  1  0  0  0
 33 64  1  0  0  0
 34 35  2  0  0  0
 34 65  1  0  0  0
 35 36  1  0  0  0
 35 66  1  0  0  0
 36 37  2  0  0  0
 36 67  1  0  0  0
 37 68  1  0  0  0
M  CHG  2  11   1  20  -1
M  END
> <s_m_entry_id>
42051

> <s_m_entry_name>
dock_pv.16

> <s_m_Source_Path>
/home/csk/Desktop/cluster/DUD-E-result/urok

> <s_m_Source_File>
dock_pv.maegz

> <i_m_Source_File_Index>
16

> <chembl_id>
CHEMBL231087

> <chembl_pref_name>
None

> <i_lp_mmshare_version>
53161

> <r_lp_tautomer_probability>
1

> <s_lp_Force_Field>
OPLS_2005

> <r_lp_Energy>
4.948757

> <b_lp_Chiralities_Consistent>
1

> <s_lp_Variant>
CHEMBL3286_lig683-1

> <s_i_glide_gridfile>
glide-grid_1sqt

> <i_i_glide_lignum>
922

> <i_i_glide_rotatable_bonds>
15

> <r_i_docking_score>
-7.38939363008066

> <r_i_glide_ligand_efficiency>
-0.199713341353531

> <r_i_glide_ligand_efficiency_sa>
-0.665489159322456

> <r_i_glide_ligand_efficiency_ln>
-1.60258624639949

> <r_i_glide_gscore>
-7.38939363008066

> <r_i_glide_lipo>
-2.84566076661749

> <r_i_glide_hbond>
-0.741566104676393

> <r_i_glide_metal>
0

> <r_i_glide_rewards>
-0.153225793715434

> <r_i_glide_evdw>
-45.8542861938477

> <r_i_glide_ecoul>
-15.0018682479858

> <r_i_glide_erotb>
0.894053581818908

> <r_i_glide_esite>
0

> <r_i_glide_emodel>
-79.4509558040523

> <r_i_glide_energy>
-60.8561544418335

> <r_i_glide_einternal>
12.0599985122681

> <i_i_glide_confnum>
2

> <i_i_glide_posenum>
147

> <r_i_glide_eff_state_penalty>
0

> <s_user_duplicate_titles>
CHEMBL3286_lig683

> <i_f3d_flags>
0

> <s_m_subgroup_title>
dock_pv

> <s_m_subgroupid>
dock_pv

> <b_m_subgroup_collapsed>
1

$$$$
CHEMBL3286_lig405
                    3D
 Schrodinger Suite 2021-1.
 37 38  0  0  1  0            999 V2000
   24.5431   12.7360   32.7228 C   0  0  0  0  0  0
   24.1153   14.0799   33.2586 C   0  0  0  0  0  0
   23.8777   11.5338   33.0391 C   0  0  0  0  0  0
   18.8536   19.7259   33.8332 C   0  0  0  0  0  0
   24.3681   10.3166   32.5491 C   0  0  0  0  0  0
   22.8085   14.3944   33.1093 N   0  0  0  0  0  0
   25.6874   12.6827   31.9120 C   0  0  0  0  0  0
   20.1292   19.2121   34.1719 N   0  0  0  0  0  0
   17.9244   19.1069   33.2678 N   0  0  0  0  0  0
   24.9677   14.8239   33.7449 O   0  0  0  0  0  0
   25.5034   10.2863   31.7429 C   0  0  0  0  0  0
   26.1674   11.4679   31.4200 C   0  0  0  0  0  0
   22.1646   15.6092   33.4202 C   0  0  0  0  0  0
   18.7239   21.0665   34.2200 N   0  0  0  0  0  0
   20.7569   17.9862   33.9091 C   0  0  0  0  0  0
   23.5240    8.6656   32.9849 Br  0  0  0  0  0  0
   22.7636   11.5059   33.8408 O   0  0  0  0  0  0
   20.9464   15.8499   32.7844 C   0  0  0  0  0  0
   22.6676   16.5597   34.3223 C   0  0  0  0  0  0
   20.2489   17.0286   33.0232 C   0  0  0  0  0  0
   21.9662   17.7380   34.5584 C   0  0  0  0  0  0
   27.3883   11.4313   30.5177 C   0  0  0  0  0  0
   22.2201   13.6957   32.6739 H   0  0  0  0  0  0
   26.2164   13.5936   31.6618 H   0  0  0  0  0  0
   20.7040   19.8590   34.6944 H   0  0  0  0  0  0
   17.1095   19.6944   33.1556 H   0  0  0  0  0  0
   25.8686    9.3403   31.3679 H   0  0  0  0  0  0
   17.7936   21.4372   34.3862 H   0  0  0  0  0  0
   19.3794   21.4260   34.9020 H   0  0  0  0  0  0
   22.4626   10.5987   33.9513 H   0  0  0  0  0  0
   20.5362   15.1418   32.0821 H   0  0  0  0  0  0
   23.5905   16.4076   34.8592 H   0  0  0  0  0  0
   19.3227   17.1895   32.4936 H   0  0  0  0  0  0
   22.3711   18.4628   35.2506 H   0  0  0  0  0  0
   27.2768   10.6664   29.7472 H   0  0  0  0  0  0
   28.2867   11.2075   31.0936 H   0  0  0  0  0  0
   27.5275   12.3789   29.9959 H   0  0  0  0  0  0
  1  2  1  0  0  0
  1  3  2  0  0  0
  1  7  1  0  0  0
  2  6  1  0  0  0
  2 10  2  0  0  0
  3  5  1  0  0  0
  3 17  1  0  0  0
  4  8  1  0  0  0
  4  9  2  0  0  0
  4 14  1  0  0  0
  5 16  1  0  0  0
  5 11  2  0  0  0
  6 13  1  0  0  0
  6 23  1  0  0  0
  7 12  2  0  0  0
  7 24  1  0  0  0
  8 15  1  0  0  0
  8 25  1  0  0  0
  9 26  1  0  0  0
 11 12  1  0  0  0
 11 27  1  0  0  0
 12 22  1  0  0  0
 13 18  2  0  0  0
 13 19  1  0  0  0
 14 28  1  0  0  0
 14 29  1  0  0  0
 15 21  1  0  0  0
 15 20  2  0  0  0
 17 30  1  0  0  0
 18 20  1  0  0  0
 18 31  1  0  0  0
 19 21  2  0  0  0
 19 32  1  0  0  0
 20 33  1  0  0  0
 21 34  1  0  0  0
 22 35  1  0  0  0
 22 36  1  0  0  0
 22 37  1  0  0  0
M  END
> <s_m_entry_id>
42052

> <s_m_entry_name>
dock_pv.17

> <s_m_Source_Path>
/home/csk/Desktop/cluster/DUD-E-result/urok

> <s_m_Source_File>
dock_pv.maegz

> <i_m_Source_File_Index>
17

> <chembl_id>
CHEMBL64578

> <chembl_pref_name>
None

> <i_lp_mmshare_version>
53161

> <r_lp_tautomer_probability>
0.999999999997365

> <s_lp_Force_Field>
OPLS_2005

> <r_lp_Energy>
13.844782

> <b_lp_Chiralities_Consistent>
1

> <s_lp_Variant>
CHEMBL3286_lig405-1

> <s_i_glide_gridfile>
glide-grid_1sqt

> <i_i_glide_lignum>
536

> <i_i_glide_rotatable_bonds>
6

> <r_i_docking_score>
-7.33945622308998

> <r_i_glide_ligand_efficiency>
-0.33361164650409

> <r_i_glide_ligand_efficiency_sa>
-0.934792953706

> <r_i_glide_ligand_efficiency_ln>
-1.79403081409362

> <r_i_glide_gscore>
-7.33945622308998

> <r_i_glide_lipo>
-2.04371570635711

> <r_i_glide_hbond>
-1.35779184630956

> <r_i_glide_metal>
0

> <r_i_glide_rewards>
-1.07865150174935

> <r_i_glide_evdw>
-37.0129165649414

> <r_i_glide_ecoul>
-11.0344705581665

> <r_i_glide_erotb>
0.728118509886665

> <r_i_glide_esite>
-0.0815992665885771

> <r_i_glide_emodel>
-65.6660671399803

> <r_i_glide_energy>
-48.0473871231079

> <r_i_glide_einternal>
7.02099514007568

> <i_i_glide_confnum>
98

> <i_i_glide_posenum>
394

> <r_i_glide_eff_state_penalty>
0

> <s_user_duplicate_titles>
CHEMBL3286_lig405

> <i_f3d_flags>
0

> <s_m_subgroup_title>
dock_pv

> <s_m_subgroupid>
dock_pv

> <b_m_subgroup_collapsed>
1

$$$$
CHEMBL3286_lig465
                    3D
 Schrodinger Suite 2021-1.
 25 26  0  0  1  0            999 V2000
   21.2443   18.4277   34.3639 C   0  0  0  0  0  0
   20.1390   18.1381   33.5209 C   0  0  0  0  0  0
   23.5952   18.0028   35.2226 C   0  0  0  0  0  0
   22.4159   17.6508   34.3749 C   0  0  0  0  0  0
   24.5623   17.2091   35.3579 N   0  0  0  0  0  0
   18.9672   18.9566   33.4678 C   0  0  0  0  0  0
   22.4448   16.5214   33.5432 C   0  0  0  0  0  0
   20.2140   16.9806   32.6883 C   0  0  0  0  0  0
   21.3753   16.1795   32.7216 C   0  0  0  0  0  0
   23.5284   19.2345   35.8215 N   0  0  0  0  0  0
   18.8145   20.1213   34.2212 N   0  0  0  0  0  0
   17.9949   17.4717   31.8202 C   0  0  0  0  0  0
   17.9240   18.6045   32.6195 C   0  0  0  0  0  0
   19.1243   16.6625   31.8431 C   0  0  0  0  0  0
   21.1594   19.2877   35.0093 H   0  0  0  0  0  0
   25.2801   17.5866   35.9562 H   0  0  0  0  0  0
   23.3205   15.8878   33.5184 H   0  0  0  0  0  0
   21.4340   15.3039   32.0930 H   0  0  0  0  0  0
   24.2550   19.5338   36.4501 H   0  0  0  0  0  0
   22.7294   19.8341   35.6748 H   0  0  0  0  0  0
   17.9109   20.5739   34.2773 H   0  0  0  0  0  0
   19.5762   20.4475   34.8033 H   0  0  0  0  0  0
   17.1707   17.2304   31.1646 H   0  0  0  0  0  0
   17.0319   19.2125   32.5753 H   0  0  0  0  0  0
   19.1792   15.7923   31.2067 H   0  0  0  0  0  0
  1  2  1  0  0  0
  1  4  2  0  0  0
  1 15  1  0  0  0
  2  6  2  0  0  0
  2  8  1  0  0  0
  3  4  1  0  0  0
  3  5  2  0  0  0
  3 10  1  0  0  0
  4  7  1  0  0  0
  5 16  1  0  0  0
  6 11  1  0  0  0
  6 13  1  0  0  0
  7  9  2  0  0  0
  7 17  1  0  0  0
  8 14  2  0  0  0
  8  9  1  0  0  0
  9 18  1  0  0  0
 10 19  1  0  0  0
 10 20  1  0  0  0
 11 21  1  0  0  0
 11 22  1  0  0  0
 12 14  1  0  0  0
 12 13  2  0  0  0
 12 23  1  0  0  0
 13 24  1  0  0  0
 14 25  1  0  0  0
M  END
> <s_m_entry_id>
42053

> <s_m_entry_name>
dock_pv.18

> <s_m_Source_Path>
/home/csk/Desktop/cluster/DUD-E-result/urok

> <s_m_Source_File>
dock_pv.maegz

> <i_m_Source_File_Index>
18

> <chembl_id>
CHEMBL319264

> <chembl_pref_name>
None

> <i_lp_mmshare_version>
53161

> <r_lp_tautomer_probability>
1

> <s_lp_Force_Field>
OPLS_2005

> <r_lp_Energy>
8.9788

> <b_lp_Chiralities_Consistent>
1

> <s_lp_Variant>
CHEMBL3286_lig465-1

> <s_i_glide_gridfile>
glide-grid_1sqt

> <i_i_glide_lignum>
614

> <i_i_glide_rotatable_bonds>
1

> <r_i_docking_score>
-7.32819871150741

> <r_i_glide_ligand_efficiency>
-0.523442765107672

> <r_i_glide_ligand_efficiency_sa>
-1.26157152995296

> <r_i_glide_ligand_efficiency_ln>
-2.01376291927838

> <r_i_glide_gscore>
-7.32819871150741

> <r_i_glide_lipo>
-2.5664458735828

> <r_i_glide_hbond>
-0.32

> <r_i_glide_metal>
0

> <r_i_glide_rewards>
-2.3342415797993

> <r_i_glide_evdw>
-28.3320579528809

> <r_i_glide_ecoul>
-4.60605573654175

> <r_i_glide_erotb>
0

> <r_i_glide_esite>
0

> <r_i_glide_emodel>
-47.6245764596499

> <r_i_glide_energy>
-32.9381136894226

> <r_i_glide_einternal>
0.0592645108699799

> <i_i_glide_confnum>
1

> <i_i_glide_posenum>
137

> <r_i_glide_eff_state_penalty>
0

> <s_user_duplicate_titles>
CHEMBL3286_lig465,170378

> <i_f3d_flags>
0

> <s_m_subgroup_title>
dock_pv

> <s_m_subgroupid>
dock_pv

> <b_m_subgroup_collapsed>
1

$$$$
CHEMBL3286_lig776
                    3D
 Schrodinger Suite 2021-1.
 39 41  0  0  1  0            999 V2000
   22.7483   15.4044   31.6087 C   0  0  0  0  0  0
   23.1260   15.2532   30.2846 C   0  0  0  0  0  0
   23.9357   16.1897   29.6586 C   0  0  0  0  0  0
   23.1413   16.5204   32.3464 C   0  0  0  0  0  0
   24.0636   17.4336   31.7809 C   0  0  0  0  0  0
   24.4229   17.2649   30.4121 C   0  0  0  0  0  0
   25.4979   18.5410   29.8615 S   0  0  0  0  0  0
   25.5587   19.2326   31.4752 C   0  0  0  0  0  0
   24.7541   18.5322   32.3613 C   0  0  0  0  0  0
   26.3858   20.4017   31.7917 C   0  0  0  0  0  0
   27.5997   20.4118   31.1529 N   0  0  0  0  0  0
   25.9243   21.2262   32.6201 N   0  0  0  0  0  0
   22.6740   16.6877   33.6337 O   0  0  0  0  0  0
   21.9610   17.9036   33.9453 C   0  0  2  0  0  0
   22.0863   18.1283   35.4616 C   0  0  0  0  0  0
   20.5050   17.8966   33.4546 C   0  0  0  0  0  0
   19.7365   19.0624   33.5750 C   0  0  0  0  0  0
   18.4596   19.1248   33.0218 C   0  0  0  0  0  0
   17.9607   18.0320   32.3170 C   0  0  0  0  0  0
   18.7028   16.8587   32.2269 C   0  0  0  0  0  0
   19.9514   16.7787   32.8251 C   0  0  0  0  0  0
   23.4262   18.5667   35.8274 N   0  0  0  0  0  0
   22.1078   14.6616   32.0611 H   0  0  0  0  0  0
   22.7622   14.4153   29.7122 H   0  0  0  0  0  0
   24.1977   16.0591   28.6210 H   0  0  0  0  0  0
   24.6602   18.7817   33.4063 H   0  0  0  0  0  0
   28.2346   21.1842   31.2815 H   0  0  0  0  0  0
   27.8111   19.7194   30.4501 H   0  0  0  0  0  0
   24.9818   20.9376   32.8541 H   0  0  0  0  0  0
   22.4032   18.7600   33.4365 H   0  0  0  0  0  0
   21.3845   18.8948   35.7925 H   0  0  0  0  0  0
   21.8373   17.2121   35.9977 H   0  0  0  0  0  0
   20.1355   19.9372   34.0719 H   0  0  0  0  0  0
   17.8744   20.0291   33.1139 H   0  0  0  0  0  0
   16.9882   18.0928   31.8488 H   0  0  0  0  0  0
   18.3240   16.0121   31.6835 H   0  0  0  0  0  0
   20.4879   15.8489   32.7650 H   0  0  0  0  0  0
   23.5715   19.5003   35.4737 H   0  0  0  0  0  0
   23.4827   18.6446   36.8332 H   0  0  0  0  0  0
  1  2  2  0  0  0
  1  4  1  0  0  0
  1 23  1  0  0  0
  2  3  1  0  0  0
  2 24  1  0  0  0
  3  6  2  0  0  0
  3 25  1  0  0  0
  4 13  1  0  0  0
  4  5  2  0  0  0
  5  6  1  0  0  0
  5  9  1  0  0  0
  6  7  1  0  0  0
  7  8  1  0  0  0
  8  9  2  0  0  0
  8 10  1  0  0  0
  9 26  1  0  0  0
 10 11  1  0  0  0
 10 12  2  0  0  0
 11 27  1  0  0  0
 11 28  1  0  0  0
 12 29  1  0  0  0
 13 14  1  0  0  0
 14 15  1  0  0  0
 14 16  1  0  0  0
 14 30  1  0  0  0
 15 22  1  0  0  0
 15 31  1  0  0  0
 15 32  1  0  0  0
 16 17  2  0  0  0
 16 21  1  0  0  0
 17 18  1  0  0  0
 17 33  1  0  0  0
 18 19  2  0  0  0
 18 34  1  0  0  0
 19 20  1  0  0  0
 19 35  1  0  0  0
 20 21  2  0  0  0
 20 36  1  0  0  0
 21 37  1  0  0  0
 22 38  1  0  0  0
 22 39  1  0  0  0
M  END
> <s_m_entry_id>
42054

> <s_m_entry_name>
dock_pv.19

> <s_m_Source_Path>
/home/csk/Desktop/cluster/DUD-E-result/urok

> <s_m_Source_File>
dock_pv.maegz

> <i_m_Source_File_Index>
19

> <chembl_id>
CHEMBL610516

> <chembl_pref_name>
None

> <i_lp_mmshare_version>
53161

> <r_lp_tautomer_probability>
1

> <s_lp_Force_Field>
OPLS_2005

> <r_lp_Energy>
21.660543

> <b_lp_Chiralities_Consistent>
1

> <s_lp_Variant>
CHEMBL3286_lig776-1

> <s_i_glide_gridfile>
glide-grid_1sqt

> <i_i_glide_lignum>
1042

> <i_i_glide_rotatable_bonds>
5

> <r_i_docking_score>
-7.3001270487697

> <r_i_glide_ligand_efficiency>
-0.331823956762259

> <r_i_glide_ligand_efficiency_sa>
-0.929783776743543

> <r_i_glide_ligand_efficiency_ln>
-1.78441732932326

> <r_i_glide_gscore>
-7.3001270487697

> <r_i_glide_lipo>
-3.36306704647715

> <r_i_glide_hbond>
-0.203429029044351

> <r_i_glide_metal>
0

> <r_i_glide_rewards>
-1.28589286363636

> <r_i_glide_evdw>
-35.5112838745117

> <r_i_glide_ecoul>
-8.30594730377197

> <r_i_glide_erotb>
0.573718179679546

> <r_i_glide_esite>
0

> <r_i_glide_emodel>
-57.6834877287728

> <r_i_glide_energy>
-43.8172311782837

> <r_i_glide_einternal>
10.986536026001

> <i_i_glide_confnum>
8

> <i_i_glide_posenum>
353

> <r_i_glide_eff_state_penalty>
0

> <s_user_duplicate_titles>
CHEMBL3286_lig776,604121

> <i_f3d_flags>
0

> <s_m_subgroup_title>
dock_pv

> <s_m_subgroupid>
dock_pv

> <b_m_subgroup_collapsed>
1

$$$$
CHEMBL3286_lig748
                    3D
 Schrodinger Suite 2021-1.
 28 29  0  0  1  0            999 V2000
   19.6400   17.7816   33.4495 C   0  0  0  0  0  0
   18.9413   16.6347   33.0439 C   0  0  0  0  0  0
   19.5222   15.3801   33.0275 C   0  0  0  0  0  0
   20.8342   15.2123   33.4200 C   0  0  0  0  0  0
   21.6053   16.3167   33.8236 C   0  0  0  0  0  0
   22.9418   16.1047   34.2198 C   0  0  0  0  0  0
   23.7279   17.1637   34.6309 C   0  0  0  0  0  0
   23.2396   18.4690   34.6281 C   0  0  0  0  0  0
   21.9174   18.7064   34.2135 C   0  0  0  0  0  0
   21.0363   17.6357   33.8374 C   0  0  0  0  0  0
   18.8457   19.0769   33.4326 C   0  0  0  0  0  0
   17.9271   19.2119   32.6200 O   0  0  0  0  0  0
   19.1242   20.0024   34.3652 N   0  0  0  0  0  0
   18.5647   21.2815   34.2197 O   0  0  0  0  0  0
   24.1447   19.5443   35.0420 C   0  0  0  0  0  0
   24.5127   19.4316   36.3586 N   0  0  0  0  0  0
   24.5309   20.4134   34.2213 N   0  0  0  0  0  0
   17.9046   16.7002   32.7418 H   0  0  0  0  0  0
   18.9419   14.5193   32.7355 H   0  0  0  0  0  0
   21.2737   14.2252   33.4198 H   0  0  0  0  0  0
   23.3524   15.1051   34.2078 H   0  0  0  0  0  0
   24.7469   16.9598   34.9324 H   0  0  0  0  0  0
   21.5714   19.7272   34.1794 H   0  0  0  0  0  0
   19.8487   19.9803   35.0707 H   0  0  0  0  0  0
   17.8274   21.3134   34.8526 H   0  0  0  0  0  0
   25.1674   20.0825   36.7580 H   0  0  0  0  0  0
   24.0707   18.7450   36.9504 H   0  0  0  0  0  0
   24.0847   20.3066   33.3136 H   0  0  0  0  0  0
  1  2  1  0  0  0
  1 10  2  0  0  0
  1 11  1  0  0  0
  2  3  2  0  0  0
  2 18  1  0  0  0
  3  4  1  0  0  0
  3 19  1  0  0  0
  4  5  2  0  0  0
  4 20  1  0  0  0
  5  6  1  0  0  0
  5 10  1  0  0  0
  6  7  2  0  0  0
  6 21  1  0  0  0
  7  8  1  0  0  0
  7 22  1  0  0  0
  8  9  2  0  0  0
  8 15  1  0  0  0
  9 10  1  0  0  0
  9 23  1  0  0  0
 11 12  2  0  0  0
 11 13  1  0  0  0
 13 14  1  0  0  0
 13 24  1  0  0  0
 14 25  1  0  0  0
 15 16  1  0  0  0
 15 17  2  0  0  0
 16 26  1  0  0  0
 16 27  1  0  0  0
 17 28  1  0  0  0
M  END
> <s_m_entry_id>
42055

> <s_m_entry_name>
dock_pv.20

> <s_m_Source_Path>
/home/csk/Desktop/cluster/DUD-E-result/urok

> <s_m_Source_File>
dock_pv.maegz

> <i_m_Source_File_Index>
20

> <chembl_id>
CHEMBL559504

> <chembl_pref_name>
None

> <i_lp_mmshare_version>
53161

> <r_lp_tautomer_probability>
1

> <s_lp_Force_Field>
OPLS_2005

> <r_lp_Energy>
22.723124

> <b_lp_Chiralities_Consistent>
1

> <s_lp_Variant>
CHEMBL3286_lig748-1

> <s_i_glide_gridfile>
glide-grid_1sqt

> <i_i_glide_lignum>
999

> <i_i_glide_rotatable_bonds>
4

> <r_i_docking_score>
-7.2917753424978

> <r_i_glide_ligand_efficiency>
-0.4289279613234

> <r_i_glide_ligand_efficiency_sa>
-1.10289456962785

> <r_i_glide_ligand_efficiency_ln>
-1.90226180700441

> <r_i_glide_gscore>
-7.2917753424978

> <r_i_glide_lipo>
-2.24363637551279

> <r_i_glide_hbond>
-0.580906779078063

> <r_i_glide_metal>
0

> <r_i_glide_rewards>
-2.26268472590845

> <r_i_glide_evdw>
-31.0160484313965

> <r_i_glide_ecoul>
-8.55148887634277

> <r_i_glide_erotb>
0.649247539136882

> <r_i_glide_esite>
-0.020269248114136

> <r_i_glide_emodel>
-51.8840564115271

> <r_i_glide_energy>
-39.5675373077393

> <r_i_glide_einternal>
7.62126159667969

> <i_i_glide_confnum>
3

> <i_i_glide_posenum>
164

> <r_i_glide_eff_state_penalty>
0

> <s_user_duplicate_titles>
CHEMBL3286_lig748

> <i_f3d_flags>
0

> <s_m_subgroup_title>
dock_pv

> <s_m_subgroupid>
dock_pv

> <b_m_subgroup_collapsed>
1

$$$$
CHEMBL3286_lig776
                    3D
 Schrodinger Suite 2021-1.
 39 41  0  0  1  0            999 V2000
   23.0237   15.4233   30.8298 C   0  0  0  0  0  0
   24.0426   14.9537   30.0093 C   0  0  0  0  0  0
   25.2112   15.6801   29.8200 C   0  0  0  0  0  0
   23.1388   16.6486   31.5020 C   0  0  0  0  0  0
   24.3175   17.4110   31.3339 C   0  0  0  0  0  0
   25.3389   16.9101   30.4771 C   0  0  0  0  0  0
   26.6958   18.0160   30.3691 S   0  0  0  0  0  0
   25.9279   19.1488   31.4839 C   0  0  0  0  0  0
   24.6855   18.6681   31.8943 C   0  0  0  0  0  0
   26.5786   20.4120   31.9002 C   0  0  0  0  0  0
   27.8694   20.5696   31.4590 N   0  0  0  0  0  0
   25.9240   21.2120   32.6200 N   0  0  0  0  0  0
   22.1797   17.2052   32.3338 O   0  0  0  0  0  0
   20.8612   16.6448   32.4004 C   0  0  1  0  0  0
   20.8019   15.4598   33.3915 C   0  0  0  0  0  0
   19.8825   17.7385   32.8278 C   0  0  0  0  0  0
   18.6267   17.8121   32.2200 C   0  0  0  0  0  0
   17.7337   18.8120   32.5852 C   0  0  0  0  0  0
   18.0609   19.6979   33.6015 C   0  0  0  0  0  0
   19.2956   19.6120   34.2280 C   0  0  0  0  0  0
   20.2176   18.6463   33.8369 C   0  0  0  0  0  0
   19.4677   14.8744   33.4200 N   0  0  0  0  0  0
   22.1354   14.8182   30.9256 H   0  0  0  0  0  0
   23.9240   14.0129   29.4934 H   0  0  0  0  0  0
   25.9882   15.3091   29.1651 H   0  0  0  0  0  0
   24.0232   19.1889   32.5712 H   0  0  0  0  0  0
   28.3751   21.4163   31.6647 H   0  0  0  0  0  0
   28.2621   19.9119   30.8017 H   0  0  0  0  0  0
   24.9836   20.8565   32.7475 H   0  0  0  0  0  0
   20.5586   16.3145   31.4048 H   0  0  0  0  0  0
   21.5295   14.6899   33.1357 H   0  0  0  0  0  0
   21.0637   15.8080   34.3916 H   0  0  0  0  0  0
   18.3500   17.1177   31.4395 H   0  0  0  0  0  0
   16.7691   18.8729   32.1022 H   0  0  0  0  0  0
   17.3511   20.4532   33.9133 H   0  0  0  0  0  0
   19.5240   20.3037   35.0200 H   0  0  0  0  0  0
   21.1798   18.5984   34.3260 H   0  0  0  0  0  0
   19.3393   14.4120   34.3183 H   0  0  0  0  0  0
   18.7916   15.6269   33.4352 H   0  0  0  0  0  0
  1  2  2  0  0  0
  1  4  1  0  0  0
  1 23  1  0  0  0
  2  3  1  0  0  0
  2 24  1  0  0  0
  3  6  2  0  0  0
  3 25  1  0  0  0
  4 13  1  0  0  0
  4  5  2  0  0  0
  5  6  1  0  0  0
  5  9  1  0  0  0
  6  7  1  0  0  0
  7  8  1  0  0  0
  8  9  2  0  0  0
  8 10  1  0  0  0
  9 26  1  0  0  0
 10 11  1  0  0  0
 10 12  2  0  0  0
 11 27  1  0  0  0
 11 28  1  0  0  0
 12 29  1  0  0  0
 13 14  1  0  0  0
 14 15  1  0  0  0
 14 16  1  0  0  0
 14 30  1  0  0  0
 15 22  1  0  0  0
 15 31  1  0  0  0
 15 32  1  0  0  0
 16 17  2  0  0  0
 16 21  1  0  0  0
 17 18  1  0  0  0
 17 33  1  0  0  0
 18 19  2  0  0  0
 18 34  1  0  0  0
 19 20  1  0  0  0
 19 35  1  0  0  0
 20 21  2  0  0  0
 20 36  1  0  0  0
 21 37  1  0  0  0
 22 38  1  0  0  0
 22 39  1  0  0  0
M  END
> <s_m_entry_id>
42056

> <s_m_entry_name>
dock_pv.21

> <s_m_Source_Path>
/home/csk/Desktop/cluster/DUD-E-result/urok

> <s_m_Source_File>
dock_pv.maegz

> <i_m_Source_File_Index>
21

> <chembl_id>
CHEMBL610516

> <chembl_pref_name>
None

> <i_lp_mmshare_version>
53161

> <r_lp_tautomer_probability>
1

> <s_lp_Force_Field>
OPLS_2005

> <r_lp_Energy>
21.660605

> <b_lp_Chiralities_Consistent>
1

> <s_lp_Variant>
CHEMBL3286_lig776-2

> <s_i_glide_gridfile>
glide-grid_1sqt

> <i_i_glide_lignum>
1043

> <i_i_glide_rotatable_bonds>
5

> <r_i_docking_score>
-7.24332011136275

> <r_i_glide_ligand_efficiency>
-0.329241823243761

> <r_i_glide_ligand_efficiency_sa>
-0.922548537075163

> <r_i_glide_ligand_efficiency_ln>
-1.77053164173761

> <r_i_glide_gscore>
-7.24332011136275

> <r_i_glide_lipo>
-2.83686417694776

> <r_i_glide_hbond>
-0.544025236587939

> <r_i_glide_metal>
0

> <r_i_glide_rewards>
-1.28589286363636

> <r_i_glide_evdw>
-31.2968978881836

> <r_i_glide_ecoul>
-10.5694074630737

> <r_i_glide_erotb>
0.573718179679546

> <r_i_glide_esite>
0

> <r_i_glide_emodel>
-59.2829268890575

> <r_i_glide_energy>
-41.8663053512573

> <r_i_glide_einternal>
4.53702783584595

> <i_i_glide_confnum>
7

> <i_i_glide_posenum>
236

> <r_i_glide_eff_state_penalty>
0

> <s_user_duplicate_titles>
CHEMBL3286_lig776

> <i_f3d_flags>
0

> <s_m_subgroup_title>
dock_pv

> <s_m_subgroupid>
dock_pv

> <b_m_subgroup_collapsed>
1

$$$$
CHEMBL3286_lig467
                    3D
 Schrodinger Suite 2021-1.
 38 40  0  0  1  0            999 V2000
   21.9097   17.4074   34.1573 C   0  0  0  0  0  0
   23.1778   17.4451   34.8591 C   0  0  0  0  0  0
   20.8589   18.3776   34.2982 C   0  0  0  0  0  0
   18.5574   19.3213   33.7057 C   0  0  0  0  0  0
   19.6518   18.3073   33.5803 C   0  0  0  0  0  0
   21.6827   16.3386   33.2337 C   0  0  0  0  0  0
   17.5240   19.2120   33.0111 N   0  0  0  0  0  0
   24.1801   16.5035   34.5435 C   0  0  0  0  0  0
   19.4850   17.2182   32.7120 C   0  0  0  0  0  0
   23.4711   18.5277   35.9241 C   0  0  2  0  0  0
   23.9083   15.4729   33.6394 C   0  0  0  0  0  0
   20.4626   16.2547   32.5359 C   0  0  0  0  0  0
   22.6822   15.3737   33.0078 C   0  0  0  0  0  0
   25.1213   20.0118   36.7246 O   0  0  0  0  0  0
   18.7244   20.3286   34.6201 N   0  0  0  0  0  0
   25.4200   16.6425   35.1442 O   0  0  0  0  0  0
   24.4565   19.6284   35.5139 C   0  0  0  0  0  0
   24.5128   19.3957   37.8596 C   0  0  0  0  0  0
   23.9379   18.0986   37.3060 C   0  0  0  0  0  0
   26.4958   15.7812   34.7874 C   0  0  0  0  0  0
   20.9871   19.2125   34.9593 H   0  0  0  0  0  0
   16.8612   19.9424   33.2354 H   0  0  0  0  0  0
   18.5758   17.1084   32.1363 H   0  0  0  0  0  0
   22.5391   19.0315   36.1417 H   0  0  0  0  0  0
   24.6509   14.7287   33.3989 H   0  0  0  0  0  0
   20.2959   15.4430   31.8431 H   0  0  0  0  0  0
   22.4989   14.5691   32.3094 H   0  0  0  0  0  0
   17.9538   20.9504   34.8471 H   0  0  0  0  0  0
   19.6314   20.5419   35.0199 H   0  0  0  0  0  0
   25.1974   19.2457   34.8110 H   0  0  0  0  0  0
   23.9118   20.4678   35.0816 H   0  0  0  0  0  0
   23.7347   20.0495   38.2579 H   0  0  0  0  0  0
   25.2382   19.2320   38.6570 H   0  0  0  0  0  0
   23.1469   17.6392   37.8998 H   0  0  0  0  0  0
   24.7219   17.3453   37.2657 H   0  0  0  0  0  0
   27.3819   16.0611   35.3567 H   0  0  0  0  0  0
   26.2716   14.7402   35.0199 H   0  0  0  0  0  0
   26.7423   15.8678   33.7283 H   0  0  0  0  0  0
  1  2  2  0  0  0
  1  3  1  0  0  0
  1  6  1  0  0  0
  2  8  1  0  0  0
  2 10  1  0  0  0
  3  5  2  0  0  0
  3 21  1  0  0  0
  4  5  1  0  0  0
  4  7  2  0  0  0
  4 15  1  0  0  0
  5  9  1  0  0  0
  6 12  1  0  0  0
  6 13  2  0  0  0
  7 22  1  0  0  0
  8 16  1  0  0  0
  8 11  2  0  0  0
  9 12  2  0  0  0
  9 23  1  0  0  0
 10 17  1  0  0  0
 10 19  1  0  0  0
 10 24  1  0  0  0
 11 13  1  0  0  0
 11 25  1  0  0  0
 12 26  1  0  0  0
 13 27  1  0  0  0
 14 17  1  0  0  0
 14 18  1  0  0  0
 15 28  1  0  0  0
 15 29  1  0  0  0
 16 20  1  0  0  0
 17 30  1  0  0  0
 17 31  1  0  0  0
 18 19  1  0  0  0
 18 32  1  0  0  0
 18 33  1  0  0  0
 19 34  1  0  0  0
 19 35  1  0  0  0
 20 36  1  0  0  0
 20 37  1  0  0  0
 20 38  1  0  0  0
M  END
> <s_m_entry_id>
42057

> <s_m_entry_name>
dock_pv.22

> <s_m_Source_Path>
/home/csk/Desktop/cluster/DUD-E-result/urok

> <s_m_Source_File>
dock_pv.maegz

> <i_m_Source_File_Index>
22

> <chembl_id>
CHEMBL320817

> <chembl_pref_name>
None

> <i_lp_mmshare_version>
53161

> <r_lp_tautomer_probability>
1

> <s_lp_Force_Field>
OPLS_2005

> <r_lp_Energy>
31.092843

> <b_lp_Chiralities_Consistent>
1

> <s_lp_Variant>
CHEMBL3286_lig467-1

> <s_i_glide_gridfile>
glide-grid_1sqt

> <i_i_glide_lignum>
616

> <i_i_glide_rotatable_bonds>
3

> <r_i_docking_score>
-7.23666379889221

> <r_i_glide_ligand_efficiency>
-0.361833189944611

> <r_i_glide_ligand_efficiency_sa>
-0.982166384073613

> <r_i_glide_ligand_efficiency_ln>
-1.81109826771642

> <r_i_glide_gscore>
-7.23666379889221

> <r_i_glide_lipo>
-2.49950081020966

> <r_i_glide_hbond>
-0.549963404646119

> <r_i_glide_metal>
0

> <r_i_glide_rewards>
-1.76167110318042

> <r_i_glide_evdw>
-31.3716239929199

> <r_i_glide_ecoul>
-7.22473192214966

> <r_i_glide_erotb>
0.244733359860239

> <r_i_glide_esite>
-0.0179708527478

> <r_i_glide_emodel>
-54.6124462698263

> <r_i_glide_energy>
-38.5963559150696

> <r_i_glide_einternal>
1.51680207252502

> <i_i_glide_confnum>
2

> <i_i_glide_posenum>
89

> <r_i_glide_eff_state_penalty>
0

> <s_user_duplicate_titles>
CHEMBL3286_lig467,170534

> <i_f3d_flags>
0

> <s_m_subgroup_title>
dock_pv

> <s_m_subgroupid>
dock_pv

> <b_m_subgroup_collapsed>
1

$$$$
CHEMBL3286_lig744
                    3D
 Schrodinger Suite 2021-1.
 33 35  0  0  1  0            999 V2000
   24.0021   13.6050   33.1120 C   0  0  0  0  0  0
   24.2304   12.1576   32.7433 C   0  0  0  0  0  0
   25.4457   11.7795   32.1541 C   0  0  0  0  0  0
   25.6848   10.4488   31.8212 C   0  0  0  0  0  0
   24.7155    9.4873   32.0894 C   0  0  0  0  0  0
   23.5123    9.8437   32.6885 C   0  0  0  0  0  0
   23.2656   11.1747   33.0131 C   0  0  0  0  0  0
   24.9617   14.2980   33.4503 O   0  0  0  0  0  0
   22.7242   14.0464   33.0207 N   0  0  0  0  0  0
   20.4529   18.9913   34.2786 N   0  0  0  0  0  0
   19.2161   19.2903   33.8282 C   0  0  0  0  0  0
   18.4700   18.4373   33.0196 C   0  0  0  0  0  0
   19.0111   17.2003   32.6675 C   0  0  0  0  0  0
   20.3020   16.8465   33.1423 C   0  0  0  0  0  0
   20.9262   15.6119   32.8483 C   0  0  0  0  0  0
   22.2017   15.3161   33.3437 C   0  0  0  0  0  0
   22.8623   16.2554   34.1501 C   0  0  0  0  0  0
   22.2756   17.4784   34.4524 C   0  0  0  0  0  0
   20.9934   17.7917   33.9541 C   0  0  0  0  0  0
   18.7239   20.5261   34.2202 N   0  0  0  0  0  0
   26.2127   12.5156   31.9457 H   0  0  0  0  0  0
   26.6199   10.1636   31.3610 H   0  0  0  0  0  0
   24.9030    8.4537   31.8346 H   0  0  0  0  0  0
   22.7704    9.0869   32.9012 H   0  0  0  0  0  0
   22.3250   11.4256   33.4818 H   0  0  0  0  0  0
   22.0467   13.4056   32.6225 H   0  0  0  0  0  0
   17.4943   18.7326   32.6612 H   0  0  0  0  0  0
   18.4599   16.5145   32.0413 H   0  0  0  0  0  0
   20.3933   14.8998   32.2380 H   0  0  0  0  0  0
   23.8314   16.0551   34.5765 H   0  0  0  0  0  0
   22.7915   18.1932   35.0794 H   0  0  0  0  0  0
   17.7466   20.7657   34.1066 H   0  0  0  0  0  0
   19.3140   21.0702   34.8381 H   0  0  0  0  0  0
  1  2  1  0  0  0
  1  8  2  0  0  0
  1  9  1  0  0  0
  2  3  1  0  0  0
  2  7  2  0  0  0
  3  4  2  0  0  0
  3 21  1  0  0  0
  4  5  1  0  0  0
  4 22  1  0  0  0
  5  6  2  0  0  0
  5 23  1  0  0  0
  6  7  1  0  0  0
  6 24  1  0  0  0
  7 25  1  0  0  0
  9 16  1  0  0  0
  9 26  1  0  0  0
 10 11  2  0  0  0
 10 19  1  0  0  0
 11 12  1  0  0  0
 11 20  1  0  0  0
 12 13  2  0  0  0
 12 27  1  0  0  0
 13 14  1  0  0  0
 13 28  1  0  0  0
 14 15  2  0  0  0
 14 19  1  0  0  0
 15 16  1  0  0  0
 15 29  1  0  0  0
 16 17  2  0  0  0
 17 18  1  0  0  0
 17 30  1  0  0  0
 18 19  2  0  0  0
 18 31  1  0  0  0
 20 32  1  0  0  0
 20 33  1  0  0  0
M  END
> <s_m_entry_id>
42058

> <s_m_entry_name>
dock_pv.23

> <s_m_Source_Path>
/home/csk/Desktop/cluster/DUD-E-result/urok

> <s_m_Source_File>
dock_pv.maegz

> <i_m_Source_File_Index>
23

> <chembl_id>
CHEMBL551228

> <chembl_pref_name>
None

> <i_lp_mmshare_version>
53161

> <r_lp_tautomer_probability>
1

> <s_lp_Force_Field>
OPLS_2005

> <r_lp_Energy>
19.135511

> <b_lp_Chiralities_Consistent>
1

> <s_lp_Variant>
CHEMBL3286_lig744-1

> <s_i_glide_gridfile>
glide-grid_1sqt

> <i_i_glide_lignum>
994

> <i_i_glide_rotatable_bonds>
3

> <r_i_docking_score>
-7.23107656645885

> <r_i_glide_ligand_efficiency>
-0.361553828322942

> <r_i_glide_ligand_efficiency_sa>
-0.981408079967113

> <r_i_glide_ligand_efficiency_ln>
-1.8096999677176

> <r_i_glide_gscore>
-7.23107656645885

> <r_i_glide_lipo>
-3.02645750679923

> <r_i_glide_hbond>
-0.608

> <r_i_glide_metal>
0

> <r_i_glide_rewards>
-1.7873273294281

> <r_i_glide_evdw>
-35.2606506347656

> <r_i_glide_ecoul>
-5.22135734558105

> <r_i_glide_erotb>
0.768401809566295

> <r_i_glide_esite>
-0.0314574062223692

> <r_i_glide_emodel>
-55.8676212005556

> <r_i_glide_energy>
-40.4820079803467

> <r_i_glide_einternal>
4.32180118560791

> <i_i_glide_confnum>
12

> <i_i_glide_posenum>
308

> <r_i_glide_eff_state_penalty>
0

> <s_user_duplicate_titles>
CHEMBL3286_lig744

> <i_f3d_flags>
0

> <s_m_subgroup_title>
dock_pv

> <s_m_subgroupid>
dock_pv

> <b_m_subgroup_collapsed>
1

$$$$
CHEMBL3286_lig217
                    3D
 Schrodinger Suite 2021-1.
 47 49  0  0  1  0            999 V2000
   17.9240   18.3883   32.4841 C   0  0  0  0  0  0
   18.6322   19.1961   33.3724 C   0  0  0  0  0  0
   19.9261   18.8231   33.7505 C   0  0  0  0  0  0
   20.5200   17.6443   33.2647 C   0  0  0  0  0  0
   19.7662   16.8409   32.3931 C   0  0  0  0  0  0
   18.4848   17.2124   31.9984 C   0  0  0  0  0  0
   21.9093   17.2516   33.6597 C   0  0  0  0  0  0
   22.6927   16.4298   32.8316 C   0  0  0  0  0  0
   23.9780   16.0416   33.2038 C   0  0  0  0  0  0
   24.5136   16.4846   34.4085 C   0  0  0  0  0  0
   23.7722   17.3348   35.2335 C   0  0  0  0  0  0
   22.4753   17.6921   34.8669 C   0  0  0  0  0  0
   17.9547   20.4232   33.9648 C   0  0  0  0  0  0
   18.7240   21.6477   33.8201 N   0  0  0  0  0  0
   24.2790   17.8001   36.4280 O   0  0  0  0  0  0
   25.4667   18.5083   36.4957 C   0  0  0  0  0  0
   26.0459   18.7560   37.7444 C   0  0  0  0  0  0
   27.2491   19.4623   37.7998 C   0  0  0  0  0  0
   27.8497   19.8965   36.6155 C   0  0  0  0  0  0
   27.2265   19.6117   35.3949 C   0  0  0  0  0  0
   26.0470   18.9348   35.3359 N   0  0  0  0  0  0
   25.4590   18.3203   38.8839 F   0  0  0  0  0  0
   29.0144   20.5838   36.6569 F   0  0  0  0  0  0
   27.8250   20.0200   34.2111 O   0  0  0  0  0  0
   27.3357   19.5588   32.9372 C   0  0  1  0  0  0
   26.1122   20.3906   32.4973 C   0  0  0  0  0  0
   25.1240   19.6130   31.9793 O   0  0  0  0  0  0
   26.0356   21.6120   32.6200 O   0  0  0  0  0  0
   28.4945   19.7148   31.9369 C   0  0  0  0  0  0
   16.9247   18.6630   32.1769 H   0  0  0  0  0  0
   20.4633   19.4731   34.4246 H   0  0  0  0  0  0
   20.1633   15.9151   32.0070 H   0  0  0  0  0  0
   17.9258   16.5934   31.3133 H   0  0  0  0  0  0
   22.3177   16.0850   31.8795 H   0  0  0  0  0  0
   24.5596   15.4044   32.5540 H   0  0  0  0  0  0
   25.5112   16.1875   34.6960 H   0  0  0  0  0  0
   21.9160   18.3208   35.5431 H   0  0  0  0  0  0
   16.9757   20.5690   33.5082 H   0  0  0  0  0  0
   17.7698   20.2392   35.0202 H   0  0  0  0  0  0
   18.1286   22.3971   34.1567 H   0  0  0  0  0  0
   19.4904   21.6168   34.4832 H   0  0  0  0  0  0
   27.7146   19.6667   38.7530 H   0  0  0  0  0  0
   27.0819   18.4971   32.9837 H   0  0  0  0  0  0
   24.3398   20.1532   31.8202 H   0  0  0  0  0  0
   28.2155   19.3722   30.9386 H   0  0  0  0  0  0
   28.8195   20.7533   31.8527 H   0  0  0  0  0  0
   29.3586   19.1284   32.2512 H   0  0  0  0  0  0
  1  2  2  0  0  0
  1  6  1  0  0  0
  1 30  1  0  0  0
  2  3  1  0  0  0
  2 13  1  0  0  0
  3  4  2  0  0  0
  3 31  1  0  0  0
  4  5  1  0  0  0
  4  7  1  0  0  0
  5  6  2  0  0  0
  5 32  1  0  0  0
  6 33  1  0  0  0
  7  8  2  0  0  0
  7 12  1  0  0  0
  8  9  1  0  0  0
  8 34  1  0  0  0
  9 10  2  0  0  0
  9 35  1  0  0  0
 10 11  1  0  0  0
 10 36  1  0  0  0
 11 12  2  0  0  0
 11 15  1  0  0  0
 12 37  1  0  0  0
 13 14  1  0  0  0
 13 38  1  0  0  0
 13 39  1  0  0  0
 14 40  1  0  0  0
 14 41  1  0  0  0
 15 16  1  0  0  0
 16 17  2  0  0  0
 16 21  1  0  0  0
 17 18  1  0  0  0
 17 22  1  0  0  0
 18 19  2  0  0  0
 18 42  1  0  0  0
 19 20  1  0  0  0
 19 23  1  0  0  0
 20 21  2  0  0  0
 20 24  1  0  0  0
 24 25  1  0  0  0
 25 26  1  0  0  0
 25 29  1  0  0  0
 25 43  1  0  0  0
 26 27  1  0  0  0
 26 28  2  0  0  0
 27 44  1  0  0  0
 29 45  1  0  0  0
 29 46  1  0  0  0
 29 47  1  0  0  0
M  END
> <s_m_entry_id>
42059

> <s_m_entry_name>
dock_pv.24

> <s_m_Source_Path>
/home/csk/Desktop/cluster/DUD-E-result/urok

> <s_m_Source_File>
dock_pv.maegz

> <i_m_Source_File_Index>
24

> <chembl_id>
CHEMBL4277252

> <chembl_pref_name>
None

> <i_lp_mmshare_version>
53161

> <r_lp_tautomer_probability>
1

> <s_lp_Force_Field>
OPLS_2005

> <r_lp_Energy>
22.109575

> <b_lp_Chiralities_Consistent>
1

> <s_lp_Variant>
CHEMBL3286_lig217-1

> <s_i_glide_gridfile>
glide-grid_1sqt

> <i_i_glide_lignum>
305

> <i_i_glide_rotatable_bonds>
8

> <r_i_docking_score>
-7.2304597721517

> <r_i_glide_ligand_efficiency>
-0.249326199039714

> <r_i_glide_ligand_efficiency_sa>
-0.766009075534218

> <r_i_glide_ligand_efficiency_ln>
-1.65559193918267

> <r_i_glide_gscore>
-7.2304597721517

> <r_i_glide_lipo>
-2.76947152926581

> <r_i_glide_hbond>
-0.564080802088706

> <r_i_glide_metal>
0

> <r_i_glide_rewards>
-0.912689631480248

> <r_i_glide_evdw>
-33.7234725952148

> <r_i_glide_ecoul>
-13.0936470031738

> <r_i_glide_erotb>
0.733759856526719

> <r_i_glide_esite>
-0.067756985606843

> <r_i_glide_emodel>
-64.396145497632

> <r_i_glide_energy>
-46.8171195983887

> <r_i_glide_einternal>
5.10052728652954

> <i_i_glide_confnum>
1

> <i_i_glide_posenum>
202

> <r_i_glide_eff_state_penalty>
0

> <s_user_duplicate_titles>
CHEMBL3286_lig217

> <i_f3d_flags>
0

> <s_m_subgroup_title>
dock_pv

> <s_m_subgroupid>
dock_pv

> <b_m_subgroup_collapsed>
1

$$$$
CHEMBL3286_lig930 
                    3D
 Schrodinger Suite 2021-1.
 40 41  0  0  1  0            999 V2000
   21.7977   17.1388   33.6617 C   0  0  0  0  0  0
   22.6295   17.6995   34.6588 C   0  0  0  0  0  0
   23.8458   17.1791   34.9593 N   0  0  0  0  0  0
   24.2761   16.0977   34.2711 C   0  0  0  0  0  0
   23.4881   15.5368   33.2600 C   0  0  0  0  0  0
   22.2711   16.0650   32.9764 N   0  0  0  0  0  0
   25.5329   15.6085   34.6188 N   0  0  0  0  0  0
   22.3159   18.8118   35.4200 N   0  0  0  0  0  0
   23.9090   14.3587   32.4130 C   0  0  0  0  0  0
   23.5309   14.4117   31.0821 N   0  0  0  0  0  0
   24.5363   13.4054   32.8745 O   0  0  0  0  0  0
   24.0656   15.2542   30.2883 C   0  0  0  0  0  0
   23.5240   15.4885   29.0199 N   0  0  0  0  0  0
   25.1965   16.0811   30.4986 N   0  0  0  0  0  0
   20.4125   17.5868   33.2281 C   0  0  0  0  0  0
   19.9205   18.8810   33.4729 C   0  0  0  0  0  0
   18.6596   19.2722   33.0200 C   0  0  0  0  0  0
   17.9226   18.3950   32.2295 C   0  0  0  0  0  0
   18.3408   17.1351   31.9926 N   0  0  0  0  0  0
   19.5249   16.7426   32.5109 C   0  0  0  0  0  0
   19.7392   15.4067   32.3198 O   0  0  0  0  0  0
   19.2797   14.6396   33.4201 C   0  0  0  0  0  0
   16.7240   18.8119   31.6859 O   0  0  0  0  0  0
   15.9494   17.9330   30.8679 C   0  0  0  0  0  0
   25.8486   14.7479   34.1897 H   0  0  0  0  0  0
   26.0273   16.0295   35.3911 H   0  0  0  0  0  0
   21.4400   19.3021   35.3105 H   0  0  0  0  0  0
   22.9721   19.1031   36.1274 H   0  0  0  0  0  0
   22.6701   15.0109   28.7587 H   0  0  0  0  0  0
   24.1589   15.5526   28.2357 H   0  0  0  0  0  0
   25.5647   16.1441   31.4359 H   0  0  0  0  0  0
   25.1769   16.9939   30.0704 H   0  0  0  0  0  0
   20.5016   19.6315   33.9796 H   0  0  0  0  0  0
   18.2927   20.2702   33.2109 H   0  0  0  0  0  0
   19.1185   13.6121   33.1278 H   0  0  0  0  0  0
   20.0266   14.6441   34.2152 H   0  0  0  0  0  0
   18.3263   14.9924   33.8201 H   0  0  0  0  0  0
   15.2217   18.5122   30.3020 H   0  0  0  0  0  0
   16.5577   17.3865   30.1478 H   0  0  0  0  0  0
   15.3899   17.2144   31.4660 H   0  0  0  0  0  0
  1  2  2  0  0  0
  1  6  1  0  0  0
  1 15  1  0  0  0
  2  3  1  0  0  0
  2  8  1  0  0  0
  3  4  2  0  0  0
  4  5  1  0  0  0
  4  7  1  0  0  0
  5  6  2  0  0  0
  5  9  1  0  0  0
  7 25  1  0  0  0
  7 26  1  0  0  0
  8 27  1  0  0  0
  8 28  1  0  0  0
  9 10  1  0  0  0
  9 11  2  0  0  0
 10 12  2  0  0  0
 12 14  1  0  0  0
 12 13  1  0  0  0
 13 30  1  0  0  0
 13 29  1  0  0  0
 14 32  1  0  0  0
 14 31  1  0  0  0
 15 16  2  0  0  0
 15 20  1  0  0  0
 16 17  1  0  0  0
 16 33  1  0  0  0
 17 18  2  0  0  0
 17 34  1  0  0  0
 18 19  1  0  0  0
 18 23  1  0  0  0
 19 20  2  0  0  0
 20 21  1  0  0  0
 21 22  1  0  0  0
 22 35  1  0  0  0
 22 36  1  0  0  0
 22 37  1  0  0  0
 23 24  1  0  0  0
 24 38  1  0  0  0
 24 39  1  0  0  0
 24 40  1  0  0  0
M  END
> <s_m_entry_id>
42060

> <s_m_entry_name>
dock_pv.25

> <s_m_Source_Path>
/home/csk/Desktop/cluster/DUD-E-result/urok

> <s_m_Source_File>
dock_pv.maegz

> <i_m_Source_File_Index>
25

> <chembl_id>
CHEMBL4476829

> <chembl_pref_name>
None

> <i_lp_mmshare_version>
53161

> <r_lp_tautomer_probability>
0.499995

> <s_lp_Force_Field>
OPLS_2005

> <r_lp_Energy>
34.082849

> <b_lp_Chiralities_Consistent>
1

> <s_lp_Variant>
CHEMBL3286_lig930 -1

> <s_i_glide_gridfile>
glide-grid_1sqt

> <i_i_glide_lignum>
1238

> <i_i_glide_rotatable_bonds>
5

> <r_i_docking_score>
-7.18028708039511

> <r_i_glide_ligand_efficiency>
-0.299178628349796

> <r_i_glide_ligand_efficiency_sa>
-0.862980495451108

> <r_i_glide_ligand_efficiency_ln>
-1.71857218024334

> <r_i_glide_gscore>
-7.18028708039511

> <r_i_glide_lipo>
-2.66707655891246

> <r_i_glide_hbond>
-0.4853265032702

> <r_i_glide_metal>
0

> <r_i_glide_rewards>
-1.26289481514287

> <r_i_glide_evdw>
-37.5869407653809

> <r_i_glide_ecoul>
-8.98581409454346

> <r_i_glide_erotb>
0.51159971526536

> <r_i_glide_esite>
-0.0493697658843769

> <r_i_glide_emodel>
-60.9697208711539

> <r_i_glide_energy>
-46.5727548599243

> <r_i_glide_einternal>
11.698390007019

> <i_i_glide_confnum>
22

> <i_i_glide_posenum>
276

> <r_i_glide_eff_state_penalty>
0

> <s_user_duplicate_titles>
CHEMBL3286_lig930 

> <i_f3d_flags>
1

> <s_m_subgroup_title>
dock_pv

> <s_m_subgroupid>
dock_pv

> <b_m_subgroup_collapsed>
1

$$$$
CHEMBL3286_lig469
                    3D
 Schrodinger Suite 2021-1.
 37 39  0  0  1  0            999 V2000
   17.5241   19.2120   32.8363 N   0  0  0  0  0  0
   18.6298   19.3044   33.4200 C   0  0  0  0  0  0
   18.9612   20.3639   34.2200 N   0  0  0  0  0  0
   19.6568   18.2385   33.2649 C   0  0  0  0  0  0
   19.4533   17.2121   32.3251 C   0  0  0  0  0  0
   20.3711   16.1940   32.1293 C   0  0  0  0  0  0
   21.5529   16.1534   32.8897 C   0  0  0  0  0  0
   22.4897   15.1173   32.7158 C   0  0  0  0  0  0
   23.6419   15.0390   33.5039 C   0  0  0  0  0  0
   23.9043   16.0645   34.4186 C   0  0  0  0  0  0
   23.0032   17.1149   34.6034 C   0  0  0  0  0  0
   21.8017   17.1708   33.8531 C   0  0  0  0  0  0
   20.8424   18.2035   34.0236 C   0  0  0  0  0  0
   24.5861   13.8697   33.3552 C   0  0  0  0  0  0
   25.7902   13.9975   33.5793 O   0  0  0  0  0  0
   23.9848   12.7104   33.0034 N   0  0  0  0  0  0
   24.5587   11.4988   32.5866 C   0  0  0  0  0  0
   23.7297   10.3748   32.6239 C   0  0  0  0  0  0
   24.1967    9.1453   32.1673 C   0  0  0  0  0  0
   25.4908    9.0426   31.6631 C   0  0  0  0  0  0
   26.3251   10.1573   31.6188 C   0  0  0  0  0  0
   25.8626   11.3878   32.0800 C   0  0  0  0  0  0
   17.4251   18.3830   32.2725 H   0  0  0  0  0  0
   18.2340   21.0344   34.4400 H   0  0  0  0  0  0
   19.8592   20.4654   34.6747 H   0  0  0  0  0  0
   18.5716   17.1905   31.7007 H   0  0  0  0  0  0
   20.1825   15.4337   31.3853 H   0  0  0  0  0  0
   22.2828   14.3740   31.9607 H   0  0  0  0  0  0
   24.8035   16.0386   35.0192 H   0  0  0  0  0  0
   23.2113   17.8873   35.3300 H   0  0  0  0  0  0
   21.0519   18.9643   34.7626 H   0  0  0  0  0  0
   22.9761   12.7213   33.0193 H   0  0  0  0  0  0
   22.7220   10.4424   33.0062 H   0  0  0  0  0  0
   23.5543    8.2764   32.1997 H   0  0  0  0  0  0
   25.8506    8.0906   31.2996 H   0  0  0  0  0  0
   27.3249   10.0694   31.2185 H   0  0  0  0  0  0
   26.5178   12.2434   32.0128 H   0  0  0  0  0  0
  1  2  2  0  0  0
  1 23  1  0  0  0
  2  3  1  0  0  0
  2  4  1  0  0  0
  3 24  1  0  0  0
  3 25  1  0  0  0
  4  5  2  0  0  0
  4 13  1  0  0  0
  5  6  1  0  0  0
  5 26  1  0  0  0
  6  7  2  0  0  0
  6 27  1  0  0  0
  7  8  1  0  0  0
  7 12  1  0  0  0
  8  9  2  0  0  0
  8 28  1  0  0  0
  9 10  1  0  0  0
  9 14  1  0  0  0
 10 11  2  0  0  0
 10 29  1  0  0  0
 11 12  1  0  0  0
 11 30  1  0  0  0
 12 13  2  0  0  0
 13 31  1  0  0  0
 14 15  2  0  0  0
 14 16  1  0  0  0
 16 17  1  0  0  0
 16 32  1  0  0  0
 17 18  2  0  0  0
 17 22  1  0  0  0
 18 19  1  0  0  0
 18 33  1  0  0  0
 19 20  2  0  0  0
 19 34  1  0  0  0
 20 21  1  0  0  0
 20 35  1  0  0  0
 21 22  2  0  0  0
 21 36  1  0  0  0
 22 37  1  0  0  0
M  END
> <s_m_entry_id>
42061

> <s_m_entry_name>
dock_pv.26

> <s_m_Source_Path>
/home/csk/Desktop/cluster/DUD-E-result/urok

> <s_m_Source_File>
dock_pv.maegz

> <i_m_Source_File_Index>
26

> <chembl_id>
CHEMBL104937

> <chembl_pref_name>
None

> <i_lp_mmshare_version>
53161

> <r_lp_tautomer_probability>
1

> <s_lp_Force_Field>
OPLS_2005

> <r_lp_Energy>
18.033466

> <b_lp_Chiralities_Consistent>
1

> <s_lp_Variant>
CHEMBL3286_lig469-1

> <s_i_glide_gridfile>
glide-grid_1sqt

> <i_i_glide_lignum>
619

> <i_i_glide_rotatable_bonds>
4

> <r_i_docking_score>
-7.17080704887424

> <r_i_glide_ligand_efficiency>
-0.325945774948829

> <r_i_glide_ligand_efficiency_sa>
-0.913312880126539

> <r_i_glide_ligand_efficiency_ln>
-1.7528068042872

> <r_i_glide_gscore>
-7.17080704887424

> <r_i_glide_lipo>
-2.87283460775042

> <r_i_glide_hbond>
-0.408310189327826

> <r_i_glide_metal>
0

> <r_i_glide_rewards>
-1.86370002545318

> <r_i_glide_evdw>
-34.7812690734863

> <r_i_glide_ecoul>
-6.26258182525635

> <r_i_glide_erotb>
0.652488501119956

> <r_i_glide_esite>
0

> <r_i_glide_emodel>
-57.0496828694945

> <r_i_glide_energy>
-41.0438508987427

> <r_i_glide_einternal>
0.871128439903259

> <i_i_glide_confnum>
5

> <i_i_glide_posenum>
358

> <r_i_glide_eff_state_penalty>
0

> <s_user_duplicate_titles>
CHEMBL3286_lig469,170533

> <i_f3d_flags>
0

> <s_m_subgroup_title>
dock_pv

> <s_m_subgroupid>
dock_pv

> <b_m_subgroup_collapsed>
1

$$$$
CHEMBL3286_lig47
                    3D
 Schrodinger Suite 2021-1.
 23 24  0  0  1  0            999 V2000
   19.7034   18.4570   33.7120 C   0  0  0  0  0  0
   19.6988   17.0704   32.6200 S   0  0  0  0  0  0
   20.8627   18.4737   34.4824 C   0  0  0  0  0  0
   21.7939   17.4453   34.1714 C   0  0  0  0  0  0
   21.2975   16.5850   33.1515 C   0  0  0  0  0  0
   18.5667   19.4052   33.7460 C   0  0  0  0  0  0
   17.5639   19.2120   33.0200 N   0  0  0  0  0  0
   23.0722   17.1917   34.7170 C   0  0  0  0  0  0
   18.7240   20.4440   34.6200 N   0  0  0  0  0  0
   22.0448   15.5009   32.6760 C   0  0  0  0  0  0
   23.3024   15.2802   33.2256 C   0  0  0  0  0  0
   23.8063   16.1097   34.2200 C   0  0  0  0  0  0
   23.6854   18.0504   35.8134 C   0  0  0  0  0  0
   21.0659   19.2120   35.2420 H   0  0  0  0  0  0
   16.8616   19.9215   33.1799 H   0  0  0  0  0  0
   17.9485   21.0614   34.8406 H   0  0  0  0  0  0
   19.6321   20.6551   35.0200 H   0  0  0  0  0  0
   21.6598   14.8533   31.9015 H   0  0  0  0  0  0
   23.9010   14.4533   32.8719 H   0  0  0  0  0  0
   24.7894   15.8994   34.6172 H   0  0  0  0  0  0
   24.7283   17.7968   36.0090 H   0  0  0  0  0  0
   23.6468   19.1034   35.5313 H   0  0  0  0  0  0
   23.1240   17.9382   36.7412 H   0  0  0  0  0  0
  1  2  1  0  0  0
  1  3  2  0  0  0
  1  6  1  0  0  0
  2  5  1  0  0  0
  3  4  1  0  0  0
  3 14  1  0  0  0
  4  8  2  0  0  0
  4  5  1  0  0  0
  5 10  2  0  0  0
  6  7  2  0  0  0
  6  9  1  0  0  0
  7 15  1  0  0  0
  8 12  1  0  0  0
  8 13  1  0  0  0
  9 16  1  0  0  0
  9 17  1  0  0  0
 10 11  1  0  0  0
 10 18  1  0  0  0
 11 12  2  0  0  0
 11 19  1  0  0  0
 12 20  1  0  0  0
 13 21  1  0  0  0
 13 22  1  0  0  0
 13 23  1  0  0  0
M  END
> <s_m_entry_id>
42062

> <s_m_entry_name>
dock_pv.27

> <s_m_Source_Path>
/home/csk/Desktop/cluster/DUD-E-result/urok

> <s_m_Source_File>
dock_pv.maegz

> <i_m_Source_File_Index>
27

> <chembl_id>
CHEMBL124692

> <chembl_pref_name>
None

> <i_lp_mmshare_version>
53161

> <r_lp_tautomer_probability>
1

> <s_lp_Force_Field>
OPLS_2005

> <r_lp_Energy>
1.580572

> <b_lp_Chiralities_Consistent>
1

> <s_lp_Variant>
CHEMBL3286_lig47-1

> <s_i_glide_gridfile>
glide-grid_1sqt

> <i_i_glide_lignum>
79

> <i_i_glide_rotatable_bonds>
1

> <r_i_docking_score>
-7.16084150604922

> <r_i_glide_ligand_efficiency>
-0.550833962003786

> <r_i_glide_ligand_efficiency_sa>
-1.29519500092679

> <r_i_glide_ligand_efficiency_ln>
-2.00867972810368

> <r_i_glide_gscore>
-7.16084150604922

> <r_i_glide_lipo>
-2.01743987717065

> <r_i_glide_hbond>
-0.568333776137083

> <r_i_glide_metal>
0

> <r_i_glide_rewards>
-2.27840548308976

> <r_i_glide_evdw>
-24.8904895782471

> <r_i_glide_ecoul>
-6.85966396331787

> <r_i_glide_erotb>
0

> <r_i_glide_esite>
-0.0231882962417034

> <r_i_glide_emodel>
-45.8483287199815

> <r_i_glide_energy>
-31.7501535415649

> <r_i_glide_einternal>
0.0177705530077219

> <i_i_glide_confnum>
1

> <i_i_glide_posenum>
319

> <r_i_glide_eff_state_penalty>
0

> <s_user_duplicate_titles>
CHEMBL3286_lig47,208499

> <i_f3d_flags>
0

> <s_m_subgroup_title>
dock_pv

> <s_m_subgroupid>
dock_pv

> <b_m_subgroup_collapsed>
1

$$$$
CHEMBL3286_lig891
                    3D
 Schrodinger Suite 2021-1.
 54 57  0  0  1  0            999 V2000
   23.0377   17.4538   33.2798 C   0  0  0  0  0  0
   23.0878   16.0470   33.1677 C   0  0  0  0  0  0
   21.9239   15.3456   33.0728 N   0  0  0  0  0  0
   20.7453   16.0023   33.1541 C   0  0  0  0  0  0
   20.6912   17.3896   33.3764 C   0  0  0  0  0  0
   21.8519   18.1063   33.4021 N   0  0  0  0  0  0
   19.6134   15.2077   33.0185 N   0  0  0  0  0  0
   24.2854   15.2947   33.1702 N   0  0  0  0  0  0
   19.3904   18.1231   33.6636 C   0  0  0  0  0  0
   19.5217   19.4925   33.8770 N   0  0  0  0  0  0
   18.3250   17.5020   33.7943 O   0  0  0  0  0  0
   18.5373   20.2967   33.9560 C   0  0  0  0  0  0
   18.7246   21.6613   34.2201 N   0  0  0  0  0  0
   17.1658   20.0120   33.8195 N   0  0  0  0  0  0
   25.3028   15.6097   32.1573 C   0  0  0  0  0  0
   26.2876   14.5188   31.6872 C   0  0  0  0  0  0
   24.2693   13.9561   33.7716 C   0  0  0  0  0  0
   25.6610   13.2833   31.0199 C   0  0  0  0  0  0
   23.9252   12.7567   32.8707 C   0  0  0  0  0  0
   25.0909   12.2539   32.0073 C   0  0  0  0  0  0
   24.2292   18.3377   33.3380 C   0  0  0  0  0  0
   26.5655   19.7856   33.6124 C   0  0  0  0  0  0
   25.9146   19.4055   34.7336 N   0  0  0  0  0  0
   24.7775   18.6871   34.5773 C   0  0  0  0  0  0
   26.1200   19.5206   32.3002 C   0  0  0  0  0  0
   24.8950   18.7991   32.1559 C   0  0  0  0  0  0
   24.4148   18.5418   30.8405 C   0  0  0  0  0  0
   25.1454   18.9492   29.7287 C   0  0  0  0  0  0
   26.3600   19.6074   29.8860 C   0  0  0  0  0  0
   26.8452   19.9149   31.1524 C   0  0  0  0  0  0
   18.7244   15.6449   33.2401 H   0  0  0  0  0  0
   19.7323   14.2044   33.0328 H   0  0  0  0  0  0
   19.6312   21.8855   34.6148 H   0  0  0  0  0  0
   17.9954   22.0754   34.7954 H   0  0  0  0  0  0
   16.8906   19.0786   33.5756 H   0  0  0  0  0  0
   16.4852   20.4782   34.4174 H   0  0  0  0  0  0
   24.7750   15.8889   31.2449 H   0  0  0  0  0  0
   25.9163   16.4307   32.5236 H   0  0  0  0  0  0
   26.9497   14.9856   30.9559 H   0  0  0  0  0  0
   26.9508   14.2304   32.5039 H   0  0  0  0  0  0
   25.2367   13.8207   34.2574 H   0  0  0  0  0  0
   23.5833   13.9657   34.6192 H   0  0  0  0  0  0
   24.8906   13.5967   30.3134 H   0  0  0  0  0  0
   26.4257   12.7891   30.4190 H   0  0  0  0  0  0
   23.5682   11.9333   33.4904 H   0  0  0  0  0  0
   23.1058   13.0281   32.2061 H   0  0  0  0  0  0
   25.8923   11.8984   32.6573 H   0  0  0  0  0  0
   24.7598   11.3758   31.4524 H   0  0  0  0  0  0
   27.4990   20.3086   33.7583 H   0  0  0  0  0  0
   24.3024   18.3597   35.4912 H   0  0  0  0  0  0
   23.4866   18.0066   30.7032 H   0  0  0  0  0  0
   24.7742   18.7414   28.7351 H   0  0  0  0  0  0
   26.9355   19.8947   29.0186 H   0  0  0  0  0  0
   27.7836   20.4392   31.2608 H   0  0  0  0  0  0
  1  2  2  0  0  0
  1  6  1  0  0  0
  1 21  1  0  0  0
  2  3  1  0  0  0
  2  8  1  0  0  0
  3  4  2  0  0  0
  4  5  1  0  0  0
  4  7  1  0  0  0
  5  6  2  0  0  0
  5  9  1  0  0  0
  7 31  1  0  0  0
  7 32  1  0  0  0
  8 15  1  0  0  0
  8 17  1  0  0  0
  9 10  1  0  0  0
  9 11  2  0  0  0
 10 12  2  0  0  0
 12 14  1  0  0  0
 12 13  1  0  0  0
 13 34  1  0  0  0
 13 33  1  0  0  0
 14 36  1  0  0  0
 14 35  1  0  0  0
 15 16  1  0  0  0
 15 37  1  0  0  0
 15 38  1  0  0  0
 16 18  1  0  0  0
 16 39  1  0  0  0
 16 40  1  0  0  0
 17 19  1  0  0  0
 17 41  1  0  0  0
 17 42  1  0  0  0
 18 20  1  0  0  0
 18 43  1  0  0  0
 18 44  1  0  0  0
 19 20  1  0  0  0
 19 45  1  0  0  0
 19 46  1  0  0  0
 20 47  1  0  0  0
 20 48  1  0  0  0
 21 26  2  0  0  0
 21 24  1  0  0  0
 22 25  2  0  0  0
 22 23  1  0  0  0
 22 49  1  0  0  0
 23 24  2  0  0  0
 24 50  1  0  0  0
 25 26  1  0  0  0
 25 30  1  0  0  0
 26 27  1  0  0  0
 27 28  2  0  0  0
 27 51  1  0  0  0
 28 29  1  0  0  0
 28 52  1  0  0  0
 29 30  2  0  0  0
 29 53  1  0  0  0
 30 54  1  0  0  0
M  END
> <s_m_entry_id>
42063

> <s_m_entry_name>
dock_pv.28

> <s_m_Source_Path>
/home/csk/Desktop/cluster/DUD-E-result/urok

> <s_m_Source_File>
dock_pv.maegz

> <i_m_Source_File_Index>
28

> <chembl_id>
CHEMBL4215225

> <chembl_pref_name>
None

> <i_lp_mmshare_version>
53161

> <r_lp_tautomer_probability>
0.499994999999877

> <s_lp_Force_Field>
OPLS_2005

> <r_lp_Energy>
54.430897

> <b_lp_Chiralities_Consistent>
1

> <s_lp_Variant>
CHEMBL3286_lig891-1

> <s_i_glide_gridfile>
glide-grid_1sqt

> <i_i_glide_lignum>
1199

> <i_i_glide_rotatable_bonds>
4

> <r_i_docking_score>
-7.13464333991774

> <r_i_glide_ligand_efficiency>
-0.237821444663925

> <r_i_glide_ligand_efficiency_sa>
-0.738966522634863

> <r_i_glide_ligand_efficiency_ln>
-1.62106870499484

> <r_i_glide_gscore>
-7.13464333991774

> <r_i_glide_lipo>
-1.4853285695379

> <r_i_glide_hbond>
-1.47236490872993

> <r_i_glide_metal>
0

> <r_i_glide_rewards>
-1.18473073098068

> <r_i_glide_evdw>
-40.2979011535645

> <r_i_glide_ecoul>
-8.47569751739502

> <r_i_glide_erotb>
0.480294686830354

> <r_i_glide_esite>
-0.186264132212107

> <r_i_glide_emodel>
-67.730394019869

> <r_i_glide_energy>
-48.7735986709595

> <r_i_glide_einternal>
3.486896276474

> <i_i_glide_confnum>
149

> <i_i_glide_posenum>
381

> <r_i_glide_eff_state_penalty>
0

> <s_user_duplicate_titles>
CHEMBL3286_lig891

> <i_f3d_flags>
1

> <s_m_subgroup_title>
dock_pv

> <s_m_subgroupid>
dock_pv

> <b_m_subgroup_collapsed>
1

$$$$
CHEMBL3286_lig502
                    3D
 Schrodinger Suite 2021-1.
 38 40  0  0  1  0            999 V2000
   18.5526   19.3211   33.7086 C   0  0  0  0  0  0
   25.0245   14.4706   33.6085 C   0  0  0  0  0  0
   19.6398   18.3013   33.5949 C   0  0  0  0  0  0
   23.9117   15.4669   33.7784 C   0  0  0  0  0  0
   20.8554   18.3927   34.2944 C   0  0  0  0  0  0
   22.6805   15.3353   33.1213 C   0  0  0  0  0  0
   21.8790   17.4207   34.1418 C   0  0  0  0  0  0
   21.6620   16.3077   33.2801 C   0  0  0  0  0  0
   17.5240   19.2120   33.0079 N   0  0  0  0  0  0
   24.8627   13.3042   32.6160 C   0  0  0  0  0  0
   26.0909   14.5508   34.2199 O   0  0  0  0  0  0
   19.4612   17.1851   32.7574 C   0  0  0  0  0  0
   24.1087   16.5687   34.6200 C   0  0  0  0  0  0
   23.1169   17.5266   34.8149 C   0  0  0  0  0  0
   20.4332   16.2058   32.5986 C   0  0  0  0  0  0
   18.7242   20.3308   34.6199 N   0  0  0  0  0  0
   24.5319   12.0104   33.3519 C   0  0  0  0  0  0
   25.5625   11.2389   33.8985 C   0  0  0  0  0  0
   23.2089   11.5713   33.4453 C   0  0  0  0  0  0
   22.9172   10.3701   34.0860 C   0  0  0  0  0  0
   25.2688   10.0417   34.5472 C   0  0  0  0  0  0
   23.9468    9.6127   34.6375 C   0  0  0  0  0  0
   21.0460   19.2126   34.9689 H   0  0  0  0  0  0
   22.4654   14.5016   32.4705 H   0  0  0  0  0  0
   16.8629   19.9454   33.2242 H   0  0  0  0  0  0
   25.8105   13.1764   32.0932 H   0  0  0  0  0  0
   24.1281   13.5168   31.8432 H   0  0  0  0  0  0
   18.5425   17.0619   32.1998 H   0  0  0  0  0  0
   25.0450   16.6944   35.1467 H   0  0  0  0  0  0
   23.2953   18.3654   35.4719 H   0  0  0  0  0  0
   20.2530   15.3691   31.9401 H   0  0  0  0  0  0
   17.9593   20.9609   34.8429 H   0  0  0  0  0  0
   19.6332   20.5370   35.0199 H   0  0  0  0  0  0
   26.5895   11.5654   33.8182 H   0  0  0  0  0  0
   22.4061   12.1529   33.0205 H   0  0  0  0  0  0
   21.8981   10.0183   34.1545 H   0  0  0  0  0  0
   26.0614    9.4422   34.9693 H   0  0  0  0  0  0
   23.7155    8.6798   35.1330 H   0  0  0  0  0  0
  1  3  1  0  0  0
  1  9  2  0  0  0
  1 16  1  0  0  0
  2  4  1  0  0  0
  2 10  1  0  0  0
  2 11  2  0  0  0
  3  5  2  0  0  0
  3 12  1  0  0  0
  4  6  1  0  0  0
  4 13  2  0  0  0
  5  7  1  0  0  0
  5 23  1  0  0  0
  6  8  2  0  0  0
  6 24  1  0  0  0
  7 14  2  0  0  0
  7  8  1  0  0  0
  8 15  1  0  0  0
  9 25  1  0  0  0
 10 17  1  0  0  0
 10 26  1  0  0  0
 10 27  1  0  0  0
 12 15  2  0  0  0
 12 28  1  0  0  0
 13 14  1  0  0  0
 13 29  1  0  0  0
 14 30  1  0  0  0
 15 31  1  0  0  0
 16 32  1  0  0  0
 16 33  1  0  0  0
 17 18  2  0  0  0
 17 19  1  0  0  0
 18 21  1  0  0  0
 18 34  1  0  0  0
 19 20  2  0  0  0
 19 35  1  0  0  0
 20 22  1  0  0  0
 20 36  1  0  0  0
 21 22  2  0  0  0
 21 37  1  0  0  0
 22 38  1  0  0  0
M  END
> <s_m_entry_id>
42064

> <s_m_entry_name>
dock_pv.29

> <s_m_Source_Path>
/home/csk/Desktop/cluster/DUD-E-result/urok

> <s_m_Source_File>
dock_pv.maegz

> <i_m_Source_File_Index>
29

> <chembl_id>
CHEMBL321666

> <chembl_pref_name>
None

> <i_lp_mmshare_version>
53161

> <r_lp_tautomer_probability>
0.99990000499975

> <s_lp_Force_Field>
OPLS_2005

> <r_lp_Energy>
16.871572

> <b_lp_Chiralities_Consistent>
1

> <s_lp_Variant>
CHEMBL3286_lig502-1

> <s_i_glide_gridfile>
glide-grid_1sqt

> <i_i_glide_lignum>
663

> <i_i_glide_rotatable_bonds>
4

> <r_i_docking_score>
-7.1304946632561

> <r_i_glide_ligand_efficiency>
-0.324113393784368

> <r_i_glide_ligand_efficiency_sa>
-0.908178476040258

> <r_i_glide_ligand_efficiency_ln>
-1.74295298681213

> <r_i_glide_gscore>
-7.1304946632561

> <r_i_glide_lipo>
-2.5885877281179

> <r_i_glide_hbond>
-0.549501648940701

> <r_i_glide_metal>
0

> <r_i_glide_rewards>
-1.7104354985433

> <r_i_glide_evdw>
-35.2459945678711

> <r_i_glide_ecoul>
-7.71985721588135

> <r_i_glide_erotb>
0.656390183932591

> <r_i_glide_esite>
-0.0180816608110387

> <r_i_glide_emodel>
-60.2874633087627

> <r_i_glide_energy>
-42.9658517837524

> <r_i_glide_einternal>
1.97097051143646

> <i_i_glide_confnum>
1

> <i_i_glide_posenum>
146

> <r_i_glide_eff_state_penalty>
0

> <s_user_duplicate_titles>
CHEMBL3286_lig502

> <i_f3d_flags>
0

> <s_m_subgroup_title>
dock_pv

> <s_m_subgroupid>
dock_pv

> <b_m_subgroup_collapsed>
1

$$$$
CHEMBL3286_lig934 
                    3D
 Schrodinger Suite 2021-1.
 36 37  0  0  1  0            999 V2000
   24.0269   17.6601   35.4086 C   0  0  0  0  0  0
   25.2776   17.3372   34.8559 C   0  0  0  0  0  0
   26.4045   17.3365   35.6092 N   0  0  0  0  0  0
   26.2919   17.6391   36.9253 C   0  0  0  0  0  0
   25.0501   17.9812   37.4867 C   0  0  0  0  0  0
   23.9263   18.0120   36.7209 N   0  0  0  0  0  0
   27.4748   17.6110   37.6628 N   0  0  0  0  0  0
   25.4332   17.0137   33.5110 N   0  0  0  0  0  0
   24.8704   18.2783   38.9546 C   0  0  0  0  0  0
   24.3241   19.5004   39.3004 N   0  0  0  0  0  0
   25.2037   17.4655   39.8170 O   0  0  0  0  0  0
   24.8995   20.6039   39.0201 C   0  0  0  0  0  0
   24.3241   21.8217   39.4200 N   0  0  0  0  0  0
   26.1393   20.8202   38.3689 N   0  0  0  0  0  0
   22.7368   17.5861   34.6693 C   0  0  0  0  0  0
   21.8757   18.6844   34.6218 C   0  0  0  0  0  0
   20.6422   18.5943   33.9839 C   0  0  0  0  0  0
   20.2550   17.3954   33.3768 C   0  0  0  0  0  0
   21.1243   16.3017   33.3961 C   0  0  0  0  0  0
   22.3559   16.3998   34.0359 C   0  0  0  0  0  0
   18.8922   17.2552   32.7049 C   0  0  0  0  0  0
   19.0287   16.7586   31.4750 F   0  0  0  0  0  0
   18.1533   16.4116   33.4228 F   0  0  0  0  0  0
   18.2440   18.4177   32.6195 F   0  0  0  0  0  0
   27.3989   17.6041   38.6699 H   0  0  0  0  0  0
   28.2967   17.2471   37.2032 H   0  0  0  0  0  0
   24.6343   17.0655   32.8964 H   0  0  0  0  0  0
   26.3584   16.8174   33.1592 H   0  0  0  0  0  0
   23.5475   21.7205   40.0684 H   0  0  0  0  0  0
   24.9533   22.5356   39.7503 H   0  0  0  0  0  0
   26.6935   19.9953   38.1842 H   0  0  0  0  0  0
   26.7333   21.5418   38.7469 H   0  0  0  0  0  0
   22.1569   19.6118   35.0978 H   0  0  0  0  0  0
   19.9914   19.4578   33.9840 H   0  0  0  0  0  0
   20.8380   15.3685   32.9317 H   0  0  0  0  0  0
   23.0061   15.5375   34.0643 H   0  0  0  0  0  0
  1  2  2  0  0  0
  1  6  1  0  0  0
  1 15  1  0  0  0
  2  3  1  0  0  0
  2  8  1  0  0  0
  3  4  2  0  0  0
  4  5  1  0  0  0
  4  7  1  0  0  0
  5  6  2  0  0  0
  5  9  1  0  0  0
  7 25  1  0  0  0
  7 26  1  0  0  0
  8 27  1  0  0  0
  8 28  1  0  0  0
  9 10  1  0  0  0
  9 11  2  0  0  0
 10 12  2  0  0  0
 12 14  1  0  0  0
 12 13  1  0  0  0
 13 30  1  0  0  0
 13 29  1  0  0  0
 14 32  1  0  0  0
 14 31  1  0  0  0
 15 16  2  0  0  0
 15 20  1  0  0  0
 16 17  1  0  0  0
 16 33  1  0  0  0
 17 18  2  0  0  0
 17 34  1  0  0  0
 18 19  1  0  0  0
 18 21  1  0  0  0
 19 20  2  0  0  0
 19 35  1  0  0  0
 20 36  1  0  0  0
 21 22  1  0  0  0
 21 23  1  0  0  0
 21 24  1  0  0  0
M  END
> <s_m_entry_id>
42065

> <s_m_entry_name>
dock_pv.30

> <s_m_Source_Path>
/home/csk/Desktop/cluster/DUD-E-result/urok

> <s_m_Source_File>
dock_pv.maegz

> <i_m_Source_File_Index>
30

> <chembl_id>
CHEMBL4450426

> <chembl_pref_name>
None

> <i_lp_mmshare_version>
53161

> <r_lp_tautomer_probability>
0.499995

> <s_lp_Force_Field>
OPLS_2005

> <r_lp_Energy>
43.522676

> <b_lp_Chiralities_Consistent>
1

> <s_lp_Variant>
CHEMBL3286_lig934 -1

> <s_i_glide_gridfile>
glide-grid_1sqt

> <i_i_glide_lignum>
1242

> <i_i_glide_rotatable_bonds>
4

> <r_i_docking_score>
-7.12532276573098

> <r_i_glide_ligand_efficiency>
-0.296888448572124

> <r_i_glide_ligand_efficiency_sa>
-0.856374473857557

> <r_i_glide_ligand_efficiency_ln>
-1.70541669759616

> <r_i_glide_gscore>
-7.12532276573098

> <r_i_glide_lipo>
-1.96058349704103

> <r_i_glide_hbond>
-0.4764649360443

> <r_i_glide_metal>
0

> <r_i_glide_rewards>
-2.62950695899078

> <r_i_glide_evdw>
-35.0894203186035

> <r_i_glide_ecoul>
-4.9977879524231

> <r_i_glide_erotb>
0.493170369534962

> <r_i_glide_esite>
-0.0477985343961865

> <r_i_glide_emodel>
-56.1956209270718

> <r_i_glide_energy>
-40.0872082710266

> <r_i_glide_einternal>
4.41563367843628

> <i_i_glide_confnum>
9

> <i_i_glide_posenum>
180

> <r_i_glide_eff_state_penalty>
0

> <s_user_duplicate_titles>
CHEMBL3286_lig934 

> <i_f3d_flags>
1

> <s_m_subgroup_title>
dock_pv

> <s_m_subgroupid>
dock_pv

> <b_m_subgroup_collapsed>
1

$$$$
CHEMBL3286_lig464
                    3D
 Schrodinger Suite 2021-1.
 37 39  0  0  1  0            999 V2000
   23.8325   17.9914   35.1694 C   0  0  0  0  0  0
   22.0482   17.0492   33.5793 C   0  0  0  0  0  0
   23.3511   16.9663   34.1859 C   0  0  0  0  0  0
   24.3413   20.0102   36.0813 N   0  0  0  0  0  0
   24.4527   17.7880   36.3937 C   0  0  0  0  0  0
   24.7205   19.0282   36.9044 N   0  0  0  0  0  0
   21.0751   18.0385   33.9222 C   0  0  0  0  0  0
   23.8133   19.3913   35.0507 C   0  0  0  0  0  0
   18.7981   19.1526   33.6274 C   0  0  0  0  0  0
   19.8146   18.1086   33.2983 C   0  0  0  0  0  0
   21.6951   16.0919   32.5817 C   0  0  0  0  0  0
   24.2283   15.9212   33.8316 C   0  0  0  0  0  0
   17.7044   19.2104   33.0190 N   0  0  0  0  0  0
   19.5218   17.1408   32.3261 C   0  0  0  0  0  0
   23.8487   15.0061   32.8439 C   0  0  0  0  0  0
   20.4270   16.1531   31.9695 C   0  0  0  0  0  0
   22.6183   15.0949   32.2143 C   0  0  0  0  0  0
   19.1199   20.0118   34.6396 N   0  0  0  0  0  0
   25.4565   15.8519   34.4719 O   0  0  0  0  0  0
   25.3065   19.3593   38.1900 C   0  0  0  0  0  0
   26.3829   14.8236   34.1375 C   0  0  0  0  0  0
   24.7246   16.8889   36.9262 H   0  0  0  0  0  0
   21.3254   18.7486   34.6940 H   0  0  0  0  0  0
   23.4118   19.9459   34.2140 H   0  0  0  0  0  0
   17.1223   19.9590   33.3772 H   0  0  0  0  0  0
   18.5686   17.1493   31.8144 H   0  0  0  0  0  0
   24.5091   14.2115   32.5351 H   0  0  0  0  0  0
   20.1660   15.4360   31.2049 H   0  0  0  0  0  0
   22.3508   14.3853   31.4457 H   0  0  0  0  0  0
   18.4253   20.6700   34.9650 H   0  0  0  0  0  0
   20.0697   20.1528   34.9640 H   0  0  0  0  0  0
   25.6619   18.4541   38.6825 H   0  0  0  0  0  0
   26.1452   20.0419   38.0473 H   0  0  0  0  0  0
   24.5492   19.8337   38.8150 H   0  0  0  0  0  0
   27.2729   14.9272   34.7581 H   0  0  0  0  0  0
   25.9674   13.8316   34.3213 H   0  0  0  0  0  0
   26.6986   14.8946   33.0955 H   0  0  0  0  0  0
  1  3  1  0  0  0
  1  5  2  0  0  0
  1  8  1  0  0  0
  2  3  2  0  0  0
  2  7  1  0  0  0
  2 11  1  0  0  0
  3 12  1  0  0  0
  4  8  2  0  0  0
  4  6  1  0  0  0
  5  6  1  0  0  0
  5 22  1  0  0  0
  6 20  1  0  0  0
  7 10  2  0  0  0
  7 23  1  0  0  0
  8 24  1  0  0  0
  9 10  1  0  0  0
  9 13  2  0  0  0
  9 18  1  0  0  0
 10 14  1  0  0  0
 11 16  1  0  0  0
 11 17  2  0  0  0
 12 15  2  0  0  0
 12 19  1  0  0  0
 13 25  1  0  0  0
 14 16  2  0  0  0
 14 26  1  0  0  0
 15 17  1  0  0  0
 15 27  1  0  0  0
 16 28  1  0  0  0
 17 29  1  0  0  0
 18 30  1  0  0  0
 18 31  1  0  0  0
 19 21  1  0  0  0
 20 32  1  0  0  0
 20 33  1  0  0  0
 20 34  1  0  0  0
 21 35  1  0  0  0
 21 36  1  0  0  0
 21 37  1  0  0  0
M  END
> <s_m_entry_id>
42066

> <s_m_entry_name>
dock_pv.31

> <s_m_Source_Path>
/home/csk/Desktop/cluster/DUD-E-result/urok

> <s_m_Source_File>
dock_pv.maegz

> <i_m_Source_File_Index>
31

> <chembl_id>
CHEMBL102631

> <chembl_pref_name>
None

> <i_lp_mmshare_version>
53161

> <r_lp_tautomer_probability>
1

> <s_lp_Force_Field>
OPLS_2005

> <r_lp_Energy>
30.75395

> <b_lp_Chiralities_Consistent>
1

> <s_lp_Variant>
CHEMBL3286_lig464-1

> <s_i_glide_gridfile>
glide-grid_1sqt

> <i_i_glide_lignum>
613

> <i_i_glide_rotatable_bonds>
3

> <r_i_docking_score>
-7.12484093028726

> <r_i_glide_ligand_efficiency>
-0.339278139537489

> <r_i_glide_ligand_efficiency_sa>
-0.936042660737651

> <r_i_glide_ligand_efficiency_ln>
-1.76160252291682

> <r_i_glide_gscore>
-7.12484093028726

> <r_i_glide_lipo>
-2.50669045310621

> <r_i_glide_hbond>
-0.368823998260703

> <r_i_glide_metal>
0

> <r_i_glide_rewards>
-1.98767862815443

> <r_i_glide_evdw>
-32.0167808532715

> <r_i_glide_ecoul>
-5.9373950958252

> <r_i_glide_erotb>
0.229800456271433

> <r_i_glide_esite>
0

> <r_i_glide_emodel>
-54.0831026228066

> <r_i_glide_energy>
-37.9541759490967

> <r_i_glide_einternal>
0.182746767997742

> <i_i_glide_confnum>
2

> <i_i_glide_posenum>
395

> <r_i_glide_eff_state_penalty>
0

> <s_user_duplicate_titles>
CHEMBL3286_lig464

> <i_f3d_flags>
0

> <s_m_subgroup_title>
dock_pv

> <s_m_subgroupid>
dock_pv

> <b_m_subgroup_collapsed>
1

$$$$
CHEMBL3286_lig392
                    3D
 Schrodinger Suite 2021-1.
 37 38  0  0  1  0            999 V2000
   24.3474   12.5584   32.7618 C   0  0  0  0  0  0
   24.0951   14.0170   33.0476 C   0  0  0  0  0  0
   25.3731   12.1354   31.8919 C   0  0  0  0  0  0
   18.8687   19.6860   33.8235 C   0  0  0  0  0  0
   25.5970   10.7677   31.6872 C   0  0  0  0  0  0
   22.7918   14.3727   33.0224 N   0  0  0  0  0  0
   23.5662   11.5908   33.4088 C   0  0  0  0  0  0
   20.1819   19.2139   34.0566 N   0  0  0  0  0  0
   17.9240   19.0414   33.3215 N   0  0  0  0  0  0
   25.0359   14.7666   33.3041 O   0  0  0  0  0  0
   24.8115    9.8229   32.3432 C   0  0  0  0  0  0
   23.7965   10.2330   33.2055 C   0  0  0  0  0  0
   22.1932   15.6112   33.3072 C   0  0  0  0  0  0
   18.7239   21.0220   34.2200 N   0  0  0  0  0  0
   20.8047   17.9865   33.8070 C   0  0  0  0  0  0
   27.0829   10.0870   30.3733 I   0  0  0  0  0  0
   26.1462   13.0337   31.1996 O   0  0  0  0  0  0
   20.7997   15.6358   33.2476 C   0  0  0  0  0  0
   22.8930   16.7805   33.6382 C   0  0  0  0  0  0
   20.1088   16.8158   33.4885 C   0  0  0  0  0  0
   22.1955   17.9556   33.8922 C   0  0  0  0  0  0
   22.9695    9.2119   33.9531 C   0  0  0  0  0  0
   22.1382   13.6477   32.7582 H   0  0  0  0  0  0
   22.7849   11.8861   34.0950 H   0  0  0  0  0  0
   20.8013   19.9126   34.4411 H   0  0  0  0  0  0
   17.0911   19.6126   33.2638 H   0  0  0  0  0  0
   24.9937    8.7702   32.1794 H   0  0  0  0  0  0
   17.7929   21.3741   34.4198 H   0  0  0  0  0  0
   19.3956   21.3919   34.8806 H   0  0  0  0  0  0
   26.8540   12.6040   30.7131 H   0  0  0  0  0  0
   20.2337   14.7455   33.0202 H   0  0  0  0  0  0
   23.9682   16.8164   33.6991 H   0  0  0  0  0  0
   19.0315   16.7991   33.4369 H   0  0  0  0  0  0
   22.7470   18.8526   34.1362 H   0  0  0  0  0  0
   23.5240    8.2801   34.0755 H   0  0  0  0  0  0
   22.0402    9.0092   33.4210 H   0  0  0  0  0  0
   22.7256    9.5599   34.9569 H   0  0  0  0  0  0
  1  2  1  0  0  0
  1  3  2  0  0  0
  1  7  1  0  0  0
  2  6  1  0  0  0
  2 10  2  0  0  0
  3  5  1  0  0  0
  3 17  1  0  0  0
  4  8  1  0  0  0
  4  9  2  0  0  0
  4 14  1  0  0  0
  5 16  1  0  0  0
  5 11  2  0  0  0
  6 13  1  0  0  0
  6 23  1  0  0  0
  7 12  2  0  0  0
  7 24  1  0  0  0
  8 15  1  0  0  0
  8 25  1  0  0  0
  9 26  1  0  0  0
 11 12  1  0  0  0
 11 27  1  0  0  0
 12 22  1  0  0  0
 13 18  2  0  0  0
 13 19  1  0  0  0
 14 28  1  0  0  0
 14 29  1  0  0  0
 15 21  1  0  0  0
 15 20  2  0  0  0
 17 30  1  0  0  0
 18 20  1  0  0  0
 18 31  1  0  0  0
 19 21  2  0  0  0
 19 32  1  0  0  0
 20 33  1  0  0  0
 21 34  1  0  0  0
 22 35  1  0  0  0
 22 36  1  0  0  0
 22 37  1  0  0  0
M  END
> <s_m_entry_id>
42067

> <s_m_entry_name>
dock_pv.32

> <s_m_Source_Path>
/home/csk/Desktop/cluster/DUD-E-result/urok

> <s_m_Source_File>
dock_pv.maegz

> <i_m_Source_File_Index>
32

> <chembl_id>
CHEMBL64164

> <chembl_pref_name>
None

> <i_lp_mmshare_version>
53161

> <r_lp_tautomer_probability>
0.999999999997365

> <s_lp_Force_Field>
OPLS_2005

> <r_lp_Energy>
13.835851

> <b_lp_Chiralities_Consistent>
1

> <s_lp_Variant>
CHEMBL3286_lig392-1

> <s_i_glide_gridfile>
glide-grid_1sqt

> <i_i_glide_lignum>
523

> <i_i_glide_rotatable_bonds>
6

> <r_i_docking_score>
-7.10854688457934

> <r_i_glide_ligand_efficiency>
-0.323115767480879

> <r_i_glide_ligand_efficiency_sa>
-0.905383087903466

> <r_i_glide_ligand_efficiency_ln>
-1.73758814913885

> <r_i_glide_gscore>
-7.10854688457934

> <r_i_glide_lipo>
-2.14247600507663

> <r_i_glide_hbond>
-1.29451539555757

> <r_i_glide_metal>
0

> <r_i_glide_rewards>
-0.764308504347089

> <r_i_glide_evdw>
-36.488655090332

> <r_i_glide_ecoul>
-10.5791730880737

> <r_i_glide_erotb>
0.585304023099907

> <r_i_glide_esite>
-0.0812422849702935

> <r_i_glide_emodel>
-65.7590391468513

> <r_i_glide_energy>
-47.0678281784058

> <r_i_glide_einternal>
2.96836376190186

> <i_i_glide_confnum>
62

> <i_i_glide_posenum>
341

> <r_i_glide_eff_state_penalty>
0

> <s_user_duplicate_titles>
CHEMBL3286_lig392

> <i_f3d_flags>
0

> <s_m_subgroup_title>
dock_pv

> <s_m_subgroupid>
dock_pv

> <b_m_subgroup_collapsed>
1

$$$$
CHEMBL3286_lig176
                    3D
 Schrodinger Suite 2021-1.
 42 44  0  0  1  0            999 V2000
   17.5245   19.2119   32.7003 N   0  0  0  0  0  0
   18.5000   19.2930   33.4839 C   0  0  0  0  0  0
   18.7253   20.2938   34.3919 N   0  0  0  0  0  0
   19.5008   18.2154   33.4845 C   0  0  0  0  0  0
   20.8750   18.4867   33.4196 C   0  0  0  0  0  0
   21.8184   17.4398   33.2518 C   0  0  0  0  0  0
   23.1999   17.6922   33.0625 C   0  0  0  0  0  0
   24.0843   16.6398   32.8227 C   0  0  0  0  0  0
   23.6342   15.3139   32.8006 C   0  0  0  0  0  0
   22.2877   15.0447   33.0442 C   0  0  0  0  0  0
   21.3587   16.0906   33.2372 C   0  0  0  0  0  0
   19.9801   15.8291   33.3814 C   0  0  0  0  0  0
   19.0773   16.8791   33.4801 C   0  0  0  0  0  0
   24.5498   14.1655   32.4708 C   0  0  0  0  0  0
   24.4665   13.1104   33.1022 O   0  0  0  0  0  0
   25.3472   14.3803   31.4034 N   0  0  0  0  0  0
   26.1691   13.4740   30.7100 C   0  0  0  0  0  0
   26.5581   13.8649   29.4275 C   0  0  0  0  0  0
   27.3474   13.0268   28.6466 C   0  0  0  0  0  0
   27.7597   11.7902   29.1468 C   0  0  0  0  0  0
   27.3884   11.4008   30.4350 C   0  0  0  0  0  0
   26.5980   12.2384   31.2186 C   0  0  0  0  0  0
   28.6332   10.8779   28.3011 C   0  0  0  0  0  0
   27.9242   10.4119   27.1238 N   0  0  0  0  0  0
   17.5702   18.3987   32.1062 H   0  0  0  0  0  0
   18.0000   20.9823   34.5610 H   0  0  0  0  0  0
   19.5763   20.3424   34.9373 H   0  0  0  0  0  0
   21.2309   19.5087   33.4123 H   0  0  0  0  0  0
   23.5563   18.7129   33.0655 H   0  0  0  0  0  0
   25.1269   16.8687   32.6500 H   0  0  0  0  0  0
   21.9253   14.0259   33.0256 H   0  0  0  0  0  0
   19.6247   14.8083   33.3815 H   0  0  0  0  0  0
   18.0251   16.6380   33.5463 H   0  0  0  0  0  0
   25.2592   15.2861   30.9693 H   0  0  0  0  0  0
   26.2399   14.8127   29.0181 H   0  0  0  0  0  0
   27.6325   13.3353   27.6505 H   0  0  0  0  0  0
   27.7124   10.4496   30.8316 H   0  0  0  0  0  0
   26.3384   11.9101   32.2125 H   0  0  0  0  0  0
   29.5249   11.4231   27.9884 H   0  0  0  0  0  0
   28.9780   10.0193   28.8803 H   0  0  0  0  0  0
   28.5767    9.8649   26.5761 H   0  0  0  0  0  0
   27.2098    9.7519   27.4189 H   0  0  0  0  0  0
  1  2  2  0  0  0
  1 25  1  0  0  0
  2  3  1  0  0  0
  2  4  1  0  0  0
  3 26  1  0  0  0
  3 27  1  0  0  0
  4  5  2  0  0  0
  4 13  1  0  0  0
  5  6  1  0  0  0
  5 28  1  0  0  0
  6  7  2  0  0  0
  6 11  1  0  0  0
  7  8  1  0  0  0
  7 29  1  0  0  0
  8  9  2  0  0  0
  8 30  1  0  0  0
  9 10  1  0  0  0
  9 14  1  0  0  0
 10 11  2  0  0  0
 10 31  1  0  0  0
 11 12  1  0  0  0
 12 13  2  0  0  0
 12 32  1  0  0  0
 13 33  1  0  0  0
 14 15  2  0  0  0
 14 16  1  0  0  0
 16 17  1  0  0  0
 16 34  1  0  0  0
 17 18  2  0  0  0
 17 22  1  0  0  0
 18 19  1  0  0  0
 18 35  1  0  0  0
 19 20  2  0  0  0
 19 36  1  0  0  0
 20 21  1  0  0  0
 20 23  1  0  0  0
 21 22  2  0  0  0
 21 37  1  0  0  0
 22 38  1  0  0  0
 23 24  1  0  0  0
 23 39  1  0  0  0
 23 40  1  0  0  0
 24 41  1  0  0  0
 24 42  1  0  0  0
M  END
> <s_m_entry_id>
42068

> <s_m_entry_name>
dock_pv.33

> <s_m_Source_Path>
/home/csk/Desktop/cluster/DUD-E-result/urok

> <s_m_Source_File>
dock_pv.maegz

> <i_m_Source_File_Index>
33

> <chembl_id>
CHEMBL324168

> <chembl_pref_name>
None

> <i_lp_mmshare_version>
53161

> <r_lp_tautomer_probability>
1

> <s_lp_Force_Field>
OPLS_2005

> <r_lp_Energy>
17.925613

> <b_lp_Chiralities_Consistent>
1

> <s_lp_Variant>
CHEMBL3286_lig176-1

> <s_i_glide_gridfile>
glide-grid_1sqt

> <i_i_glide_lignum>
252

> <i_i_glide_rotatable_bonds>
5

> <r_i_docking_score>
-7.09034237336266

> <r_i_glide_ligand_efficiency>
-0.295430932223444

> <r_i_glide_ligand_efficiency_sa>
-0.852170269206811

> <r_i_glide_ligand_efficiency_ln>
-1.69704428455681

> <r_i_glide_gscore>
-7.09034237336266

> <r_i_glide_lipo>
-2.15692242584634

> <r_i_glide_hbond>
-0.68397524038571

> <r_i_glide_metal>
0

> <r_i_glide_rewards>
-1.60712868639645

> <r_i_glide_evdw>
-34.126350402832

> <r_i_glide_ecoul>
-9.84351539611816

> <r_i_glide_erotb>
0.551809093732549

> <r_i_glide_esite>
-0.0112802849073731

> <r_i_glide_emodel>
-54.0697071065129

> <r_i_glide_energy>
-43.9698657989502

> <r_i_glide_einternal>
11.817587852478

> <i_i_glide_confnum>
5

> <i_i_glide_posenum>
186

> <r_i_glide_eff_state_penalty>
0

> <s_user_duplicate_titles>
CHEMBL3286_lig176,181088

> <i_f3d_flags>
0

> <s_m_subgroup_title>
dock_pv

> <s_m_subgroupid>
dock_pv

> <b_m_subgroup_collapsed>
1

$$$$
CHEMBL3286_lig532
                    3D
 Schrodinger Suite 2021-1.
 24 25  0  0  1  0            999 V2000
   20.1497   19.1239   34.1166 N   0  0  0  0  0  0
   20.7529   17.8723   33.8767 C   0  0  0  0  0  0
   18.8611   19.6396   33.8200 C   0  0  0  0  0  0
   19.9865   16.9007   33.3150 N   0  0  0  0  0  0
   22.1237   17.6630   34.2210 C   0  0  0  0  0  0
   17.9240   19.0279   33.2621 N   0  0  0  0  0  0
   18.7240   20.9759   34.2200 N   0  0  0  0  0  0
   22.6878   16.3835   33.9164 C   0  0  0  0  0  0
   20.5380   15.6976   33.0541 C   0  0  0  0  0  0
   22.9526   18.6412   34.8400 C   0  0  0  0  0  0
   21.8680   15.3946   33.3210 C   0  0  0  0  0  0
   24.0476   16.1310   34.2200 C   0  0  0  0  0  0
   24.2819   18.3540   35.1379 C   0  0  0  0  0  0
   24.8255   17.1123   34.8281 C   0  0  0  0  0  0
   20.7621   19.7946   34.5559 H   0  0  0  0  0  0
   17.1049   19.6120   33.1665 H   0  0  0  0  0  0
   17.7900   21.3392   34.3784 H   0  0  0  0  0  0
   19.3805   21.3374   34.8999 H   0  0  0  0  0  0
   19.8791   14.9604   32.6200 H   0  0  0  0  0  0
   22.5507   19.6120   35.0871 H   0  0  0  0  0  0
   22.2685   14.4190   33.0876 H   0  0  0  0  0  0
   24.4755   15.1671   33.9855 H   0  0  0  0  0  0
   24.8983   19.1031   35.6125 H   0  0  0  0  0  0
   25.8599   16.9072   35.0639 H   0  0  0  0  0  0
  1  2  1  0  0  0
  1  3  1  0  0  0
  1 15  1  0  0  0
  2  4  2  0  0  0
  2  5  1  0  0  0
  3  6  2  0  0  0
  3  7  1  0  0  0
  4  9  1  0  0  0
  5  8  2  0  0  0
  5 10  1  0  0  0
  6 16  1  0  0  0
  7 17  1  0  0  0
  7 18  1  0  0  0
  8 11  1  0  0  0
  8 12  1  0  0  0
  9 11  2  0  0  0
  9 19  1  0  0  0
 10 13  2  0  0  0
 10 20  1  0  0  0
 11 21  1  0  0  0
 12 14  2  0  0  0
 12 22  1  0  0  0
 13 14  1  0  0  0
 13 23  1  0  0  0
 14 24  1  0  0  0
M  END
> <s_m_entry_id>
42069

> <s_m_entry_name>
dock_pv.34

> <s_m_Source_Path>
/home/csk/Desktop/cluster/DUD-E-result/urok

> <s_m_Source_File>
dock_pv.maegz

> <i_m_Source_File_Index>
34

> <chembl_id>
CHEMBL321822

> <chembl_pref_name>
None

> <i_lp_mmshare_version>
53161

> <r_lp_tautomer_probability>
1

> <s_lp_Force_Field>
OPLS_2005

> <r_lp_Energy>
1.032011

> <b_lp_Chiralities_Consistent>
1

> <s_lp_Variant>
CHEMBL3286_lig532-1

> <s_i_glide_gridfile>
glide-grid_1sqt

> <i_i_glide_lignum>
696

> <i_i_glide_rotatable_bonds>
2

> <r_i_docking_score>
-7.0885307813742

> <r_i_glide_ligand_efficiency>
-0.506323627241015

> <r_i_glide_ligand_efficiency_sa>
-1.22031197229058

> <r_i_glide_ligand_efficiency_ln>
-1.94790302523858

> <r_i_glide_gscore>
-7.0885307813742

> <r_i_glide_lipo>
-1.72148599149052

> <r_i_glide_hbond>
-0.833649937253903

> <r_i_glide_metal>
0

> <r_i_glide_rewards>
-2.13945545454545

> <r_i_glide_evdw>
-26.8650875091553

> <r_i_glide_ecoul>
-9.55273818969727

> <r_i_glide_erotb>
0.459690958344279

> <r_i_glide_esite>
-0.0774652525162478

> <r_i_glide_emodel>
-51.4234559652876

> <r_i_glide_energy>
-36.4178256988525

> <r_i_glide_einternal>
0.739598512649536

> <i_i_glide_confnum>
1

> <i_i_glide_posenum>
396

> <r_i_glide_eff_state_penalty>
0

> <s_user_duplicate_titles>
CHEMBL3286_lig532

> <i_f3d_flags>
0

> <s_m_subgroup_title>
dock_pv

> <s_m_subgroupid>
dock_pv

> <b_m_subgroup_collapsed>
1

$$$$
CHEMBL3286_lig909
                    3D
 Schrodinger Suite 2021-1.
 49 51  0  0  1  0            999 V2000
   22.7074   16.5578   33.4477 C   0  0  0  0  0  0
   22.5187   15.6947   32.3332 C   0  0  0  0  0  0
   21.3111   15.6587   31.7052 N   0  0  0  0  0  0
   20.3062   16.4383   32.1544 C   0  0  0  0  0  0
   20.4821   17.2763   33.2612 C   0  0  0  0  0  0
   21.6786   17.3310   33.9023 N   0  0  0  0  0  0
   19.1240   16.3891   31.4196 N   0  0  0  0  0  0
   23.4888   14.8743   31.7072 N   0  0  0  0  0  0
   19.3389   18.0515   33.8476 C   0  0  0  0  0  0
   19.5431   19.4171   34.0174 N   0  0  0  0  0  0
   18.3240   17.4384   34.1895 O   0  0  0  0  0  0
   18.5680   20.2511   34.0136 C   0  0  0  0  0  0
   18.7240   21.6278   34.2200 N   0  0  0  0  0  0
   17.1967   20.0125   33.8196 N   0  0  0  0  0  0
   24.6127   14.3234   32.4759 C   0  0  0  0  0  0
   26.0839   14.6266   32.0976 C   0  0  0  0  0  0
   23.7796   15.2483   30.3136 C   0  0  0  0  0  0
   26.4469   16.0884   31.7615 C   0  0  0  0  0  0
   24.4991   16.5958   30.1054 C   0  0  0  0  0  0
   26.0156   16.5507   30.3577 C   0  0  0  0  0  0
   23.9514   16.6595   34.1006 N   0  0  0  0  0  0
   24.4369   17.4141   35.1765 C   0  0  0  0  0  0
   23.6696   18.3844   35.7441 N   0  0  0  0  0  0
   24.2177   19.0672   36.7819 C   0  0  0  0  0  0
   25.4983   18.7950   37.2651 C   0  0  0  0  0  0
   26.2085   17.7805   36.6203 C   0  0  0  0  0  0
   25.6943   17.0864   35.5720 N   0  0  0  0  0  0
   18.3336   16.9435   31.7196 H   0  0  0  0  0  0
   19.1015   15.8561   30.5637 H   0  0  0  0  0  0
   19.6226   21.8869   34.6109 H   0  0  0  0  0  0
   17.9815   22.0515   34.7707 H   0  0  0  0  0  0
   16.8919   19.0833   33.6007 H   0  0  0  0  0  0
   16.5154   20.5085   34.3915 H   0  0  0  0  0  0
   24.4236   14.2377   33.5468 H   0  0  0  0  0  0
   24.5229   13.2735   32.1926 H   0  0  0  0  0  0
   26.6994   14.3178   32.9441 H   0  0  0  0  0  0
   26.4019   13.9719   31.2840 H   0  0  0  0  0  0
   24.3024   14.4192   29.8343 H   0  0  0  0  0  0
   22.8457   15.2956   29.7506 H   0  0  0  0  0  0
   26.0572   16.7712   32.5145 H   0  0  0  0  0  0
   27.5321   16.1900   31.8231 H   0  0  0  0  0  0
   24.3249   16.9308   29.0813 H   0  0  0  0  0  0
   24.0636   17.3586   30.7527 H   0  0  0  0  0  0
   26.4805   15.9049   29.6109 H   0  0  0  0  0  0
   26.4262   17.5452   30.1746 H   0  0  0  0  0  0
   24.6542   16.0450   33.7168 H   0  0  0  0  0  0
   23.6030   19.8350   37.2288 H   0  0  0  0  0  0
   25.9155   19.3384   38.1000 H   0  0  0  0  0  0
   27.2038   17.5068   36.9393 H   0  0  0  0  0  0
  1  2  2  0  0  0
  1  6  1  0  0  0
  1 21  1  0  0  0
  2  3  1  0  0  0
  2  8  1  0  0  0
  3  4  2  0  0  0
  4  5  1  0  0  0
  4  7  1  0  0  0
  5  6  2  0  0  0
  5  9  1  0  0  0
  7 28  1  0  0  0
  7 29  1  0  0  0
  8 15  1  0  0  0
  8 17  1  0  0  0
  9 10  1  0  0  0
  9 11  2  0  0  0
 10 12  2  0  0  0
 12 14  1  0  0  0
 12 13  1  0  0  0
 13 31  1  0  0  0
 13 30  1  0  0  0
 14 33  1  0  0  0
 14 32  1  0  0  0
 15 16  1  0  0  0
 15 34  1  0  0  0
 15 35  1  0  0  0
 16 18  1  0  0  0
 16 36  1  0  0  0
 16 37  1  0  0  0
 17 19  1  0  0  0
 17 38  1  0  0  0
 17 39  1  0  0  0
 18 20  1  0  0  0
 18 40  1  0  0  0
 18 41  1  0  0  0
 19 20  1  0  0  0
 19 42  1  0  0  0
 19 43  1  0  0  0
 20 44  1  0  0  0
 20 45  1  0  0  0
 21 22  1  0  0  0
 21 46  1  0  0  0
 22 23  2  0  0  0
 22 27  1  0  0  0
 23 24  1  0  0  0
 24 25  2  0  0  0
 24 47  1  0  0  0
 25 26  1  0  0  0
 25 48  1  0  0  0
 26 27  2  0  0  0
 26 49  1  0  0  0
M  END
> <s_m_entry_id>
42070

> <s_m_entry_name>
dock_pv.35

> <s_m_Source_Path>
/home/csk/Desktop/cluster/DUD-E-result/urok

> <s_m_Source_File>
dock_pv.maegz

> <i_m_Source_File_Index>
35

> <chembl_id>
CHEMBL4203654

> <chembl_pref_name>
None

> <i_lp_mmshare_version>
53161

> <r_lp_tautomer_probability>
0.499994996909031

> <s_lp_Force_Field>
OPLS_2005

> <r_lp_Energy>
39.070609

> <b_lp_Chiralities_Consistent>
1

> <s_lp_Variant>
CHEMBL3286_lig909-1

> <s_i_glide_gridfile>
glide-grid_1sqt

> <i_i_glide_lignum>
1217

> <i_i_glide_rotatable_bonds>
5

> <r_i_docking_score>
-7.06436364483475

> <r_i_glide_ligand_efficiency>
-0.261643097956842

> <r_i_glide_ligand_efficiency_sa>
-0.784929293008194

> <r_i_glide_ligand_efficiency_ln>
-1.6444673913806

> <r_i_glide_gscore>
-7.06436364483475

> <r_i_glide_lipo>
-1.62866331971516

> <r_i_glide_hbond>
-1.29039622718262

> <r_i_glide_metal>
0

> <r_i_glide_rewards>
-1.63428512376786

> <r_i_glide_evdw>
-38.0032577514648

> <r_i_glide_ecoul>
-7.51881217956543

> <r_i_glide_erotb>
0.703027093356356

> <r_i_glide_esite>
-0.186061353017412

> <r_i_glide_emodel>
-62.5966488173422

> <r_i_glide_energy>
-45.5220699310303

> <r_i_glide_einternal>
3.86748838424683

> <i_i_glide_confnum>
165

> <i_i_glide_posenum>
284

> <r_i_glide_eff_state_penalty>
0

> <s_user_duplicate_titles>
CHEMBL3286_lig909

> <i_f3d_flags>
1

> <s_m_subgroup_title>
dock_pv

> <s_m_subgroupid>
dock_pv

> <b_m_subgroup_collapsed>
1

$$$$
CHEMBL3286_lig781
                    3D
 Schrodinger Suite 2021-1.
 38 40  0  0  1  0            999 V2000
   23.2349   15.3996   30.6839 C   0  0  0  0  0  0
   24.3022   14.9413   29.9203 C   0  0  0  0  0  0
   25.4822   15.6677   29.8200 C   0  0  0  0  0  0
   23.3111   16.6144   31.3784 C   0  0  0  0  0  0
   24.4717   17.4038   31.2440 C   0  0  0  0  0  0
   25.5492   16.9110   30.4586 C   0  0  0  0  0  0
   26.8867   18.0441   30.4120 S   0  0  0  0  0  0
   26.0273   19.1763   31.4580 C   0  0  0  0  0  0
   24.7713   18.6793   31.7956 C   0  0  0  0  0  0
   26.6203   20.4579   31.8948 C   0  0  0  0  0  0
   27.9048   20.6814   31.4610 N   0  0  0  0  0  0
   25.9242   21.2161   32.6199 N   0  0  0  0  0  0
   22.3339   17.1531   32.1951 O   0  0  0  0  0  0
   21.1707   16.4046   32.5624 C   0  0  1  0  0  0
   21.4766   15.4876   33.7741 C   0  0  0  0  0  0
   20.0905   17.4233   32.9154 C   0  0  0  0  0  0
   20.3227   18.3703   33.9183 C   0  0  0  0  0  0
   19.3528   19.3179   34.2203 C   0  0  0  0  0  0
   18.1638   19.3440   33.4991 C   0  0  0  0  0  0
   17.9243   18.4053   32.4996 C   0  0  0  0  0  0
   18.8780   17.4326   32.2198 C   0  0  0  0  0  0
   22.2538   14.3591   33.4195 O   0  0  0  0  0  0
   22.3496   14.7862   30.7248 H   0  0  0  0  0  0
   24.2117   14.0113   29.3818 H   0  0  0  0  0  0
   26.2997   15.3025   29.2142 H   0  0  0  0  0  0
   24.0567   19.1921   32.4222 H   0  0  0  0  0  0
   28.3713   21.5455   31.6842 H   0  0  0  0  0  0
   28.3263   20.0538   30.7917 H   0  0  0  0  0  0
   25.0033   20.8138   32.7472 H   0  0  0  0  0  0
   20.7937   15.8136   31.7265 H   0  0  0  0  0  0
   21.9986   16.0457   34.5521 H   0  0  0  0  0  0
   20.5492   15.1248   34.2187 H   0  0  0  0  0  0
   21.2567   18.3775   34.4630 H   0  0  0  0  0  0
   19.5224   20.0347   35.0073 H   0  0  0  0  0  0
   17.4150   20.0891   33.7326 H   0  0  0  0  0  0
   16.9957   18.4289   31.9460 H   0  0  0  0  0  0
   18.6830   16.7163   31.4362 H   0  0  0  0  0  0
   21.6953   13.7422   32.9284 H   0  0  0  0  0  0
  1  2  2  0  0  0
  1  4  1  0  0  0
  1 23  1  0  0  0
  2  3  1  0  0  0
  2 24  1  0  0  0
  3  6  2  0  0  0
  3 25  1  0  0  0
  4 13  1  0  0  0
  4  5  2  0  0  0
  5  6  1  0  0  0
  5  9  1  0  0  0
  6  7  1  0  0  0
  7  8  1  0  0  0
  8  9  2  0  0  0
  8 10  1  0  0  0
  9 26  1  0  0  0
 10 11  1  0  0  0
 10 12  2  0  0  0
 11 27  1  0  0  0
 11 28  1  0  0  0
 12 29  1  0  0  0
 13 14  1  0  0  0
 14 15  1  0  0  0
 14 16  1  0  0  0
 14 30  1  0  0  0
 15 22  1  0  0  0
 15 31  1  0  0  0
 15 32  1  0  0  0
 16 17  2  0  0  0
 16 21  1  0  0  0
 17 18  1  0  0  0
 17 33  1  0  0  0
 18 19  2  0  0  0
 18 34  1  0  0  0
 19 20  1  0  0  0
 19 35  1  0  0  0
 20 21  2  0  0  0
 20 36  1  0  0  0
 21 37  1  0  0  0
 22 38  1  0  0  0
M  END
> <s_m_entry_id>
42071

> <s_m_entry_name>
dock_pv.36

> <s_m_Source_Path>
/home/csk/Desktop/cluster/DUD-E-result/urok

> <s_m_Source_File>
dock_pv.maegz

> <i_m_Source_File_Index>
36

> <chembl_id>
CHEMBL597571

> <chembl_pref_name>
None

> <i_lp_mmshare_version>
53161

> <r_lp_tautomer_probability>
1

> <s_lp_Force_Field>
OPLS_2005

> <r_lp_Energy>
19.230259

> <b_lp_Chiralities_Consistent>
1

> <s_lp_Variant>
CHEMBL3286_lig781-2

> <s_i_glide_gridfile>
glide-grid_1sqt

> <i_i_glide_lignum>
1053

> <i_i_glide_rotatable_bonds>
6

> <r_i_docking_score>
-7.0619297804293

> <r_i_glide_ligand_efficiency>
-0.320996808201332

> <r_i_glide_ligand_efficiency_sa>
-0.899445680668234

> <r_i_glide_ligand_efficiency_ln>
-1.72619322848439

> <r_i_glide_gscore>
-7.0619297804293

> <r_i_glide_lipo>
-2.92994363851863

> <r_i_glide_hbond>
-0.198635806904419

> <r_i_glide_metal>
0

> <r_i_glide_rewards>
-1.27917859090909

> <r_i_glide_evdw>
-33.3394889831543

> <r_i_glide_ecoul>
-11.6528167724609

> <r_i_glide_erotb>
0.760725220929697

> <r_i_glide_esite>
0

> <r_i_glide_emodel>
-62.8449673034335

> <r_i_glide_energy>
-44.9923057556152

> <r_i_glide_einternal>
4.32319831848145

> <i_i_glide_confnum>
12

> <i_i_glide_posenum>
304

> <r_i_glide_eff_state_penalty>
0

> <s_user_duplicate_titles>
CHEMBL3286_lig781,604230

> <i_f3d_flags>
0

> <s_m_subgroup_title>
dock_pv

> <s_m_subgroupid>
dock_pv

> <b_m_subgroup_collapsed>
1

$$$$
CHEMBL3286_lig923 
                    3D
 Schrodinger Suite 2021-1.
 36 38  0  0  1  0            999 V2000
   23.5363   15.2700   33.7716 C   0  0  0  0  0  0
   24.8017   15.7556   34.1355 C   0  0  0  0  0  0
   25.8912   14.9490   34.1473 N   0  0  0  0  0  0
   25.7307   13.6522   33.7870 C   0  0  0  0  0  0
   24.4670   13.1552   33.4198 C   0  0  0  0  0  0
   23.3765   13.9654   33.4173 N   0  0  0  0  0  0
   26.8850   12.8693   33.8021 N   0  0  0  0  0  0
   25.0188   17.0874   34.4728 N   0  0  0  0  0  0
   24.2057   11.7213   33.0638 C   0  0  0  0  0  0
   24.4644   10.8263   34.0917 N   0  0  0  0  0  0
   23.8272   11.3972   31.9351 O   0  0  0  0  0  0
   23.6431    9.8987   34.3958 C   0  0  0  0  0  0
   23.9256    8.9828   35.4203 N   0  0  0  0  0  0
   22.3851    9.6120   33.8201 N   0  0  0  0  0  0
   22.2929   16.0930   33.7048 C   0  0  0  0  0  0
   21.3991   15.7586   32.7261 O   0  0  0  0  0  0
   21.8451   17.1986   34.4245 C   0  0  0  0  0  0
   20.5982   17.5855   33.8470 C   0  0  0  0  0  0
   20.3772   16.6566   32.8060 C   0  0  0  0  0  0
   19.2514   16.6921   31.9781 C   0  0  0  0  0  0
   18.3238   17.7068   32.2216 C   0  0  0  0  0  0
   18.5218   18.6409   33.2418 C   0  0  0  0  0  0
   19.6457   18.5905   34.0687 C   0  0  0  0  0  0
   17.6064   19.6128   33.4364 F   0  0  0  0  0  0
   26.8390   11.9174   33.4658 H   0  0  0  0  0  0
   27.7699   13.3225   33.9745 H   0  0  0  0  0  0
   24.2687   17.7493   34.3417 H   0  0  0  0  0  0
   25.9648   17.3896   34.6495 H   0  0  0  0  0  0
   24.6994    9.2041   36.0273 H   0  0  0  0  0  0
   23.1423    8.6352   35.9562 H   0  0  0  0  0  0
   22.2345   10.0019   32.9013 H   0  0  0  0  0  0
   22.0984    8.6392   33.8249 H   0  0  0  0  0  0
   22.3513   17.6639   35.2565 H   0  0  0  0  0  0
   19.1230   15.9822   31.1767 H   0  0  0  0  0  0
   17.4414   17.7903   31.6029 H   0  0  0  0  0  0
   19.7727   19.3204   34.8548 H   0  0  0  0  0  0
  1  2  2  0  0  0
  1  6  1  0  0  0
  1 15  1  0  0  0
  2  3  1  0  0  0
  2  8  1  0  0  0
  3  4  2  0  0  0
  4  5  1  0  0  0
  4  7  1  0  0  0
  5  6  2  0  0  0
  5  9  1  0  0  0
  7 25  1  0  0  0
  7 26  1  0  0  0
  8 27  1  0  0  0
  8 28  1  0  0  0
  9 10  1  0  0  0
  9 11  2  0  0  0
 10 12  2  0  0  0
 12 14  1  0  0  0
 12 13  1  0  0  0
 13 30  1  0  0  0
 13 29  1  0  0  0
 14 32  1  0  0  0
 14 31  1  0  0  0
 15 16  1  0  0  0
 15 17  2  0  0  0
 16 19  1  0  0  0
 17 18  1  0  0  0
 17 33  1  0  0  0
 18 19  2  0  0  0
 18 23  1  0  0  0
 19 20  1  0  0  0
 20 21  2  0  0  0
 20 34  1  0  0  0
 21 22  1  0  0  0
 21 35  1  0  0  0
 22 23  2  0  0  0
 22 24  1  0  0  0
 23 36  1  0  0  0
M  END
> <s_m_entry_id>
42072

> <s_m_entry_name>
dock_pv.37

> <s_m_Source_Path>
/home/csk/Desktop/cluster/DUD-E-result/urok

> <s_m_Source_File>
dock_pv.maegz

> <i_m_Source_File_Index>
37

> <chembl_id>
CHEMBL4447661

> <chembl_pref_name>
None

> <i_lp_mmshare_version>
53161

> <r_lp_tautomer_probability>
0.499995

> <s_lp_Force_Field>
OPLS_2005

> <r_lp_Energy>
38.654338

> <b_lp_Chiralities_Consistent>
1

> <s_lp_Variant>
CHEMBL3286_lig923 -1

> <s_i_glide_gridfile>
glide-grid_1sqt

> <i_i_glide_lignum>
1231

> <i_i_glide_rotatable_bonds>
3

> <r_i_docking_score>
-7.05531436226221

> <r_i_glide_ligand_efficiency>
-0.293971431760925

> <r_i_glide_ligand_efficiency_sa>
-0.847960341381408

> <r_i_glide_ligand_efficiency_ln>
-1.68866047416978

> <r_i_glide_gscore>
-7.05531436226221

> <r_i_glide_lipo>
-2.73909987894139

> <r_i_glide_hbond>
-0.377255859195175

> <r_i_glide_metal>
0

> <r_i_glide_rewards>
-1.35945367627765

> <r_i_glide_evdw>
-39.2727432250977

> <r_i_glide_ecoul>
-6.979416847229

> <r_i_glide_erotb>
0.519948020356254

> <r_i_glide_esite>
-0.0889032798650188

> <r_i_glide_emodel>
-63.5164333774439

> <r_i_glide_energy>
-46.2521600723267

> <r_i_glide_einternal>
6.59651327133179

> <i_i_glide_confnum>
2

> <i_i_glide_posenum>
365

> <r_i_glide_eff_state_penalty>
0

> <s_user_duplicate_titles>
CHEMBL3286_lig923 

> <i_f3d_flags>
1

> <s_m_subgroup_title>
dock_pv

> <s_m_subgroupid>
dock_pv

> <b_m_subgroup_collapsed>
1

$$$$
CHEMBL3286_lig260
                    3D
 Schrodinger Suite 2021-1.
 33 35  0  0  1  0            999 V2000
   24.4962   15.4596   33.6555 C   0  0  0  0  0  0
   23.3332   15.3581   32.9077 C   0  0  0  0  0  0
   22.2695   16.2620   33.1204 C   0  0  0  0  0  0
   22.3875   17.2754   34.1224 C   0  0  0  0  0  0
   23.5905   17.3448   34.9075 C   0  0  0  0  0  0
   24.6222   16.4381   34.6311 C   0  0  0  0  0  0
   21.0911   16.1759   32.3514 C   0  0  0  0  0  0
   20.0508   17.0703   32.5572 C   0  0  0  0  0  0
   20.1169   18.0908   33.5171 C   0  0  0  0  0  0
   21.2871   18.1720   34.2943 C   0  0  0  0  0  0
   23.7180   18.3172   35.9225 N   0  0  0  0  0  0
   24.5863   18.5132   37.0070 C   0  0  0  0  0  0
   24.3240   19.6177   37.7495 N   0  0  0  0  0  0
   25.0806   19.8174   38.8597 C   0  0  0  0  0  0
   26.1022   18.9430   39.2315 C   0  0  0  0  0  0
   26.3141   17.8424   38.4004 C   0  0  0  0  0  0
   25.5626   17.6119   37.2920 N   0  0  0  0  0  0
   18.9682   19.0309   33.6788 C   0  0  0  0  0  0
   17.9247   18.9022   32.9923 N   0  0  0  0  0  0
   19.1238   20.0116   34.6200 N   0  0  0  0  0  0
   25.3140   14.7773   33.4753 H   0  0  0  0  0  0
   23.2421   14.5946   32.1483 H   0  0  0  0  0  0
   25.5576   16.4741   35.1629 H   0  0  0  0  0  0
   21.0040   15.4130   31.5911 H   0  0  0  0  0  0
   19.1731   16.9633   31.9345 H   0  0  0  0  0  0
   21.3710   18.9385   35.0496 H   0  0  0  0  0  0
   22.9880   19.0116   35.9030 H   0  0  0  0  0  0
   24.8479   20.6892   39.4539 H   0  0  0  0  0  0
   26.6970   19.1104   40.1187 H   0  0  0  0  0  0
   27.0866   17.1178   38.6161 H   0  0  0  0  0  0
   17.2459   19.6145   33.2242 H   0  0  0  0  0  0
   18.3454   20.6182   34.8436 H   0  0  0  0  0  0
   20.0286   20.2622   35.0063 H   0  0  0  0  0  0
  1  2  2  0  0  0
  1  6  1  0  0  0
  1 21  1  0  0  0
  2  3  1  0  0  0
  2 22  1  0  0  0
  3  4  2  0  0  0
  3  7  1  0  0  0
  4  5  1  0  0  0
  4 10  1  0  0  0
  5  6  2  0  0  0
  5 11  1  0  0  0
  6 23  1  0  0  0
  7  8  2  0  0  0
  7 24  1  0  0  0
  8  9  1  0  0  0
  8 25  1  0  0  0
  9 10  2  0  0  0
  9 18  1  0  0  0
 10 26  1  0  0  0
 11 12  1  0  0  0
 11 27  1  0  0  0
 12 13  1  0  0  0
 12 17  2  0  0  0
 13 14  2  0  0  0
 14 15  1  0  0  0
 14 28  1  0  0  0
 15 16  2  0  0  0
 15 29  1  0  0  0
 16 17  1  0  0  0
 16 30  1  0  0  0
 18 19  2  0  0  0
 18 20  1  0  0  0
 19 31  1  0  0  0
 20 32  1  0  0  0
 20 33  1  0  0  0
M  END
> <s_m_entry_id>
42073

> <s_m_entry_name>
dock_pv.38

> <s_m_Source_Path>
/home/csk/Desktop/cluster/DUD-E-result/urok

> <s_m_Source_File>
dock_pv.maegz

> <i_m_Source_File_Index>
38

> <chembl_id>
CHEMBL103043

> <chembl_pref_name>
None

> <i_lp_mmshare_version>
53161

> <r_lp_tautomer_probability>
0.999999987636

> <s_lp_Force_Field>
OPLS_2005

> <r_lp_Energy>
2.115852

> <b_lp_Chiralities_Consistent>
1

> <s_lp_Variant>
CHEMBL3286_lig260-1

> <s_i_glide_gridfile>
glide-grid_1sqt

> <i_i_glide_lignum>
353

> <i_i_glide_rotatable_bonds>
3

> <r_i_docking_score>
-7.04914846467685

> <r_i_glide_ligand_efficiency>
-0.352457423233843

> <r_i_glide_ligand_efficiency_sa>
-0.956716637770234

> <r_i_glide_ligand_efficiency_ln>
-1.76416936423196

> <r_i_glide_gscore>
-7.04914846467685

> <r_i_glide_lipo>
-2.21425606657977

> <r_i_glide_hbond>
-0.457267160389944

> <r_i_glide_metal>
0

> <r_i_glide_rewards>
-2.2635469885235

> <r_i_glide_evdw>
-33.5447807312012

> <r_i_glide_ecoul>
-6.32730674743652

> <r_i_glide_erotb>
0.512256799491897

> <r_i_glide_esite>
0

> <r_i_glide_emodel>
-56.4421745281372

> <r_i_glide_energy>
-39.8720874786377

> <r_i_glide_einternal>
0.622482717037201

> <i_i_glide_confnum>
6

> <i_i_glide_posenum>
302

> <r_i_glide_eff_state_penalty>
0

> <s_user_duplicate_titles>
CHEMBL3286_lig260,170203

> <i_f3d_flags>
0

> <s_m_subgroup_title>
dock_pv

> <s_m_subgroupid>
dock_pv

> <b_m_subgroup_collapsed>
1

$$$$
CHEMBL3286_lig540
                    3D
 Schrodinger Suite 2021-1.
 24 25  0  0  1  0            999 V2000
   20.1950   19.2120   34.0762 N   0  0  0  0  0  0
   20.8534   17.9855   33.8657 C   0  0  0  0  0  0
   18.8747   19.6709   33.8276 C   0  0  0  0  0  0
   20.1416   16.9769   33.3024 N   0  0  0  0  0  0
   22.2241   17.8431   34.2490 C   0  0  0  0  0  0
   22.8473   16.5747   34.0168 C   0  0  0  0  0  0
   22.0782   15.5355   33.4201 C   0  0  0  0  0  0
   20.7499   15.7906   33.0928 C   0  0  0  0  0  0
   17.9240   19.0236   33.3318 N   0  0  0  0  0  0
   18.7240   21.0085   34.2200 N   0  0  0  0  0  0
   22.7390   13.9659   33.1176 Cl  0  0  0  0  0  0
   22.9959   18.8823   34.8445 C   0  0  0  0  0  0
   24.2069   16.3985   34.3947 C   0  0  0  0  0  0
   24.9215   17.4349   34.9857 C   0  0  0  0  0  0
   24.3211   18.6668   35.2074 C   0  0  0  0  0  0
   20.7845   19.9101   34.5044 H   0  0  0  0  0  0
   20.1351   15.0191   32.6541 H   0  0  0  0  0  0
   17.0923   19.5960   33.2685 H   0  0  0  0  0  0
   17.7880   21.3543   34.4067 H   0  0  0  0  0  0
   19.3935   21.3894   34.8760 H   0  0  0  0  0  0
   22.5582   19.8524   35.0195 H   0  0  0  0  0  0
   24.6932   15.4488   34.2282 H   0  0  0  0  0  0
   25.9522   17.2815   35.2716 H   0  0  0  0  0  0
   24.8889   19.4638   35.6641 H   0  0  0  0  0  0
  1  2  1  0  0  0
  1  3  1  0  0  0
  1 16  1  0  0  0
  2  4  2  0  0  0
  2  5  1  0  0  0
  3  9  2  0  0  0
  3 10  1  0  0  0
  4  8  1  0  0  0
  5  6  2  0  0  0
  5 12  1  0  0  0
  6  7  1  0  0  0
  6 13  1  0  0  0
  7 11  1  0  0  0
  7  8  2  0  0  0
  8 17  1  0  0  0
  9 18  1  0  0  0
 10 19  1  0  0  0
 10 20  1  0  0  0
 12 15  2  0  0  0
 12 21  1  0  0  0
 13 14  2  0  0  0
 13 22  1  0  0  0
 14 15  1  0  0  0
 14 23  1  0  0  0
 15 24  1  0  0  0
M  END
> <s_m_entry_id>
42074

> <s_m_entry_name>
dock_pv.39

> <s_m_Source_Path>
/home/csk/Desktop/cluster/DUD-E-result/urok

> <s_m_Source_File>
dock_pv.maegz

> <i_m_Source_File_Index>
39

> <chembl_id>
CHEMBL326419

> <chembl_pref_name>
None

> <i_lp_mmshare_version>
53161

> <r_lp_tautomer_probability>
1

> <s_lp_Force_Field>
OPLS_2005

> <r_lp_Energy>
3.65339

> <b_lp_Chiralities_Consistent>
1

> <s_lp_Variant>
CHEMBL3286_lig540-1

> <s_i_glide_gridfile>
glide-grid_1sqt

> <i_i_glide_lignum>
704

> <i_i_glide_rotatable_bonds>
2

> <r_i_docking_score>
-7.03683474469366

> <r_i_glide_ligand_efficiency>
-0.46912231631291

> <r_i_glide_ligand_efficiency_sa>
-1.15695511978441

> <r_i_glide_ligand_efficiency_ln>
-1.89771830559413

> <r_i_glide_gscore>
-7.03683474469366

> <r_i_glide_lipo>
-1.6624347021755

> <r_i_glide_hbond>
-0.862784511597456

> <r_i_glide_metal>
0

> <r_i_glide_rewards>
-1.90460481818182

> <r_i_glide_evdw>
-27.1112537384033

> <r_i_glide_ecoul>
-10.1127519607544

> <r_i_glide_erotb>
0.346261702704865

> <r_i_glide_esite>
-0.0807969344104246

> <r_i_glide_emodel>
-52.7720113667454

> <r_i_glide_energy>
-37.2240056991577

> <r_i_glide_einternal>
0.707918703556061

> <i_i_glide_confnum>
2

> <i_i_glide_posenum>
147

> <r_i_glide_eff_state_penalty>
0

> <s_user_duplicate_titles>
CHEMBL3286_lig540,180900

> <i_f3d_flags>
0

> <s_m_subgroup_title>
dock_pv

> <s_m_subgroupid>
dock_pv

> <b_m_subgroup_collapsed>
1

$$$$
CHEMBL3286_lig927 
                    3D
 Schrodinger Suite 2021-1.
 30 31  0  0  1  0            999 V2000
   22.9577   17.3472   34.4242 C   0  0  0  0  0  0
   23.1006   16.0339   33.9495 C   0  0  0  0  0  0
   22.0528   15.3583   33.4200 N   0  0  0  0  0  0
   20.8550   15.9888   33.3476 C   0  0  0  0  0  0
   20.6980   17.3258   33.7627 C   0  0  0  0  0  0
   21.7623   17.9830   34.3047 N   0  0  0  0  0  0
   19.8081   15.2120   32.8665 N   0  0  0  0  0  0
   24.3166   15.3577   33.9696 N   0  0  0  0  0  0
   19.3881   18.0894   33.6572 C   0  0  0  0  0  0
   19.5104   19.4684   33.8229 N   0  0  0  0  0  0
   18.3240   17.5020   33.4201 O   0  0  0  0  0  0
   18.5300   20.2741   33.9380 C   0  0  0  0  0  0
   18.7240   21.6332   34.2200 N   0  0  0  0  0  0
   17.1547   20.0120   33.8200 N   0  0  0  0  0  0
   24.0204   18.1840   35.0652 C   0  0  0  0  0  0
   24.1026   19.5750   35.0609 C   0  0  0  0  0  0
   25.1847   20.0120   35.7523 O   0  0  0  0  0  0
   25.8131   18.9073   36.2186 C   0  0  0  0  0  0
   25.1294   17.7721   35.8203 C   0  0  0  0  0  0
   18.8798   15.6155   32.9308 H   0  0  0  0  0  0
   19.9637   14.2144   32.8014 H   0  0  0  0  0  0
   25.1487   15.8806   34.1965 H   0  0  0  0  0  0
   24.3721   14.4730   33.4884 H   0  0  0  0  0  0
   19.6358   21.8513   34.6051 H   0  0  0  0  0  0
   18.0022   22.0390   34.8103 H   0  0  0  0  0  0
   16.8450   19.1133   33.4937 H   0  0  0  0  0  0
   16.4786   20.4796   34.4221 H   0  0  0  0  0  0
   23.4777   20.3385   34.6201 H   0  0  0  0  0  0
   26.7021   19.0716   36.8096 H   0  0  0  0  0  0
   25.3990   16.7573   36.0714 H   0  0  0  0  0  0
  1  2  2  0  0  0
  1  6  1  0  0  0
  1 15  1  0  0  0
  2  3  1  0  0  0
  2  8  1  0  0  0
  3  4  2  0  0  0
  4  5  1  0  0  0
  4  7  1  0  0  0
  5  6  2  0  0  0
  5  9  1  0  0  0
  7 20  1  0  0  0
  7 21  1  0  0  0
  8 22  1  0  0  0
  8 23  1  0  0  0
  9 10  1  0  0  0
  9 11  2  0  0  0
 10 12  2  0  0  0
 12 14  1  0  0  0
 12 13  1  0  0  0
 13 25  1  0  0  0
 13 24  1  0  0  0
 14 27  1  0  0  0
 14 26  1  0  0  0
 15 16  2  0  0  0
 15 19  1  0  0  0
 16 17  1  0  0  0
 16 28  1  0  0  0
 17 18  1  0  0  0
 18 19  2  0  0  0
 18 29  1  0  0  0
 19 30  1  0  0  0
M  END
> <s_m_entry_id>
42075

> <s_m_entry_name>
dock_pv.40

> <s_m_Source_Path>
/home/csk/Desktop/cluster/DUD-E-result/urok

> <s_m_Source_File>
dock_pv.maegz

> <i_m_Source_File_Index>
40

> <chembl_id>
CHEMBL4438665

> <chembl_pref_name>
None

> <i_lp_mmshare_version>
53161

> <r_lp_tautomer_probability>
0.499995

> <s_lp_Force_Field>
OPLS_2005

> <r_lp_Energy>
33.588559

> <b_lp_Chiralities_Consistent>
1

> <s_lp_Variant>
CHEMBL3286_lig927 -1

> <s_i_glide_gridfile>
glide-grid_1sqt

> <i_i_glide_lignum>
1235

> <i_i_glide_rotatable_bonds>
3

> <r_i_docking_score>
-7.01945281957186

> <r_i_glide_ligand_efficiency>
-0.369444885240624

> <r_i_glide_ligand_efficiency_sa>
-0.985827339920403

> <r_i_glide_ligand_efficiency_ln>
-1.7795820537843

> <r_i_glide_gscore>
-7.01945281957186

> <r_i_glide_lipo>
-1.11858606092182

> <r_i_glide_hbond>
-1.48408913881892

> <r_i_glide_metal>
0

> <r_i_glide_rewards>
-2.07790881818182

> <r_i_glide_evdw>
-29.8500518798828

> <r_i_glide_ecoul>
-9.59405994415283

> <r_i_glide_erotb>
0.778846218807539

> <r_i_glide_esite>
-0.186103434839775

> <r_i_glide_emodel>
-55.5675069781526

> <r_i_glide_energy>
-39.4441118240356

> <r_i_glide_einternal>
2.59826040267944

> <i_i_glide_confnum>
2

> <i_i_glide_posenum>
227

> <r_i_glide_eff_state_penalty>
0

> <s_user_duplicate_titles>
CHEMBL3286_lig927 

> <i_f3d_flags>
1

> <s_m_subgroup_title>
dock_pv

> <s_m_subgroupid>
dock_pv

> <b_m_subgroup_collapsed>
1

$$$$
CHEMBL3286_lig536
                    3D
 Schrodinger Suite 2021-1.
 38 40  0  0  1  0            999 V2000
   19.8935   19.4842   33.8265 N   0  0  0  0  0  0
   20.2907   18.1415   33.6875 C   0  0  0  0  0  0
   18.6271   20.1227   33.8207 C   0  0  0  0  0  0
   21.6348   17.7691   34.0015 C   0  0  0  0  0  0
   21.9891   16.3909   33.8496 C   0  0  0  0  0  0
   19.3610   17.2487   33.2593 N   0  0  0  0  0  0
   23.3188   15.9736   34.1516 C   0  0  0  0  0  0
   23.7014   14.6590   34.0338 O   0  0  0  0  0  0
   17.5240   19.6120   33.5317 N   0  0  0  0  0  0
   18.7240   21.4615   34.2200 N   0  0  0  0  0  0
   24.1249   14.2799   32.7268 C   0  0  0  0  0  0
   19.7137   15.9525   33.1368 C   0  0  0  0  0  0
   24.2986   12.7674   32.6465 C   0  0  0  0  0  0
   22.6253   18.6806   34.4667 C   0  0  0  0  0  0
   20.9905   15.4798   33.4169 C   0  0  0  0  0  0
   23.9072   18.2375   34.7727 C   0  0  0  0  0  0
   24.2476   16.8997   34.6194 C   0  0  0  0  0  0
   25.3658   12.2278   31.9218 C   0  0  0  0  0  0
   23.3796   11.9162   33.2691 C   0  0  0  0  0  0
   23.5223   10.5348   33.1638 C   0  0  0  0  0  0
   25.5118   10.8459   31.8200 C   0  0  0  0  0  0
   24.5869   10.0061   32.4375 C   0  0  0  0  0  0
   20.6412   20.0859   34.1356 H   0  0  0  0  0  0
   16.7628   20.2657   33.6711 H   0  0  0  0  0  0
   17.8665   21.9002   34.5482 H   0  0  0  0  0  0
   19.4896   21.6940   34.8391 H   0  0  0  0  0  0
   23.4015   14.5820   31.9664 H   0  0  0  0  0  0
   25.0680   14.7806   32.4975 H   0  0  0  0  0  0
   18.9340   15.2769   32.8177 H   0  0  0  0  0  0
   22.3848   19.7260   34.5935 H   0  0  0  0  0  0
   21.2205   14.4293   33.3167 H   0  0  0  0  0  0
   24.6455   18.9384   35.1330 H   0  0  0  0  0  0
   25.2473   16.5723   34.8647 H   0  0  0  0  0  0
   26.0810   12.8742   31.4332 H   0  0  0  0  0  0
   22.5458   12.3260   33.8200 H   0  0  0  0  0  0
   22.8095    9.8739   33.6369 H   0  0  0  0  0  0
   26.3351   10.4266   31.2593 H   0  0  0  0  0  0
   24.6956    8.9343   32.3533 H   0  0  0  0  0  0
  1  2  1  0  0  0
  1  3  1  0  0  0
  1 23  1  0  0  0
  2  4  1  0  0  0
  2  6  2  0  0  0
  3  9  2  0  0  0
  3 10  1  0  0  0
  4  5  2  0  0  0
  4 14  1  0  0  0
  5  7  1  0  0  0
  5 15  1  0  0  0
  6 12  1  0  0  0
  7  8  1  0  0  0
  7 17  2  0  0  0
  8 11  1  0  0  0
  9 24  1  0  0  0
 10 25  1  0  0  0
 10 26  1  0  0  0
 11 13  1  0  0  0
 11 27  1  0  0  0
 11 28  1  0  0  0
 12 15  2  0  0  0
 12 29  1  0  0  0
 13 18  2  0  0  0
 13 19  1  0  0  0
 14 16  2  0  0  0
 14 30  1  0  0  0
 15 31  1  0  0  0
 16 17  1  0  0  0
 16 32  1  0  0  0
 17 33  1  0  0  0
 18 21  1  0  0  0
 18 34  1  0  0  0
 19 20  2  0  0  0
 19 35  1  0  0  0
 20 22  1  0  0  0
 20 36  1  0  0  0
 21 22  2  0  0  0
 21 37  1  0  0  0
 22 38  1  0  0  0
M  END
> <s_m_entry_id>
42076

> <s_m_entry_name>
dock_pv.41

> <s_m_Source_Path>
/home/csk/Desktop/cluster/DUD-E-result/urok

> <s_m_Source_File>
dock_pv.maegz

> <i_m_Source_File_Index>
41

> <chembl_id>
CHEMBL325094

> <chembl_pref_name>
None

> <i_lp_mmshare_version>
53161

> <r_lp_tautomer_probability>
1

> <s_lp_Force_Field>
OPLS_2005

> <r_lp_Energy>
13.544889

> <b_lp_Chiralities_Consistent>
1

> <s_lp_Variant>
CHEMBL3286_lig536-1

> <s_i_glide_gridfile>
glide-grid_1sqt

> <i_i_glide_lignum>
700

> <i_i_glide_rotatable_bonds>
5

> <r_i_docking_score>
-7.01762896746266

> <r_i_glide_ligand_efficiency>
-0.318983134884666

> <r_i_glide_ligand_efficiency_sa>
-0.89380328884166

> <r_i_glide_ligand_efficiency_ln>
-1.71536449388393

> <r_i_glide_gscore>
-7.01762896746266

> <r_i_glide_lipo>
-2.44823749938931

> <r_i_glide_hbond>
-0.546496801822361

> <r_i_glide_metal>
0

> <r_i_glide_rewards>
-1.41589677272727

> <r_i_glide_evdw>
-35.8196411132812

> <r_i_glide_ecoul>
-11.9956331253052

> <r_i_glide_erotb>
1.06806542883215

> <r_i_glide_esite>
-0.0847362978960317

> <r_i_glide_emodel>
-63.4803804882309

> <r_i_glide_energy>
-47.8152742385864

> <r_i_glide_einternal>
8.0007152557373

> <i_i_glide_confnum>
48

> <i_i_glide_posenum>
29

> <r_i_glide_eff_state_penalty>
0

> <s_user_duplicate_titles>
CHEMBL3286_lig536

> <i_f3d_flags>
0

> <s_m_subgroup_title>
dock_pv

> <s_m_subgroupid>
dock_pv

> <b_m_subgroup_collapsed>
1

$$$$
CHEMBL3286_lig781
                    3D
 Schrodinger Suite 2021-1.
 38 40  0  0  1  0            999 V2000
   22.7928   15.3787   31.6584 C   0  0  0  0  0  0
   23.1256   15.2446   30.3177 C   0  0  0  0  0  0
   23.9238   16.1836   29.6754 C   0  0  0  0  0  0
   23.2422   16.4660   32.4056 C   0  0  0  0  0  0
   24.1503   17.3800   31.8199 C   0  0  0  0  0  0
   24.4473   17.2428   30.4318 C   0  0  0  0  0  0
   25.4937   18.5395   29.8664 S   0  0  0  0  0  0
   25.6093   19.2006   31.4913 C   0  0  0  0  0  0
   24.8687   18.4630   32.3976 C   0  0  0  0  0  0
   26.4079   20.3896   31.7969 C   0  0  0  0  0  0
   27.6204   20.4151   31.1549 N   0  0  0  0  0  0
   25.9246   21.2128   32.6201 N   0  0  0  0  0  0
   22.8283   16.6202   33.7149 O   0  0  0  0  0  0
   22.1747   17.8593   34.0618 C   0  0  2  0  0  0
   22.3464   18.1127   35.5650 C   0  0  0  0  0  0
   20.7072   17.9008   33.6237 C   0  0  0  0  0  0
   20.0647   16.7721   33.1086 C   0  0  0  0  0  0
   18.7833   16.8776   32.5863 C   0  0  0  0  0  0
   18.1200   18.1000   32.6200 C   0  0  0  0  0  0
   18.7143   19.2114   33.2074 C   0  0  0  0  0  0
   20.0126   19.1148   33.6959 C   0  0  0  0  0  0
   23.7039   18.3110   35.9156 O   0  0  0  0  0  0
   22.1511   14.6426   32.1185 H   0  0  0  0  0  0
   22.7288   14.4176   29.7484 H   0  0  0  0  0  0
   24.1325   16.0778   28.6201 H   0  0  0  0  0  0
   24.8240   18.6913   33.4527 H   0  0  0  0  0  0
   28.2424   21.1986   31.2755 H   0  0  0  0  0  0
   27.8370   19.7242   30.4515 H   0  0  0  0  0  0
   24.9913   20.9041   32.8686 H   0  0  0  0  0  0
   22.6231   18.7052   33.5440 H   0  0  0  0  0  0
   21.8072   19.0232   35.8201 H   0  0  0  0  0  0
   21.9253   17.2965   36.1529 H   0  0  0  0  0  0
   20.5570   15.8146   33.0833 H   0  0  0  0  0  0
   18.3216   16.0121   32.1467 H   0  0  0  0  0  0
   17.1246   18.1831   32.2076 H   0  0  0  0  0  0
   18.1845   20.1525   33.2571 H   0  0  0  0  0  0
   20.4845   19.9984   34.1018 H   0  0  0  0  0  0
   23.7529   18.4685   36.8621 H   0  0  0  0  0  0
  1  2  2  0  0  0
  1  4  1  0  0  0
  1 23  1  0  0  0
  2  3  1  0  0  0
  2 24  1  0  0  0
  3  6  2  0  0  0
  3 25  1  0  0  0
  4 13  1  0  0  0
  4  5  2  0  0  0
  5  6  1  0  0  0
  5  9  1  0  0  0
  6  7  1  0  0  0
  7  8  1  0  0  0
  8  9  2  0  0  0
  8 10  1  0  0  0
  9 26  1  0  0  0
 10 11  1  0  0  0
 10 12  2  0  0  0
 11 27  1  0  0  0
 11 28  1  0  0  0
 12 29  1  0  0  0
 13 14  1  0  0  0
 14 15  1  0  0  0
 14 16  1  0  0  0
 14 30  1  0  0  0
 15 22  1  0  0  0
 15 31  1  0  0  0
 15 32  1  0  0  0
 16 17  2  0  0  0
 16 21  1  0  0  0
 17 18  1  0  0  0
 17 33  1  0  0  0
 18 19  2  0  0  0
 18 34  1  0  0  0
 19 20  1  0  0  0
 19 35  1  0  0  0
 20 21  2  0  0  0
 20 36  1  0  0  0
 21 37  1  0  0  0
 22 38  1  0  0  0
M  END
> <s_m_entry_id>
42077

> <s_m_entry_name>
dock_pv.42

> <s_m_Source_Path>
/home/csk/Desktop/cluster/DUD-E-result/urok

> <s_m_Source_File>
dock_pv.maegz

> <i_m_Source_File_Index>
42

> <chembl_id>
CHEMBL597571

> <chembl_pref_name>
None

> <i_lp_mmshare_version>
53161

> <r_lp_tautomer_probability>
1

> <s_lp_Force_Field>
OPLS_2005

> <r_lp_Energy>
19.2302

> <b_lp_Chiralities_Consistent>
1

> <s_lp_Variant>
CHEMBL3286_lig781-1

> <s_i_glide_gridfile>
glide-grid_1sqt

> <i_i_glide_lignum>
1052

> <i_i_glide_rotatable_bonds>
6

> <r_i_docking_score>
-7.00950392291761

> <r_i_glide_ligand_efficiency>
-0.318613814678073

> <r_i_glide_ligand_efficiency_sa>
-0.892768439098246

> <r_i_glide_ligand_efficiency_ln>
-1.71337843662892

> <r_i_glide_gscore>
-7.00950392291761

> <r_i_glide_lipo>
-3.26886387415142

> <r_i_glide_hbond>
-0.18446728601031

> <r_i_glide_metal>
0

> <r_i_glide_rewards>
-1.27917859090909

> <r_i_glide_evdw>
-35.7138938903809

> <r_i_glide_ecoul>
-8.34683132171631

> <r_i_glide_erotb>
0.760725220929697

> <r_i_glide_esite>
0

> <r_i_glide_emodel>
-57.7643533509384

> <r_i_glide_energy>
-44.0607252120972

> <r_i_glide_einternal>
10.3397951126099

> <i_i_glide_confnum>
29

> <i_i_glide_posenum>
283

> <r_i_glide_eff_state_penalty>
0

> <s_user_duplicate_titles>
CHEMBL3286_lig781

> <i_f3d_flags>
0

> <s_m_subgroup_title>
dock_pv

> <s_m_subgroupid>
dock_pv

> <b_m_subgroup_collapsed>
1

$$$$
CHEMBL3286_lig17
                    3D
 Schrodinger Suite 2021-1.
 50 52  0  0  1  0            999 V2000
   23.7233   14.5785   31.4633 C   0  0  0  0  0  0
   25.4432   13.9233   31.3421 P   0  0  0  0  0  0
   25.9252   13.4437   30.0184 O   0  0  0  0  0  0
   23.1924   14.5714   32.9119 C   0  0  0  0  0  0
   25.4946   12.8082   32.5363 O   0  0  0  0  0  0
   26.2913   15.1669   31.9674 O   0  0  0  0  0  0
   26.5091   16.3304   31.2801 C   0  0  0  0  0  0
   25.0529   11.5165   32.4139 C   0  0  0  0  0  0
   25.6687   10.6284   31.5277 C   0  0  0  0  0  0
   25.2016    9.3196   31.4203 C   0  0  0  0  0  0
   24.1332    8.9014   32.2123 C   0  0  0  0  0  0
   23.5341    9.7742   33.1183 C   0  0  0  0  0  0
   24.0018   11.0821   33.2228 C   0  0  0  0  0  0
   25.7618   17.4672   31.6001 C   0  0  0  0  0  0
   25.9667   18.6542   30.8997 C   0  0  0  0  0  0
   26.9327   18.7020   29.8940 C   0  0  0  0  0  0
   27.6967   17.5756   29.5872 C   0  0  0  0  0  0
   27.4821   16.3854   30.2808 C   0  0  0  0  0  0
   22.3407   15.7816   33.2434 C   0  0  0  0  0  0
   22.7447   16.6490   34.2577 C   0  0  0  0  0  0
   21.9811   17.7704   34.5529 C   0  0  0  0  0  0
   20.8153   18.0369   33.8367 C   0  0  0  0  0  0
   20.4073   17.1585   32.8266 C   0  0  0  0  0  0
   21.1662   16.0300   32.5334 C   0  0  0  0  0  0
   20.1339   19.2120   34.1648 N   0  0  0  0  0  0
   18.8512   19.7039   33.8311 C   0  0  0  0  0  0
   18.7240   21.0443   34.2198 N   0  0  0  0  0  0
   17.9240   19.0688   33.2786 N   0  0  0  0  0  0
   23.0601   14.0129   30.8163 H   0  0  0  0  0  0
   23.7305   15.5858   31.0461 H   0  0  0  0  0  0
   24.0175   14.5245   33.6239 H   0  0  0  0  0  0
   22.5964   13.6757   33.0860 H   0  0  0  0  0  0
   26.4970   10.9598   30.9174 H   0  0  0  0  0  0
   25.6632    8.6347   30.7239 H   0  0  0  0  0  0
   23.7662    7.8894   32.1292 H   0  0  0  0  0  0
   22.7154    9.4315   33.7351 H   0  0  0  0  0  0
   23.5498   11.7594   33.9307 H   0  0  0  0  0  0
   25.0191   17.4207   32.3827 H   0  0  0  0  0  0
   25.3785   19.5309   31.1337 H   0  0  0  0  0  0
   27.0996   19.6201   29.3479 H   0  0  0  0  0  0
   28.4422   17.6246   28.8062 H   0  0  0  0  0  0
   28.0605   15.5045   30.0419 H   0  0  0  0  0  0
   23.6512   16.4643   34.8134 H   0  0  0  0  0  0
   22.3058   18.4402   35.3370 H   0  0  0  0  0  0
   19.5150   17.3509   32.2510 H   0  0  0  0  0  0
   20.8500   15.3637   31.7450 H   0  0  0  0  0  0
   20.7263   19.9088   34.5969 H   0  0  0  0  0  0
   17.7907   21.4069   34.3921 H   0  0  0  0  0  0
   19.3739   21.4027   34.9061 H   0  0  0  0  0  0
   17.1012   19.6444   33.1701 H   0  0  0  0  0  0
  1  2  1  0  0  0
  1  4  1  0  0  0
  1 29  1  0  0  0
  1 30  1  0  0  0
  2  3  2  0  0  0
  2  5  1  0  0  0
  2  6  1  0  0  0
  4 19  1  0  0  0
  4 31  1  0  0  0
  4 32  1  0  0  0
  5  8  1  0  0  0
  6  7  1  0  0  0
  7 14  2  0  0  0
  7 18  1  0  0  0
  8  9  2  0  0  0
  8 13  1  0  0  0
  9 10  1  0  0  0
  9 33  1  0  0  0
 10 11  2  0  0  0
 10 34  1  0  0  0
 11 12  1  0  0  0
 11 35  1  0  0  0
 12 13  2  0  0  0
 12 36  1  0  0  0
 13 37  1  0  0  0
 14 15  1  0  0  0
 14 38  1  0  0  0
 15 16  2  0  0  0
 15 39  1  0  0  0
 16 17  1  0  0  0
 16 40  1  0  0  0
 17 18  2  0  0  0
 17 41  1  0  0  0
 18 42  1  0  0  0
 19 20  2  0  0  0
 19 24  1  0  0  0
 20 21  1  0  0  0
 20 43  1  0  0  0
 21 22  2  0  0  0
 21 44  1  0  0  0
 22 23  1  0  0  0
 22 25  1  0  0  0
 23 24  2  0  0  0
 23 45  1  0  0  0
 24 46  1  0  0  0
 25 26  1  0  0  0
 25 47  1  0  0  0
 26 27  1  0  0  0
 26 28  2  0  0  0
 27 48  1  0  0  0
 27 49  1  0  0  0
 28 50  1  0  0  0
M  END
> <s_m_entry_id>
42078

> <s_m_entry_name>
dock_pv.43

> <s_m_Source_Path>
/home/csk/Desktop/cluster/DUD-E-result/urok

> <s_m_Source_File>
dock_pv.maegz

> <i_m_Source_File_Index>
43

> <chembl_id>
CHEMBL3770794

> <chembl_pref_name>
None

> <i_lp_mmshare_version>
53161

> <r_lp_tautomer_probability>
1

> <s_lp_Force_Field>
OPLS_2005

> <r_lp_Energy>
4.162703

> <b_lp_Chiralities_Consistent>
1

> <s_lp_Variant>
CHEMBL3286_lig17-1

> <s_i_glide_gridfile>
glide-grid_1sqt

> <i_i_glide_lignum>
20

> <i_i_glide_rotatable_bonds>
9

> <r_i_docking_score>
-6.99670339173143

> <r_i_glide_ligand_efficiency>
-0.249882263990408

> <r_i_glide_ligand_efficiency_sa>
-0.758789726257783

> <r_i_glide_ligand_efficiency_ln>
-1.61504457494978

> <r_i_glide_gscore>
-6.99670339173143

> <r_i_glide_lipo>
-2.68397942457668

> <r_i_glide_hbond>
-0.844987778952309

> <r_i_glide_metal>
0

> <r_i_glide_rewards>
-0.713009131233045

> <r_i_glide_evdw>
-40.6627998352051

> <r_i_glide_ecoul>
-10.1049451828003

> <r_i_glide_erotb>
0.875564941190162

> <r_i_glide_esite>
-0.0814102289792624

> <r_i_glide_emodel>
-67.9668796163336

> <r_i_glide_energy>
-50.7677450180054

> <r_i_glide_einternal>
8.6040620803833

> <i_i_glide_confnum>
6

> <i_i_glide_posenum>
50

> <r_i_glide_eff_state_penalty>
0

> <s_user_duplicate_titles>
CHEMBL3286_lig17

> <i_f3d_flags>
0

> <s_m_subgroup_title>
dock_pv

> <s_m_subgroupid>
dock_pv

> <b_m_subgroup_collapsed>
1

$$$$
CHEMBL3286_lig888
                    3D
 Schrodinger Suite 2021-1.
 49 51  0  0  1  0            999 V2000
   22.9986   17.3401   34.1977 C   0  0  0  0  0  0
   23.1126   15.9809   33.8109 C   0  0  0  0  0  0
   21.9778   15.3299   33.4201 N   0  0  0  0  0  0
   20.7992   15.9873   33.3628 C   0  0  0  0  0  0
   20.7048   17.3493   33.6870 C   0  0  0  0  0  0
   21.8190   18.0083   34.1074 N   0  0  0  0  0  0
   19.7046   15.2120   33.0025 N   0  0  0  0  0  0
   24.2957   15.1882   33.8871 N   0  0  0  0  0  0
   19.3984   18.1234   33.6293 C   0  0  0  0  0  0
   19.5239   19.4972   33.8200 N   0  0  0  0  0  0
   18.3240   17.5418   33.4195 O   0  0  0  0  0  0
   18.5376   20.2941   33.9378 C   0  0  0  0  0  0
   18.7240   21.6536   34.2200 N   0  0  0  0  0  0
   17.1651   20.0120   33.8200 N   0  0  0  0  0  0
   24.2843   13.7910   33.4200 C   0  0  0  0  0  0
   23.9905   13.4870   31.9317 C   0  0  0  0  0  0
   25.6107   15.7716   33.5814 C   0  0  0  0  0  0
   24.3852   14.5470   30.8814 C   0  0  0  0  0  0
   25.8507   16.2600   32.1390 C   0  0  0  0  0  0
   25.7788   15.1740   31.0496 C   0  0  0  0  0  0
   24.0711   18.1674   34.7892 C   0  0  0  0  0  0
   24.4155   18.0122   36.1353 C   0  0  0  0  0  0
   25.4795   18.7307   36.6724 C   0  0  0  0  0  0
   26.2074   19.5935   35.8567 C   0  0  0  0  0  0
   25.8636   19.7615   34.5165 C   0  0  0  0  0  0
   24.7804   19.0675   33.9901 C   0  0  0  0  0  0
   18.7942   15.6561   33.0694 H   0  0  0  0  0  0
   19.8143   14.2072   33.0125 H   0  0  0  0  0  0
   19.6352   21.8744   34.6054 H   0  0  0  0  0  0
   18.0007   22.0528   34.8131 H   0  0  0  0  0  0
   16.8732   19.1056   33.4982 H   0  0  0  0  0  0
   16.4823   20.4684   34.4234 H   0  0  0  0  0  0
   25.1270   13.2253   33.8201 H   0  0  0  0  0  0
   23.4567   13.3339   33.9650 H   0  0  0  0  0  0
   24.4800   12.5451   31.6823 H   0  0  0  0  0  0
   22.9257   13.2866   31.8202 H   0  0  0  0  0  0
   25.8128   16.6029   34.2456 H   0  0  0  0  0  0
   26.3879   15.0720   33.8935 H   0  0  0  0  0  0
   24.3254   14.0877   29.8935 H   0  0  0  0  0  0
   23.6361   15.3407   30.8692 H   0  0  0  0  0  0
   25.1725   17.0806   31.9038 H   0  0  0  0  0  0
   26.8462   16.7041   32.1016 H   0  0  0  0  0  0
   26.0689   15.6267   30.1002 H   0  0  0  0  0  0
   26.5184   14.3957   31.2425 H   0  0  0  0  0  0
   23.8663   17.3242   36.7609 H   0  0  0  0  0  0
   25.7506   18.6024   37.7101 H   0  0  0  0  0  0
   27.0525   20.1257   36.2674 H   0  0  0  0  0  0
   26.4406   20.4120   33.8783 H   0  0  0  0  0  0
   24.5158   19.1960   32.9498 H   0  0  0  0  0  0
  1  2  2  0  0  0
  1  6  1  0  0  0
  1 21  1  0  0  0
  2  3  1  0  0  0
  2  8  1  0  0  0
  3  4  2  0  0  0
  4  5  1  0  0  0
  4  7  1  0  0  0
  5  6  2  0  0  0
  5  9  1  0  0  0
  7 27  1  0  0  0
  7 28  1  0  0  0
  8 15  1  0  0  0
  8 17  1  0  0  0
  9 10  1  0  0  0
  9 11  2  0  0  0
 10 12  2  0  0  0
 12 14  1  0  0  0
 12 13  1  0  0  0
 13 30  1  0  0  0
 13 29  1  0  0  0
 14 32  1  0  0  0
 14 31  1  0  0  0
 15 16  1  0  0  0
 15 33  1  0  0  0
 15 34  1  0  0  0
 16 18  1  0  0  0
 16 35  1  0  0  0
 16 36  1  0  0  0
 17 19  1  0  0  0
 17 37  1  0  0  0
 17 38  1  0  0  0
 18 20  1  0  0  0
 18 39  1  0  0  0
 18 40  1  0  0  0
 19 20  1  0  0  0
 19 41  1  0  0  0
 19 42  1  0  0  0
 20 43  1  0  0  0
 20 44  1  0  0  0
 21 22  2  0  0  0
 21 26  1  0  0  0
 22 23  1  0  0  0
 22 45  1  0  0  0
 23 24  2  0  0  0
 23 46  1  0  0  0
 24 25  1  0  0  0
 24 47  1  0  0  0
 25 26  2  0  0  0
 25 48  1  0  0  0
 26 49  1  0  0  0
M  END
> <s_m_entry_id>
42079

> <s_m_entry_name>
dock_pv.44

> <s_m_Source_Path>
/home/csk/Desktop/cluster/DUD-E-result/urok

> <s_m_Source_File>
dock_pv.maegz

> <i_m_Source_File_Index>
44

> <chembl_id>
CHEMBL4207379

> <chembl_pref_name>
None

> <i_lp_mmshare_version>
53161

> <r_lp_tautomer_probability>
0.499994999999877

> <s_lp_Force_Field>
OPLS_2005

> <r_lp_Energy>
56.554242

> <b_lp_Chiralities_Consistent>
1

> <s_lp_Variant>
CHEMBL3286_lig888-1

> <s_i_glide_gridfile>
glide-grid_1sqt

> <i_i_glide_lignum>
1196

> <i_i_glide_rotatable_bonds>
4

> <r_i_docking_score>
-6.98969713455514

> <r_i_glide_ligand_efficiency>
-0.268834505175198

> <r_i_glide_ligand_efficiency_sa>
-0.796421163768825

> <r_i_glide_ligand_efficiency_ln>
-1.64150743698331

> <r_i_glide_gscore>
-6.98969713455514

> <r_i_glide_lipo>
-1.34489943102653

> <r_i_glide_hbond>
-1.42944042309144

> <r_i_glide_metal>
0

> <r_i_glide_rewards>
-1.62788699117318

> <r_i_glide_evdw>
-36.0724868774414

> <r_i_glide_ecoul>
-8.06085968017578

> <r_i_glide_erotb>
0.611548572609462

> <r_i_glide_esite>
-0.186265565975015

> <r_i_glide_emodel>
-59.7241161092763

> <r_i_glide_energy>
-44.1333465576172

> <r_i_glide_einternal>
3.3036572933197

> <i_i_glide_confnum>
152

> <i_i_glide_posenum>
13

> <r_i_glide_eff_state_penalty>
0

> <s_user_duplicate_titles>
CHEMBL3286_lig888

> <i_f3d_flags>
1

> <s_m_subgroup_title>
dock_pv

> <s_m_subgroupid>
dock_pv

> <b_m_subgroup_collapsed>
1

$$$$
CHEMBL3286_lig730
                    3D
 Schrodinger Suite 2021-1.
 35 36  0  0  1  0            999 V2000
   25.2484   19.6666   34.3668 C   0  0  0  0  0  0
   23.7665   19.5735   34.7741 C   0  0  0  0  0  0
   26.1488   19.3389   35.1308 O   0  0  0  0  0  0
   25.5243   20.1793   33.1669 N   0  0  0  0  0  0
   23.4828   18.3569   35.4753 O   0  0  0  0  0  0
   23.1850   17.2785   34.6715 C   0  0  0  0  0  0
   24.1490   16.2729   34.5171 C   0  0  0  0  0  0
   23.8848   15.1860   33.6765 C   0  0  0  0  0  0
   22.6876   15.0932   32.9789 C   0  0  0  0  0  0
   21.6973   16.0869   33.1237 C   0  0  0  0  0  0
   20.4809   16.0132   32.4157 C   0  0  0  0  0  0
   19.5187   16.9997   32.5617 C   0  0  0  0  0  0
   19.7021   18.1068   33.4069 C   0  0  0  0  0  0
   20.9060   18.1758   34.1334 C   0  0  0  0  0  0
   21.9306   17.1924   33.9934 C   0  0  0  0  0  0
   25.3270   16.4108   35.2251 O   0  0  0  0  0  0
   26.4619   15.6365   34.8494 C   0  0  0  0  0  0
   18.6481   19.1572   33.4877 C   0  0  0  0  0  0
   18.7244   20.0123   34.5606 N   0  0  0  0  0  0
   17.7433   19.2119   32.6203 N   0  0  0  0  0  0
   23.5258   20.4125   35.4237 H   0  0  0  0  0  0
   23.1302   19.7019   33.8969 H   0  0  0  0  0  0
   26.4827   20.2020   32.8496 H   0  0  0  0  0  0
   24.7708   20.4110   32.5315 H   0  0  0  0  0  0
   24.6111   14.3994   33.5430 H   0  0  0  0  0  0
   22.5089   14.2515   32.3252 H   0  0  0  0  0  0
   20.3028   15.1936   31.7373 H   0  0  0  0  0  0
   18.6114   16.8845   31.9860 H   0  0  0  0  0  0
   21.0883   19.0030   34.8043 H   0  0  0  0  0  0
   27.3169   15.9446   35.4517 H   0  0  0  0  0  0
   26.3029   14.5726   35.0200 H   0  0  0  0  0  0
   26.7215   15.7952   33.7990 H   0  0  0  0  0  0
   17.9768   20.6832   34.7087 H   0  0  0  0  0  0
   19.5890   20.1474   35.0665 H   0  0  0  0  0  0
   17.8505   18.5292   31.8877 H   0  0  0  0  0  0
  1  2  1  0  0  0
  1  3  2  0  0  0
  1  4  1  0  0  0
  2  5  1  0  0  0
  2 21  1  0  0  0
  2 22  1  0  0  0
  4 23  1  0  0  0
  4 24  1  0  0  0
  5  6  1  0  0  0
  6  7  1  0  0  0
  6 15  2  0  0  0
  7  8  2  0  0  0
  7 16  1  0  0  0
  8  9  1  0  0  0
  8 25  1  0  0  0
  9 10  2  0  0  0
  9 26  1  0  0  0
 10 11  1  0  0  0
 10 15  1  0  0  0
 11 12  2  0  0  0
 11 27  1  0  0  0
 12 13  1  0  0  0
 12 28  1  0  0  0
 13 14  2  0  0  0
 13 18  1  0  0  0
 14 15  1  0  0  0
 14 29  1  0  0  0
 16 17  1  0  0  0
 17 30  1  0  0  0
 17 31  1  0  0  0
 17 32  1  0  0  0
 18 19  1  0  0  0
 18 20  2  0  0  0
 19 33  1  0  0  0
 19 34  1  0  0  0
 20 35  1  0  0  0
M  END
> <s_m_entry_id>
42080

> <s_m_entry_name>
dock_pv.45

> <s_m_Source_Path>
/home/csk/Desktop/cluster/DUD-E-result/urok

> <s_m_Source_File>
dock_pv.maegz

> <i_m_Source_File_Index>
45

> <chembl_id>
CHEMBL540173

> <chembl_pref_name>
None

> <i_lp_mmshare_version>
53161

> <r_lp_tautomer_probability>
1

> <s_lp_Force_Field>
OPLS_2005

> <r_lp_Energy>
19.165501

> <b_lp_Chiralities_Consistent>
1

> <s_lp_Variant>
CHEMBL3286_lig730-1

> <s_i_glide_gridfile>
glide-grid_1sqt

> <i_i_glide_lignum>
980

> <i_i_glide_rotatable_bonds>
5

> <r_i_docking_score>
-6.98251623322585

> <r_i_glide_ligand_efficiency>
-0.349125811661292

> <r_i_glide_ligand_efficiency_sa>
-0.947673252635082

> <r_i_glide_ligand_efficiency_ln>
-1.74749351437785

> <r_i_glide_gscore>
-6.98251623322585

> <r_i_glide_lipo>
-2.18291005387035

> <r_i_glide_hbond>
-0.57163585130604

> <r_i_glide_metal>
0

> <r_i_glide_rewards>
-1.90132826358764

> <r_i_glide_evdw>
-32.731372833252

> <r_i_glide_ecoul>
-7.00669622421265

> <r_i_glide_erotb>
0.480323340260435

> <r_i_glide_esite>
-0.119392329427757

> <r_i_glide_emodel>
-55.6845686115226

> <r_i_glide_energy>
-39.7380690574646

> <r_i_glide_einternal>
2.16812229156494

> <i_i_glide_confnum>
6

> <i_i_glide_posenum>
184

> <r_i_glide_eff_state_penalty>
0

> <s_user_duplicate_titles>
CHEMBL3286_lig730,557716

> <i_f3d_flags>
0

> <s_m_subgroup_title>
dock_pv

> <s_m_subgroupid>
dock_pv

> <b_m_subgroup_collapsed>
1

$$$$
CHEMBL3286_lig761
                    3D
 Schrodinger Suite 2021-1.
 45 46  0  0  1  0            999 V2000
   24.8640   13.7102   31.9525 C   0  0  0  0  0  0
   23.7451   13.4169   32.7372 C   0  0  0  0  0  0
   22.8337   14.4352   33.0194 C   0  0  0  0  0  0
   22.9895   15.7419   32.5418 C   0  0  0  0  0  0
   24.1450   16.0578   31.7495 C   0  0  0  0  0  0
   24.4231   17.3635   31.2314 C   0  0  0  0  0  0
   25.5799   17.6617   30.4836 C   0  0  0  0  0  0
   26.4580   16.5952   30.2211 C   0  0  0  0  0  0
   26.2265   15.3089   30.6876 C   0  0  0  0  0  0
   25.0844   15.0191   31.4617 C   0  0  0  0  0  0
   23.5086   12.0425   33.2875 C   0  0  0  0  0  0
   22.7267   11.8100   34.2144 O   0  0  0  0  0  0
   24.1570   11.0752   32.5965 O   0  0  0  0  0  0
   21.9428   16.7496   32.8498 C   0  0  0  0  0  0
   20.6374   16.4995   33.0948 C   0  0  0  0  0  0
   19.5471   17.5202   33.4181 C   0  0  1  0  0  0
   20.0535   18.9790   33.5718 C   0  0  0  0  0  0
   19.0001   19.9875   34.0642 C   0  0  0  0  0  0
   18.3868   17.4085   32.4063 C   0  0  0  0  0  0
   25.8602   19.0560   30.0026 C   0  0  0  0  0  0
   27.0448   19.2056   29.3240 N   0  0  0  0  0  0
   25.0640   20.0082   30.2237 N   0  0  0  0  0  0
   23.9849    9.7032   32.9298 C   0  0  0  0  0  0
   25.5934   12.9472   31.7211 H   0  0  0  0  0  0
   21.9665   14.1998   33.6190 H   0  0  0  0  0  0
   23.7154   18.1515   31.4368 H   0  0  0  0  0  0
   27.3623   16.7386   29.6467 H   0  0  0  0  0  0
   26.9333   14.5215   30.4639 H   0  0  0  0  0  0
   22.2766   17.7714   32.9051 H   0  0  0  0  0  0
   20.2822   15.4803   33.0538 H   0  0  0  0  0  0
   19.1552   17.2194   34.3925 H   0  0  0  0  0  0
   20.4636   19.3116   32.6211 H   0  0  0  0  0  0
   20.8804   18.9999   34.2850 H   0  0  0  0  0  0
   19.4452   20.9706   34.2166 H   0  0  0  0  0  0
   18.5765   19.6783   35.0186 H   0  0  0  0  0  0
   18.1834   20.1154   33.3560 H   0  0  0  0  0  0
   17.9435   16.4119   32.4166 H   0  0  0  0  0  0
   17.5769   18.1055   32.6199 H   0  0  0  0  0  0
   18.7279   17.6097   31.3914 H   0  0  0  0  0  0
   27.3086   20.1132   28.9572 H   0  0  0  0  0  0
   27.6498   18.4232   29.1455 H   0  0  0  0  0  0
   24.2544   19.7467   30.7629 H   0  0  0  0  0  0
   24.5839    9.0822   32.2629 H   0  0  0  0  0  0
   24.3015    9.5062   33.9562 H   0  0  0  0  0  0
   22.9407    9.4032   32.8270 H   0  0  0  0  0  0
  1  2  1  0  0  0
  1 10  2  0  0  0
  1 24  1  0  0  0
  2  3  2  0  0  0
  2 11  1  0  0  0
  3  4  1  0  0  0
  3 25  1  0  0  0
  4  5  2  0  0  0
  4 14  1  0  0  0
  5  6  1  0  0  0
  5 10  1  0  0  0
  6  7  2  0  0  0
  6 26  1  0  0  0
  7  8  1  0  0  0
  7 20  1  0  0  0
  8  9  2  0  0  0
  8 27  1  0  0  0
  9 10  1  0  0  0
  9 28  1  0  0  0
 11 12  2  0  0  0
 11 13  1  0  0  0
 13 23  1  0  0  0
 14 15  2  0  0  0
 14 29  1  0  0  0
 15 16  1  0  0  0
 15 30  1  0  0  0
 16 17  1  0  0  0
 16 19  1  0  0  0
 16 31  1  0  0  0
 17 18  1  0  0  0
 17 32  1  0  0  0
 17 33  1  0  0  0
 18 34  1  0  0  0
 18 35  1  0  0  0
 18 36  1  0  0  0
 19 37  1  0  0  0
 19 38  1  0  0  0
 19 39  1  0  0  0
 20 21  1  0  0  0
 20 22  2  0  0  0
 21 40  1  0  0  0
 21 41  1  0  0  0
 22 42  1  0  0  0
 23 43  1  0  0  0
 23 44  1  0  0  0
 23 45  1  0  0  0
M  END
> <s_m_entry_id>
42081

> <s_m_entry_name>
dock_pv.46

> <s_m_Source_Path>
/home/csk/Desktop/cluster/DUD-E-result/urok

> <s_m_Source_File>
dock_pv.maegz

> <i_m_Source_File_Index>
46

> <chembl_id>
CHEMBL572345

> <chembl_pref_name>
None

> <i_lp_mmshare_version>
53161

> <r_lp_tautomer_probability>
1

> <s_lp_Force_Field>
OPLS_2005

> <r_lp_Energy>
11.965523

> <b_lp_Chiralities_Consistent>
1

> <s_lp_Variant>
CHEMBL3286_lig761-2

> <s_i_glide_gridfile>
glide-grid_1sqt

> <i_i_glide_lignum>
1016

> <i_i_glide_rotatable_bonds>
6

> <r_i_docking_score>
-6.97356720257375

> <r_i_glide_ligand_efficiency>
-0.303198574024946

> <r_i_glide_ligand_efficiency_sa>
-0.862256412106424

> <r_i_glide_ligand_efficiency_ln>
-1.68627178239372

> <r_i_glide_gscore>
-6.97356720257375

> <r_i_glide_lipo>
-2.59003942989535

> <r_i_glide_hbond>
-0.578477964351798

> <r_i_glide_metal>
0

> <r_i_glide_rewards>
-1.82781984298839

> <r_i_glide_evdw>
-33.8589057922363

> <r_i_glide_ecoul>
-5.74195623397827

> <r_i_glide_erotb>
0.577008759370342

> <r_i_glide_esite>
0

> <r_i_glide_emodel>
-55.6659124886222

> <r_i_glide_energy>
-39.6008620262146

> <r_i_glide_einternal>
1.49595654010773

> <i_i_glide_confnum>
3

> <i_i_glide_posenum>
2

> <r_i_glide_eff_state_penalty>
0

> <s_user_duplicate_titles>
CHEMBL3286_lig761,563038

> <i_f3d_flags>
0

> <s_m_subgroup_title>
dock_pv

> <s_m_subgroupid>
dock_pv

> <b_m_subgroup_collapsed>
1

$$$$
CHEMBL3286_lig924 
                    3D
 Schrodinger Suite 2021-1.
 39 41  0  0  1  0            999 V2000
   23.6752   15.1731   33.6841 C   0  0  0  0  0  0
   24.9764   15.6465   33.9137 C   0  0  0  0  0  0
   26.0527   14.8284   33.8185 N   0  0  0  0  0  0
   25.8394   13.5315   33.4886 C   0  0  0  0  0  0
   24.5384   13.0501   33.2596 C   0  0  0  0  0  0
   23.4610   13.8717   33.3541 N   0  0  0  0  0  0
   26.9782   12.7321   33.3966 N   0  0  0  0  0  0
   25.2403   16.9772   34.2222 N   0  0  0  0  0  0
   24.2291   11.6172   32.9570 C   0  0  0  0  0  0
   24.4808   10.7573   34.0143 N   0  0  0  0  0  0
   23.8212   11.2639   31.8468 O   0  0  0  0  0  0
   23.6342    9.8713   34.3668 C   0  0  0  0  0  0
   23.9089    8.9849   35.4199 N   0  0  0  0  0  0
   22.3564    9.6119   33.8202 N   0  0  0  0  0  0
   22.4488   16.0139   33.7564 C   0  0  0  0  0  0
   21.4825   15.7847   32.8152 O   0  0  0  0  0  0
   22.0921   17.0665   34.5893 C   0  0  0  0  0  0
   20.8422   17.5549   34.1107 C   0  0  0  0  0  0
   20.5133   16.7248   33.0183 C   0  0  0  0  0  0
   19.3482   16.8926   32.2613 C   0  0  0  0  0  0
   18.5153   17.9575   32.6168 C   0  0  0  0  0  0
   18.8261   18.8061   33.6852 C   0  0  0  0  0  0
   19.9681   18.5882   34.4617 C   0  0  0  0  0  0
   17.9251   19.9856   34.0055 C   0  0  0  0  0  0
   26.8876   11.7718   33.0970 H   0  0  0  0  0  0
   27.8832   13.1683   33.4936 H   0  0  0  0  0  0
   24.4833   17.6439   34.1814 H   0  0  0  0  0  0
   26.2023   17.2717   34.2936 H   0  0  0  0  0  0
   24.7050    9.2000   35.9993 H   0  0  0  0  0  0
   23.1285    8.6846   35.9853 H   0  0  0  0  0  0
   22.2082    9.9765   32.8903 H   0  0  0  0  0  0
   22.0423    8.6474   33.8541 H   0  0  0  0  0  0
   22.6703   17.4430   35.4191 H   0  0  0  0  0  0
   19.1246   16.2519   31.4221 H   0  0  0  0  0  0
   17.6239   18.1442   32.0334 H   0  0  0  0  0  0
   20.1897   19.2120   35.3108 H   0  0  0  0  0  0
   18.0814   20.3578   35.0192 H   0  0  0  0  0  0
   18.1085   20.8046   33.3110 H   0  0  0  0  0  0
   16.8735   19.7104   33.9279 H   0  0  0  0  0  0
  1  2  2  0  0  0
  1  6  1  0  0  0
  1 15  1  0  0  0
  2  3  1  0  0  0
  2  8  1  0  0  0
  3  4  2  0  0  0
  4  5  1  0  0  0
  4  7  1  0  0  0
  5  6  2  0  0  0
  5  9  1  0  0  0
  7 25  1  0  0  0
  7 26  1  0  0  0
  8 27  1  0  0  0
  8 28  1  0  0  0
  9 10  1  0  0  0
  9 11  2  0  0  0
 10 12  2  0  0  0
 12 14  1  0  0  0
 12 13  1  0  0  0
 13 30  1  0  0  0
 13 29  1  0  0  0
 14 32  1  0  0  0
 14 31  1  0  0  0
 15 16  1  0  0  0
 15 17  2  0  0  0
 16 19  1  0  0  0
 17 18  1  0  0  0
 17 33  1  0  0  0
 18 19  2  0  0  0
 18 23  1  0  0  0
 19 20  1  0  0  0
 20 21  2  0  0  0
 20 34  1  0  0  0
 21 22  1  0  0  0
 21 35  1  0  0  0
 22 23  2  0  0  0
 22 24  1  0  0  0
 23 36  1  0  0  0
 24 37  1  0  0  0
 24 38  1  0  0  0
 24 39  1  0  0  0
M  END
> <s_m_entry_id>
42082

> <s_m_entry_name>
dock_pv.47

> <s_m_Source_Path>
/home/csk/Desktop/cluster/DUD-E-result/urok

> <s_m_Source_File>
dock_pv.maegz

> <i_m_Source_File_Index>
47

> <chembl_id>
CHEMBL4575138

> <chembl_pref_name>
None

> <i_lp_mmshare_version>
53161

> <r_lp_tautomer_probability>
0.499995

> <s_lp_Force_Field>
OPLS_2005

> <r_lp_Energy>
39.238781

> <b_lp_Chiralities_Consistent>
1

> <s_lp_Variant>
CHEMBL3286_lig924 -1

> <s_i_glide_gridfile>
glide-grid_1sqt

> <i_i_glide_lignum>
1232

> <i_i_glide_rotatable_bonds>
3

> <r_i_docking_score>
-6.97235318985336

> <r_i_glide_ligand_efficiency>
-0.29051471624389

> <r_i_glide_ligand_efficiency_sa>
-0.837989448453732

> <r_i_glide_ligand_efficiency_ln>
-1.66880405877219

> <r_i_glide_gscore>
-6.97235318985336

> <r_i_glide_lipo>
-2.52138144237639

> <r_i_glide_hbond>
-0.372144943554337

> <r_i_glide_metal>
0

> <r_i_glide_rewards>
-1.37206749610725

> <r_i_glide_evdw>
-40.5199012756348

> <r_i_glide_ecoul>
-7.52407169342041

> <r_i_glide_erotb>
0.531188033947887

> <r_i_glide_esite>
-0.0833415239684676

> <r_i_glide_emodel>
-63.6781119899138

> <r_i_glide_energy>
-48.0439729690552

> <r_i_glide_einternal>
7.3909010887146

> <i_i_glide_confnum>
3

> <i_i_glide_posenum>
373

> <r_i_glide_eff_state_penalty>
0

> <s_user_duplicate_titles>
CHEMBL3286_lig924 

> <i_f3d_flags>
1

> <s_m_subgroup_title>
dock_pv

> <s_m_subgroupid>
dock_pv

> <b_m_subgroup_collapsed>
1

$$$$
CHEMBL3286_lig450
                    3D
 Schrodinger Suite 2021-1.
 19 19  0  0  1  0            999 V2000
   18.8766   19.6570   33.8202 C   0  0  0  0  0  0
   17.9240   19.0034   33.3386 N   0  0  0  0  0  0
   20.2079   19.2120   34.0099 N   0  0  0  0  0  0
   18.7240   20.9915   34.2200 N   0  0  0  0  0  0
   20.8417   17.9818   33.7955 C   0  0  0  0  0  0
   22.2486   15.6056   33.4115 C   0  0  0  0  0  0
   23.1247   14.1352   33.1880 Cl  0  0  0  0  0  0
   22.2383   17.9834   33.7774 C   0  0  0  0  0  0
   20.1521   16.7768   33.6147 C   0  0  0  0  0  0
   22.9431   16.7988   33.5860 C   0  0  0  0  0  0
   20.8553   15.5916   33.4198 C   0  0  0  0  0  0
   17.0903   19.5766   33.3009 H   0  0  0  0  0  0
   20.7912   19.8863   34.4857 H   0  0  0  0  0  0
   17.7910   21.3353   34.4226 H   0  0  0  0  0  0
   19.4080   21.3790   34.8571 H   0  0  0  0  0  0
   22.7839   18.9068   33.9095 H   0  0  0  0  0  0
   19.0734   16.7429   33.6363 H   0  0  0  0  0  0
   24.0231   16.8079   33.5726 H   0  0  0  0  0  0
   20.3171   14.6640   33.2978 H   0  0  0  0  0  0
  1  2  2  0  0  0
  1  3  1  0  0  0
  1  4  1  0  0  0
  2 12  1  0  0  0
  3  5  1  0  0  0
  3 13  1  0  0  0
  4 14  1  0  0  0
  4 15  1  0  0  0
  5  8  2  0  0  0
  5  9  1  0  0  0
  6 11  1  0  0  0
  6  7  1  0  0  0
  6 10  2  0  0  0
  8 10  1  0  0  0
  8 16  1  0  0  0
  9 11  2  0  0  0
  9 17  1  0  0  0
 10 18  1  0  0  0
 11 19  1  0  0  0
M  END
> <s_m_entry_id>
42083

> <s_m_entry_name>
dock_pv.48

> <s_m_Source_Path>
/home/csk/Desktop/cluster/DUD-E-result/urok

> <s_m_Source_File>
dock_pv.maegz

> <i_m_Source_File_Index>
48

> <chembl_id>
CHEMBL41040

> <chembl_pref_name>
None

> <i_lp_mmshare_version>
53161

> <r_lp_tautomer_probability>
1

> <s_lp_Force_Field>
OPLS_2005

> <r_lp_Energy>
-2.271194

> <b_lp_Chiralities_Consistent>
1

> <s_lp_Variant>
CHEMBL3286_lig450-1

> <s_i_glide_gridfile>
glide-grid_1sqt

> <i_i_glide_lignum>
597

> <i_i_glide_rotatable_bonds>
2

> <r_i_docking_score>
-6.93271821580586

> <r_i_glide_ligand_efficiency>
-0.630247110527806

> <r_i_glide_ligand_efficiency_sa>
-1.40165702483234

> <r_i_glide_ligand_efficiency_ln>
-2.04029779001881

> <r_i_glide_gscore>
-6.93271821580586

> <r_i_glide_lipo>
-1.67418484597654

> <r_i_glide_hbond>
-0.866378989038264

> <r_i_glide_metal>
0

> <r_i_glide_rewards>
-2.24913029767542

> <r_i_glide_evdw>
-22.649227142334

> <r_i_glide_ecoul>
-9.78174686431885

> <r_i_glide_erotb>
0.53576402019756

> <r_i_glide_esite>
-0.079064716548681

> <r_i_glide_emodel>
-45.6182968589607

> <r_i_glide_energy>
-32.4309740066528

> <r_i_glide_einternal>
0.77170330286026

> <i_i_glide_confnum>
1

> <i_i_glide_posenum>
379

> <r_i_glide_eff_state_penalty>
0

> <s_user_duplicate_titles>
CHEMBL3286_lig450

> <i_f3d_flags>
0

> <s_m_subgroup_title>
dock_pv

> <s_m_subgroupid>
dock_pv

> <b_m_subgroup_collapsed>
1

$$$$
CHEMBL3286_lig181
                    3D
 Schrodinger Suite 2021-1.
 31 33  0  0  1  0            999 V2000
   25.5638   14.0177   30.9503 C   0  0  0  0  0  0
   24.6670   13.3634   31.7900 C   0  0  0  0  0  0
   23.5591   14.0162   32.3320 C   0  0  0  0  0  0
   25.4011   15.3628   30.6259 C   0  0  0  0  0  0
   24.3062   16.0577   31.1658 C   0  0  0  0  0  0
   23.3914   15.3720   32.0137 C   0  0  0  0  0  0
   22.4181   16.3037   32.3696 N   0  0  0  0  0  0
   22.7229   17.5044   31.8202 N   0  0  0  0  0  0
   23.8109   17.3941   31.1044 C   0  0  0  0  0  0
   21.2663   16.1375   33.1933 C   0  0  0  0  0  0
   21.0779   15.1001   33.8200 O   0  0  0  0  0  0
   20.2362   17.2246   33.2389 C   0  0  0  0  0  0
   20.3328   18.2587   34.1759 C   0  0  0  0  0  0
   19.3480   19.2441   34.2193 C   0  0  0  0  0  0
   18.2767   19.2113   33.3286 C   0  0  0  0  0  0
   18.1733   18.1730   32.3982 C   0  0  0  0  0  0
   19.1547   17.1821   32.3567 C   0  0  0  0  0  0
   24.3712   18.5275   30.3871 C   0  0  0  0  0  0
   24.8152   19.4317   29.8193 N   0  0  0  0  0  0
   17.0257   18.1318   31.4065 C   0  0  0  0  0  0
   26.4038   13.4692   30.5439 H   0  0  0  0  0  0
   24.8332   12.3212   32.0198 H   0  0  0  0  0  0
   22.8653   13.4864   32.9701 H   0  0  0  0  0  0
   26.1066   15.8580   29.9734 H   0  0  0  0  0  0
   21.1538   18.3062   34.8771 H   0  0  0  0  0  0
   19.4107   20.0357   34.9515 H   0  0  0  0  0  0
   17.5217   19.9855   33.3841 H   0  0  0  0  0  0
   19.0728   16.3850   31.6309 H   0  0  0  0  0  0
   16.7223   19.1342   31.1221 H   0  0  0  0  0  0
   17.3251   17.6364   30.4840 H   0  0  0  0  0  0
   16.1623   17.6132   31.8191 H   0  0  0  0  0  0
  1  2  2  0  0  0
  1  4  1  0  0  0
  1 21  1  0  0  0
  2  3  1  0  0  0
  2 22  1  0  0  0
  3  6  2  0  0  0
  3 23  1  0  0  0
  4  5  2  0  0  0
  4 24  1  0  0  0
  5  6  1  0  0  0
  5  9  1  0  0  0
  6  7  1  0  0  0
  7  8  1  0  0  0
  7 10  1  0  0  0
  8  9  2  0  0  0
  9 18  1  0  0  0
 10 11  2  0  0  0
 10 12  1  0  0  0
 12 13  2  0  0  0
 12 17  1  0  0  0
 13 14  1  0  0  0
 13 25  1  0  0  0
 14 15  2  0  0  0
 14 26  1  0  0  0
 15 16  1  0  0  0
 15 27  1  0  0  0
 16 17  2  0  0  0
 16 20  1  0  0  0
 17 28  1  0  0  0
 18 19  3  0  0  0
 20 29  1  0  0  0
 20 30  1  0  0  0
 20 31  1  0  0  0
M  END
> <s_m_entry_id>
42084

> <s_m_entry_name>
dock_pv.49

> <s_m_Source_Path>
/home/csk/Desktop/cluster/DUD-E-result/urok

> <s_m_Source_File>
dock_pv.maegz

> <i_m_Source_File_Index>
49

> <chembl_id>
CHEMBL2409450

> <chembl_pref_name>
None

> <i_lp_mmshare_version>
53161

> <r_lp_tautomer_probability>
1

> <s_lp_Force_Field>
OPLS_2005

> <r_lp_Energy>
20.64588

> <b_lp_Chiralities_Consistent>
1

> <s_lp_Variant>
CHEMBL3286_lig181-1

> <s_i_glide_gridfile>
glide-grid_1sqt

> <i_i_glide_lignum>
257

> <i_i_glide_rotatable_bonds>
2

> <r_i_docking_score>
-6.93179969281515

> <r_i_glide_ligand_efficiency>
-0.346589984640758

> <r_i_glide_ligand_efficiency_sa>
-0.940789959104779

> <r_i_glide_ligand_efficiency_ln>
-1.7348008370565

> <r_i_glide_gscore>
-6.93179969281515

> <r_i_glide_lipo>
-2.70446706441172

> <r_i_glide_hbond>
0

> <r_i_glide_metal>
0

> <r_i_glide_rewards>
-2.64748723014387

> <r_i_glide_evdw>
-37.0378646850586

> <r_i_glide_ecoul>
-1.64701902866364

> <r_i_glide_erotb>
0.519100690292915

> <r_i_glide_esite>
0

> <r_i_glide_emodel>
-52.7687598370841

> <r_i_glide_energy>
-38.6848837137222

> <r_i_glide_einternal>
4.1031494140625

> <i_i_glide_confnum>
6

> <i_i_glide_posenum>
363

> <r_i_glide_eff_state_penalty>
0

> <s_user_duplicate_titles>
CHEMBL3286_lig181

> <i_f3d_flags>
0

> <s_m_subgroup_title>
dock_pv

> <s_m_subgroupid>
dock_pv

> <b_m_subgroup_collapsed>
1

$$$$
CHEMBL3286_lig896
                    3D
 Schrodinger Suite 2021-1.
 46 48  0  0  1  0            999 V2000
   22.9298   17.0494   33.7710 C   0  0  0  0  0  0
   23.0117   16.1369   32.6927 C   0  0  0  0  0  0
   21.8939   15.8334   31.9696 N   0  0  0  0  0  0
   20.7175   16.4123   32.2983 C   0  0  0  0  0  0
   20.6460   17.3610   33.3295 C   0  0  0  0  0  0
   21.7498   17.6636   34.0598 N   0  0  0  0  0  0
   19.6211   16.0384   31.5241 N   0  0  0  0  0  0
   24.2331   15.5951   32.2416 N   0  0  0  0  0  0
   19.3717   18.0669   33.7062 C   0  0  0  0  0  0
   19.5181   19.4305   33.9448 N   0  0  0  0  0  0
   18.3240   17.4252   33.8200 O   0  0  0  0  0  0
   18.5427   20.2541   33.9850 C   0  0  0  0  0  0
   18.7240   21.6230   34.2200 N   0  0  0  0  0  0
   17.1695   20.0120   33.8200 N   0  0  0  0  0  0
   24.1770   14.2845   31.5749 C   0  0  0  0  0  0
   25.5130   13.5750   31.2859 C   0  0  0  0  0  0
   25.1433   16.6119   31.6907 C   0  0  0  0  0  0
   26.1681   14.0116   29.9633 C   0  0  0  0  0  0
   25.6047   16.5433   30.2199 C   0  0  0  0  0  0
   26.6651   15.4652   29.9183 C   0  0  0  0  0  0
   24.0624   17.4064   34.7007 C   0  0  0  0  0  0
   24.0529   18.9026   35.6166 S   0  0  0  0  0  0
   25.5505   18.5032   36.3864 C   0  0  0  0  0  0
   26.0363   17.2791   35.9617 C   0  0  0  0  0  0
   25.2040   16.6672   35.0201 C   0  0  0  0  0  0
   18.7272   16.4670   31.7273 H   0  0  0  0  0  0
   19.8002   15.5811   30.6429 H   0  0  0  0  0  0
   19.6275   21.8569   34.6156 H   0  0  0  0  0  0
   17.9912   22.0442   34.7848 H   0  0  0  0  0  0
   16.8612   19.0955   33.5526 H   0  0  0  0  0  0
   16.4910   20.4961   34.4060 H   0  0  0  0  0  0
   23.5631   13.6139   32.1787 H   0  0  0  0  0  0
   23.6305   14.4129   30.6385 H   0  0  0  0  0  0
   26.2193   13.7720   32.0941 H   0  0  0  0  0  0
   25.3504   12.4969   31.2595 H   0  0  0  0  0  0
   24.9234   17.6291   32.0199 H   0  0  0  0  0  0
   26.0548   16.3929   32.2477 H   0  0  0  0  0  0
   27.0127   13.3528   29.7562 H   0  0  0  0  0  0
   25.4679   13.8494   29.1418 H   0  0  0  0  0  0
   24.7415   16.3678   29.5756 H   0  0  0  0  0  0
   26.0067   17.5167   29.9363 H   0  0  0  0  0  0
   27.0764   15.6505   28.9249 H   0  0  0  0  0  0
   27.5067   15.5824   30.6027 H   0  0  0  0  0  0
   25.9891   19.1737   37.1104 H   0  0  0  0  0  0
   26.9530   16.8376   36.3251 H   0  0  0  0  0  0
   25.4241   15.6979   34.5986 H   0  0  0  0  0  0
  1  2  2  0  0  0
  1  6  1  0  0  0
  1 21  1  0  0  0
  2  3  1  0  0  0
  2  8  1  0  0  0
  3  4  2  0  0  0
  4  5  1  0  0  0
  4  7  1  0  0  0
  5  6  2  0  0  0
  5  9  1  0  0  0
  7 26  1  0  0  0
  7 27  1  0  0  0
  8 15  1  0  0  0
  8 17  1  0  0  0
  9 10  1  0  0  0
  9 11  2  0  0  0
 10 12  2  0  0  0
 12 14  1  0  0  0
 12 13  1  0  0  0
 13 29  1  0  0  0
 13 28  1  0  0  0
 14 31  1  0  0  0
 14 30  1  0  0  0
 15 16  1  0  0  0
 15 32  1  0  0  0
 15 33  1  0  0  0
 16 18  1  0  0  0
 16 34  1  0  0  0
 16 35  1  0  0  0
 17 19  1  0  0  0
 17 36  1  0  0  0
 17 37  1  0  0  0
 18 20  1  0  0  0
 18 38  1  0  0  0
 18 39  1  0  0  0
 19 20  1  0  0  0
 19 40  1  0  0  0
 19 41  1  0  0  0
 20 42  1  0  0  0
 20 43  1  0  0  0
 21 22  1  0  0  0
 21 25  2  0  0  0
 22 23  1  0  0  0
 23 24  2  0  0  0
 23 44  1  0  0  0
 24 25  1  0  0  0
 24 45  1  0  0  0
 25 46  1  0  0  0
M  END
> <s_m_entry_id>
42085

> <s_m_entry_name>
dock_pv.50

> <s_m_Source_Path>
/home/csk/Desktop/cluster/DUD-E-result/urok

> <s_m_Source_File>
dock_pv.maegz

> <i_m_Source_File_Index>
50

> <chembl_id>
CHEMBL4212621

> <chembl_pref_name>
None

> <i_lp_mmshare_version>
53161

> <r_lp_tautomer_probability>
0.499994999999877

> <s_lp_Force_Field>
OPLS_2005

> <r_lp_Energy>
48.992505

> <b_lp_Chiralities_Consistent>
1

> <s_lp_Variant>
CHEMBL3286_lig896-1

> <s_i_glide_gridfile>
glide-grid_1sqt

> <i_i_glide_lignum>
1204

> <i_i_glide_rotatable_bonds>
4

> <r_i_docking_score>
-6.9165124300582

> <r_i_glide_ligand_efficiency>
-0.276660497202328

> <r_i_glide_ligand_efficiency_sa>
-0.808960200414418

> <r_i_glide_ligand_efficiency_ln>
-1.63942071707557

> <r_i_glide_gscore>
-6.9165124300582

> <r_i_glide_lipo>
-1.49222891846609

> <r_i_glide_hbond>
-1.36032670506425

> <r_i_glide_metal>
0

> <r_i_glide_rewards>
-1.46687639838292

> <r_i_glide_evdw>
-36.7029304504395

> <r_i_glide_ecoul>
-7.79542255401611

> <r_i_glide_erotb>
0.593401739466392

> <r_i_glide_esite>
-0.186022241986948

> <r_i_glide_emodel>
-60.0552759401992

> <r_i_glide_energy>
-44.4983530044556

> <r_i_glide_einternal>
5.1771125793457

> <i_i_glide_confnum>
70

> <i_i_glide_posenum>
360

> <r_i_glide_eff_state_penalty>
0

> <s_user_duplicate_titles>
CHEMBL3286_lig896

> <i_f3d_flags>
1

> <s_m_subgroup_title>
dock_pv

> <s_m_subgroupid>
dock_pv

> <b_m_subgroup_collapsed>
1

$$$$
CHEMBL3286_lig749
                    3D
 Schrodinger Suite 2021-1.
 30 32  0  0  1  0            999 V2000
   20.4500   18.9846   34.2694 N   0  0  0  0  0  0
   19.2150   19.2872   33.8230 C   0  0  0  0  0  0
   18.4701   18.4372   33.0147 C   0  0  0  0  0  0
   19.0163   17.2045   32.6587 C   0  0  0  0  0  0
   20.3081   16.8501   33.1304 C   0  0  0  0  0  0
   20.9096   15.6121   32.8270 C   0  0  0  0  0  0
   22.1727   15.3068   33.3196 C   0  0  0  0  0  0
   22.8654   16.2159   34.1100 C   0  0  0  0  0  0
   22.3141   17.4562   34.4548 C   0  0  0  0  0  0
   21.0128   17.7839   33.9502 C   0  0  0  0  0  0
   22.7239   14.0845   33.0439 O   0  0  0  0  0  0
   22.9731   18.3758   35.2999 N   0  0  0  0  0  0
   24.1764   18.4104   36.0154 C   0  0  0  0  0  0
   24.3252   19.4992   36.8148 N   0  0  0  0  0  0
   25.4554   19.5626   37.5653 C   0  0  0  0  0  0
   26.4394   18.5743   37.5168 C   0  0  0  0  0  0
   26.2082   17.5010   36.6550 C   0  0  0  0  0  0
   25.0837   17.4041   35.9000 N   0  0  0  0  0  0
   18.7240   20.5215   34.2200 N   0  0  0  0  0  0
   17.4938   18.7298   32.6564 H   0  0  0  0  0  0
   18.4641   16.5197   32.0318 H   0  0  0  0  0  0
   20.3691   14.9065   32.2171 H   0  0  0  0  0  0
   23.8357   15.9143   34.4635 H   0  0  0  0  0  0
   22.0752   13.5093   32.6199 H   0  0  0  0  0  0
   22.4029   19.1951   35.4678 H   0  0  0  0  0  0
   25.5580   20.4181   38.2169 H   0  0  0  0  0  0
   27.3335   18.6336   38.1197 H   0  0  0  0  0  0
   26.9194   16.6919   36.5682 H   0  0  0  0  0  0
   17.7459   20.7578   34.1099 H   0  0  0  0  0  0
   19.3152   21.0697   34.8344 H   0  0  0  0  0  0
  1  2  2  0  0  0
  1 10  1  0  0  0
  2  3  1  0  0  0
  2 19  1  0  0  0
  3  4  2  0  0  0
  3 20  1  0  0  0
  4  5  1  0  0  0
  4 21  1  0  0  0
  5  6  2  0  0  0
  5 10  1  0  0  0
  6  7  1  0  0  0
  6 22  1  0  0  0
  7  8  2  0  0  0
  7 11  1  0  0  0
  8  9  1  0  0  0
  8 23  1  0  0  0
  9 10  2  0  0  0
  9 12  1  0  0  0
 11 24  1  0  0  0
 12 13  1  0  0  0
 12 25  1  0  0  0
 13 14  1  0  0  0
 13 18  2  0  0  0
 14 15  2  0  0  0
 15 16  1  0  0  0
 15 26  1  0  0  0
 16 17  2  0  0  0
 16 27  1  0  0  0
 17 18  1  0  0  0
 17 28  1  0  0  0
 19 29  1  0  0  0
 19 30  1  0  0  0
M  END
> <s_m_entry_id>
42086

> <s_m_entry_name>
dock_pv.51

> <s_m_Source_Path>
/home/csk/Desktop/cluster/DUD-E-result/urok

> <s_m_Source_File>
dock_pv.maegz

> <i_m_Source_File_Index>
51

> <chembl_id>
CHEMBL555129

> <chembl_pref_name>
None

> <i_lp_mmshare_version>
53161

> <r_lp_tautomer_probability>
0.999999987636

> <s_lp_Force_Field>
OPLS_2005

> <r_lp_Energy>
2.451143

> <b_lp_Chiralities_Consistent>
1

> <s_lp_Variant>
CHEMBL3286_lig749-1

> <s_i_glide_gridfile>
glide-grid_1sqt

> <i_i_glide_lignum>
1000

> <i_i_glide_rotatable_bonds>
3

> <r_i_docking_score>
-6.91423389993318

> <r_i_glide_ligand_efficiency>
-0.363907047364904

> <r_i_glide_ligand_efficiency_sa>
-0.971050164216979

> <r_i_glide_ligand_efficiency_ln>
-1.75290679776071

> <r_i_glide_gscore>
-6.91423389993318

> <r_i_glide_lipo>
-2.38233482590582

> <r_i_glide_hbond>
-0.608

> <r_i_glide_metal>
0

> <r_i_glide_rewards>
-1.89264511517826

> <r_i_glide_evdw>
-33.4821014404297

> <r_i_glide_ecoul>
-5.82571935653687

> <r_i_glide_erotb>
0.547692704613622

> <r_i_glide_esite>
-0.0309836879607079

> <r_i_glide_emodel>
-55.1243547387909

> <r_i_glide_energy>
-39.3078207969666

> <r_i_glide_einternal>
0.839888632297516

> <i_i_glide_confnum>
8

> <i_i_glide_posenum>
229

> <r_i_glide_eff_state_penalty>
0

> <s_user_duplicate_titles>
CHEMBL3286_lig749

> <i_f3d_flags>
0

> <s_m_subgroup_title>
dock_pv

> <s_m_subgroupid>
dock_pv

> <b_m_subgroup_collapsed>
1

$$$$
CHEMBL3286_lig26
                    3D
 Schrodinger Suite 2021-1.
 65 66  0  0  1  0            999 V2000
   25.7086   10.0879   33.6626 N   0  0  0  0  0  0
   24.6015   10.8922   34.2181 C   0  0  1  0  0  0
   24.4872   16.8626   31.6348 C   0  0  0  0  0  0
   27.0697   10.5460   33.6716 C   0  0  0  0  0  0
   24.9349   18.1984   32.2933 C   0  0  2  0  0  0
   24.1974   13.6069   32.3635 C   0  0  0  0  0  0
   24.1973   12.2739   32.1828 N   0  0  0  0  0  0
   25.2984   15.8071   31.8142 N   0  0  0  0  0  0
   23.8619   18.8119   33.0978 N   0  0  0  0  0  0
   23.3178   18.2020   34.2134 C   0  0  0  0  0  0
   23.5954   11.2994   33.0983 C   0  0  1  0  0  0
   25.0307   14.4405   31.3500 C   0  0  1  0  0  0
   27.4594   11.6086   34.2199 N   0  0  0  0  0  0
   23.4423   16.8259   30.9802 O   0  0  0  0  0  0
   23.5617   14.1528   33.2668 O   0  0  0  0  0  0
   23.6656   17.1370   34.7231 O   0  0  0  0  0  0
   22.2868   18.9457   34.6210 O   0  0  0  0  0  0
   25.3717   19.1598   31.1364 C   0  0  1  0  0  0
   27.9973    9.7324   32.9933 N   0  0  0  0  0  0
   25.2440    8.8301   33.0506 C   0  0  0  0  0  0
   23.9571   10.3280   35.3429 O   0  0  0  0  0  0
   21.1296   18.3419   35.1837 C   0  0  0  0  0  0
   25.5240   20.4867   31.6140 O   0  0  0  0  0  0
   20.1819   17.9219   34.0713 C   0  0  0  0  0  0
   23.1131   10.0287   32.3584 C   0  0  0  0  0  0
   24.2824    9.1448   31.8886 C   0  0  0  0  0  0
   26.3767   13.7871   30.9711 C   0  0  0  0  0  0
   26.6966   18.7812   30.4513 C   0  0  0  0  0  0
   20.3572   16.6913   33.4310 C   0  0  0  0  0  0
   19.1653   18.7913   33.6726 C   0  0  0  0  0  0
   18.3238   18.4302   32.6258 C   0  0  0  0  0  0
   19.5149   16.3368   32.3814 C   0  0  0  0  0  0
   18.5005   17.2077   31.9866 C   0  0  0  0  0  0
   25.0032   11.8220   34.6199 H   0  0  0  0  0  0
   25.7907   18.0274   32.9532 H   0  0  0  0  0  0
   24.8451   11.9021   31.5049 H   0  0  0  0  0  0
   26.1225   15.9167   32.3851 H   0  0  0  0  0  0
   23.4172   19.6602   32.7567 H   0  0  0  0  0  0
   22.7133   11.7670   33.5463 H   0  0  0  0  0  0
   24.4250   14.5184   30.4465 H   0  0  0  0  0  0
   28.4496   11.7455   34.0984 H   0  0  0  0  0  0
   24.5911   19.2084   30.3733 H   0  0  0  0  0  0
   28.9686    9.9788   32.8989 H   0  0  0  0  0  0
   27.7164    8.8984   32.5003 H   0  0  0  0  0  0
   26.0585    8.2026   32.6911 H   0  0  0  0  0  0
   24.7271    8.2426   33.8108 H   0  0  0  0  0  0
   23.5119    9.5168   35.0788 H   0  0  0  0  0  0
   21.3698   17.4919   35.8218 H   0  0  0  0  0  0
   20.6241   19.0729   35.8169 H   0  0  0  0  0  0
   24.6355   20.8130   31.8191 H   0  0  0  0  0  0
   22.4886   10.2961   31.5048 H   0  0  0  0  0  0
   22.4681    9.4479   33.0216 H   0  0  0  0  0  0
   24.8313    9.6101   31.0673 H   0  0  0  0  0  0
   23.8913    8.2112   31.4813 H   0  0  0  0  0  0
   26.2388   12.8284   30.4721 H   0  0  0  0  0  0
   26.9378   14.4191   30.2806 H   0  0  0  0  0  0
   27.0043   13.6139   31.8461 H   0  0  0  0  0  0
   26.6364   17.8050   29.9644 H   0  0  0  0  0  0
   26.9587   19.5067   29.6807 H   0  0  0  0  0  0
   27.5166   18.7465   31.1675 H   0  0  0  0  0  0
   21.1534   16.0192   33.7328 H   0  0  0  0  0  0
   19.0394   19.7485   34.1609 H   0  0  0  0  0  0
   17.5438   19.1073   32.3038 H   0  0  0  0  0  0
   19.6521   15.3965   31.8720 H   0  0  0  0  0  0
   17.8509   16.9379   31.1669 H   0  0  0  0  0  0
  1  2  1  0  0  0
  1  4  1  0  0  0
  1 20  1  0  0  0
  2 11  1  0  0  0
  2 21  1  0  0  0
  2 34  1  0  0  0
  3  8  1  0  0  0
  3  5  1  0  0  0
  3 14  2  0  0  0
  4 13  2  0  0  0
  4 19  1  0  0  0
  5  9  1  0  0  0
  5 18  1  0  0  0
  5 35  1  0  0  0
  6  7  1  0  0  0
  6 12  1  0  0  0
  6 15  2  0  0  0
  7 11  1  0  0  0
  7 36  1  0  0  0
  8 12  1  0  0  0
  8 37  1  0  0  0
  9 10  1  0  0  0
  9 38  1  0  0  0
 10 16  2  0  0  0
 10 17  1  0  0  0
 11 25  1  0  0  0
 11 39  1  0  0  0
 12 27  1  0  0  0
 12 40  1  0  0  0
 13 41  1  0  0  0
 17 22  1  0  0  0
 18 23  1  0  0  0
 18 28  1  0  0  0
 18 42  1  0  0  0
 19 43  1  0  0  0
 19 44  1  0  0  0
 20 26  1  0  0  0
 20 45  1  0  0  0
 20 46  1  0  0  0
 21 47  1  0  0  0
 22 24  1  0  0  0
 22 48  1  0  0  0
 22 49  1  0  0  0
 23 50  1  0  0  0
 24 29  2  0  0  0
 24 30  1  0  0  0
 25 26  1  0  0  0
 25 51  1  0  0  0
 25 52  1  0  0  0
 26 53  1  0  0  0
 26 54  1  0  0  0
 27 55  1  0  0  0
 27 56  1  0  0  0
 27 57  1  0  0  0
 28 58  1  0  0  0
 28 59  1  0  0  0
 28 60  1  0  0  0
 29 32  1  0  0  0
 29 61  1  0  0  0
 30 31  2  0  0  0
 30 62  1  0  0  0
 31 33  1  0  0  0
 31 63  1  0  0  0
 32 33  2  0  0  0
 32 64  1  0  0  0
 33 65  1  0  0  0
M  END
> <s_m_entry_id>
42087

> <s_m_entry_name>
dock_pv.52

> <s_m_Source_Path>
/home/csk/Desktop/cluster/DUD-E-result/urok

> <s_m_Source_File>
dock_pv.maegz

> <i_m_Source_File_Index>
52

> <chembl_id>
CHEMBL425850

> <chembl_pref_name>
None

> <i_lp_mmshare_version>
53161

> <r_lp_tautomer_probability>
1

> <s_lp_Force_Field>
OPLS_2005

> <r_lp_Energy>
28.097269

> <b_lp_Chiralities_Consistent>
1

> <s_lp_Variant>
CHEMBL3286_lig26-4

> <s_i_glide_gridfile>
glide-grid_1sqt

> <i_i_glide_lignum>
46

> <i_i_glide_rotatable_bonds>
15

> <r_i_docking_score>
-6.89564700351923

> <r_i_glide_ligand_efficiency>
-0.208959000106643

> <r_i_glide_ligand_efficiency_sa>
-0.67024316562249

> <r_i_glide_ligand_efficiency_ln>
-1.53355618983332

> <r_i_glide_gscore>
-6.89564700351923

> <r_i_glide_lipo>
-2.83910389383685

> <r_i_glide_hbond>
-0.629247333239746

> <r_i_glide_metal>
0

> <r_i_glide_rewards>
-0.317376989785373

> <r_i_glide_evdw>
-44.8630294799805

> <r_i_glide_ecoul>
-12.4004821777344

> <r_i_glide_erotb>
1.02773913200127

> <r_i_glide_esite>
-0.034434117999352

> <r_i_glide_emodel>
-75.5577153743318

> <r_i_glide_energy>
-57.2635116577148

> <r_i_glide_einternal>
8.19304180145264

> <i_i_glide_confnum>
28

> <i_i_glide_posenum>
206

> <r_i_glide_eff_state_penalty>
0

> <s_user_duplicate_titles>
CHEMBL3286_lig26,294014

> <i_f3d_flags>
0

> <s_m_subgroup_title>
dock_pv

> <s_m_subgroupid>
dock_pv

> <b_m_subgroup_collapsed>
1

$$$$
CHEMBL3286_lig463
                    3D
 Schrodinger Suite 2021-1.
 34 36  0  0  1  0            999 V2000
   22.0215   17.0420   33.4792 C   0  0  0  0  0  0
   23.3272   16.9311   34.0759 C   0  0  0  0  0  0
   21.0443   18.0087   33.8738 C   0  0  0  0  0  0
   23.7845   17.8468   35.1753 C   0  0  0  0  0  0
   18.7769   19.1543   33.6112 C   0  0  0  0  0  0
   19.7855   18.1124   33.2502 C   0  0  0  0  0  0
   24.4440   17.2721   36.2190 O   0  0  0  0  0  0
   24.2255   15.9416   33.6247 C   0  0  0  0  0  0
   21.6685   16.1374   32.4323 C   0  0  0  0  0  0
   17.6720   19.2120   33.0201 N   0  0  0  0  0  0
   23.7082   19.2158   35.4039 C   0  0  0  0  0  0
   24.7660   18.2450   37.1018 C   0  0  0  0  0  0
   19.4884   17.1839   32.2413 C   0  0  0  0  0  0
   24.3246   19.4652   36.6324 C   0  0  0  0  0  0
   23.8450   15.0797   32.5902 C   0  0  0  0  0  0
   20.3932   16.2159   31.8372 C   0  0  0  0  0  0
   22.5973   15.1728   31.9974 C   0  0  0  0  0  0
   19.1239   20.0120   34.6198 N   0  0  0  0  0  0
   25.4795   15.8746   34.2135 O   0  0  0  0  0  0
   26.3537   14.7909   33.9205 C   0  0  0  0  0  0
   21.2879   18.6832   34.6778 H   0  0  0  0  0  0
   17.0917   19.9546   33.3901 H   0  0  0  0  0  0
   23.2512   19.9489   34.7537 H   0  0  0  0  0  0
   25.2907   17.9286   37.9905 H   0  0  0  0  0  0
   18.5356   17.2126   31.7316 H   0  0  0  0  0  0
   24.4353   20.4120   37.1323 H   0  0  0  0  0  0
   24.5186   14.3237   32.2172 H   0  0  0  0  0  0
   20.1297   15.5363   31.0386 H   0  0  0  0  0  0
   22.3282   14.4961   31.1983 H   0  0  0  0  0  0
   18.4333   20.6697   34.9609 H   0  0  0  0  0  0
   20.0784   20.1551   34.9255 H   0  0  0  0  0  0
   27.2441   14.8734   34.5448 H   0  0  0  0  0  0
   25.8876   13.8278   34.1357 H   0  0  0  0  0  0
   26.6801   14.8092   32.8795 H   0  0  0  0  0  0
  1  2  2  0  0  0
  1  3  1  0  0  0
  1  9  1  0  0  0
  2  4  1  0  0  0
  2  8  1  0  0  0
  3  6  2  0  0  0
  3 21  1  0  0  0
  4  7  1  0  0  0
  4 11  2  0  0  0
  5  6  1  0  0  0
  5 10  2  0  0  0
  5 18  1  0  0  0
  6 13  1  0  0  0
  7 12  1  0  0  0
  8 19  1  0  0  0
  8 15  2  0  0  0
  9 16  1  0  0  0
  9 17  2  0  0  0
 10 22  1  0  0  0
 11 14  1  0  0  0
 11 23  1  0  0  0
 12 14  2  0  0  0
 12 24  1  0  0  0
 13 16  2  0  0  0
 13 25  1  0  0  0
 14 26  1  0  0  0
 15 17  1  0  0  0
 15 27  1  0  0  0
 16 28  1  0  0  0
 17 29  1  0  0  0
 18 30  1  0  0  0
 18 31  1  0  0  0
 19 20  1  0  0  0
 20 32  1  0  0  0
 20 33  1  0  0  0
 20 34  1  0  0  0
M  END
> <s_m_entry_id>
42088

> <s_m_entry_name>
dock_pv.53

> <s_m_Source_Path>
/home/csk/Desktop/cluster/DUD-E-result/urok

> <s_m_Source_File>
dock_pv.maegz

> <i_m_Source_File_Index>
53

> <chembl_id>
CHEMBL418805

> <chembl_pref_name>
None

> <i_lp_mmshare_version>
53161

> <r_lp_tautomer_probability>
1

> <s_lp_Force_Field>
OPLS_2005

> <r_lp_Energy>
22.484378

> <b_lp_Chiralities_Consistent>
1

> <s_lp_Variant>
CHEMBL3286_lig463-1

> <s_i_glide_gridfile>
glide-grid_1sqt

> <i_i_glide_lignum>
612

> <i_i_glide_rotatable_bonds>
3

> <r_i_docking_score>
-6.86494073952866

> <r_i_glide_ligand_efficiency>
-0.343247036976433

> <r_i_glide_ligand_efficiency_sa>
-0.931715803082442

> <r_i_glide_ligand_efficiency_ln>
-1.71806824620476

> <r_i_glide_gscore>
-6.86494073952866

> <r_i_glide_lipo>
-2.48003314988609

> <r_i_glide_hbond>
-0.370562798025677

> <r_i_glide_metal>
0

> <r_i_glide_rewards>
-1.93556652750864

> <r_i_glide_evdw>
-30.0513019561768

> <r_i_glide_ecoul>
-5.51590919494629

> <r_i_glide_erotb>
0.251173212942532

> <r_i_glide_esite>
0

> <r_i_glide_emodel>
-50.4144183495884

> <r_i_glide_energy>
-35.567211151123

> <r_i_glide_einternal>
0.194786101579666

> <i_i_glide_confnum>
4

> <i_i_glide_posenum>
280

> <r_i_glide_eff_state_penalty>
0

> <s_user_duplicate_titles>
CHEMBL3286_lig463

> <i_f3d_flags>
0

> <s_m_subgroup_title>
dock_pv

> <s_m_subgroupid>
dock_pv

> <b_m_subgroup_collapsed>
1

$$$$
CHEMBL3286_lig743
                    3D
 Schrodinger Suite 2021-1.
 36 38  0  0  1  0            999 V2000
   21.4391   18.3466   34.3102 C   0  0  0  0  0  0
   20.1971   18.0506   33.7136 C   0  0  0  0  0  0
   20.0708   16.8181   33.0566 C   0  0  0  0  0  0
   21.1184   15.9116   32.9777 C   0  0  0  0  0  0
   22.3662   16.2094   33.5609 C   0  0  0  0  0  0
   23.4429   15.3025   33.4704 C   0  0  0  0  0  0
   24.6700   15.6138   34.0364 C   0  0  0  0  0  0
   24.8739   16.8238   34.7115 C   0  0  0  0  0  0
   23.8112   17.7392   34.8366 C   0  0  0  0  0  0
   22.5419   17.4478   34.2466 C   0  0  0  0  0  0
   19.0342   18.9831   33.7497 C   0  0  0  0  0  0
   18.0309   18.8103   33.0170 N   0  0  0  0  0  0
   19.1282   20.0123   34.6376 N   0  0  0  0  0  0
   24.0029   18.9435   35.4911 O   0  0  0  0  0  0
   24.3816   18.9534   36.8186 C   0  0  0  0  0  0
   23.9745   17.9907   37.7515 C   0  0  0  0  0  0
   25.1552   20.0046   37.1983 N   0  0  0  0  0  0
   24.3548   18.0427   39.0543 N   0  0  0  0  0  0
   25.1466   19.0828   39.4216 C   0  0  0  0  0  0
   25.5404   20.0591   38.5021 C   0  0  0  0  0  0
   26.0906   17.1763   35.2708 O   0  0  0  0  0  0
   27.2195   16.3223   35.1122 C   0  0  0  0  0  0
   21.5910   19.2812   34.8294 H   0  0  0  0  0  0
   19.1356   16.5441   32.5873 H   0  0  0  0  0  0
   20.9827   14.9729   32.4621 H   0  0  0  0  0  0
   23.3087   14.3657   32.9483 H   0  0  0  0  0  0
   25.4658   14.8932   33.9308 H   0  0  0  0  0  0
   17.3399   19.5329   33.1669 H   0  0  0  0  0  0
   18.3346   20.6207   34.7907 H   0  0  0  0  0  0
   20.0162   20.3015   35.0363 H   0  0  0  0  0  0
   23.2920   17.2113   37.4692 H   0  0  0  0  0  0
   25.4487   19.1287   40.4583 H   0  0  0  0  0  0
   26.1613   20.8908   38.8003 H   0  0  0  0  0  0
   28.0766   16.7639   35.6207 H   0  0  0  0  0  0
   27.0484   15.3370   35.5485 H   0  0  0  0  0  0
   27.4852   16.2050   34.0599 H   0  0  0  0  0  0
  1  2  1  0  0  0
  1 10  2  0  0  0
  1 23  1  0  0  0
  2  3  2  0  0  0
  2 11  1  0  0  0
  3  4  1  0  0  0
  3 24  1  0  0  0
  4  5  2  0  0  0
  4 25  1  0  0  0
  5  6  1  0  0  0
  5 10  1  0  0  0
  6  7  2  0  0  0
  6 26  1  0  0  0
  7  8  1  0  0  0
  7 27  1  0  0  0
  8  9  2  0  0  0
  8 21  1  0  0  0
  9 10  1  0  0  0
  9 14  1  0  0  0
 11 12  2  0  0  0
 11 13  1  0  0  0
 12 28  1  0  0  0
 13 29  1  0  0  0
 13 30  1  0  0  0
 14 15  1  0  0  0
 15 16  1  0  0  0
 15 17  2  0  0  0
 16 18  2  0  0  0
 16 31  1  0  0  0
 17 20  1  0  0  0
 18 19  1  0  0  0
 19 20  2  0  0  0
 19 32  1  0  0  0
 20 33  1  0  0  0
 21 22  1  0  0  0
 22 34  1  0  0  0
 22 35  1  0  0  0
 22 36  1  0  0  0
M  END
> <s_m_entry_id>
42089

> <s_m_entry_name>
dock_pv.54

> <s_m_Source_Path>
/home/csk/Desktop/cluster/DUD-E-result/urok

> <s_m_Source_File>
dock_pv.maegz

> <i_m_Source_File_Index>
54

> <chembl_id>
CHEMBL559895

> <chembl_pref_name>
None

> <i_lp_mmshare_version>
53161

> <r_lp_tautomer_probability>
1

> <s_lp_Force_Field>
OPLS_2005

> <r_lp_Energy>
22.246744

> <b_lp_Chiralities_Consistent>
1

> <s_lp_Variant>
CHEMBL3286_lig743-1

> <s_i_glide_gridfile>
glide-grid_1sqt

> <i_i_glide_lignum>
993

> <i_i_glide_rotatable_bonds>
4

> <r_i_docking_score>
-6.85279699117934

> <r_i_glide_ligand_efficiency>
-0.311490772326334

> <r_i_glide_ligand_efficiency_sa>
-0.872809394295313

> <r_i_glide_ligand_efficiency_ln>
-1.67507354648787

> <r_i_glide_gscore>
-6.85279699117934

> <r_i_glide_lipo>
-2.43676846179494

> <r_i_glide_hbond>
-0.466116721613622

> <r_i_glide_metal>
0

> <r_i_glide_rewards>
-1.84997204960712

> <r_i_glide_evdw>
-34.5004081726074

> <r_i_glide_ecoul>
-5.31439018249512

> <r_i_glide_erotb>
0.422239177840972

> <r_i_glide_esite>
0

> <r_i_glide_emodel>
-53.9106891443979

> <r_i_glide_energy>
-39.8147983551025

> <r_i_glide_einternal>
5.04689168930054

> <i_i_glide_confnum>
4

> <i_i_glide_posenum>
143

> <r_i_glide_eff_state_penalty>
0

> <s_user_duplicate_titles>
CHEMBL3286_lig743

> <i_f3d_flags>
0

> <s_m_subgroup_title>
dock_pv

> <s_m_subgroupid>
dock_pv

> <b_m_subgroup_collapsed>
1

$$$$
CHEMBL3286_lig150
                    3D
 Schrodinger Suite 2021-1.
 38 38  0  0  1  0            999 V2000
   22.9946   17.6371   32.6414 C   0  0  0  0  0  0
   23.0637   16.2490   32.4223 C   0  0  0  0  0  0
   21.9540   15.4784   32.5499 N   0  0  0  0  0  0
   20.7883   16.0689   32.9064 C   0  0  0  0  0  0
   20.7083   17.4527   33.1607 C   0  0  0  0  0  0
   21.8285   18.2210   33.0193 N   0  0  0  0  0  0
   24.3696   18.6705   32.4515 Cl  0  0  0  0  0  0
   19.6991   15.2120   33.0200 N   0  0  0  0  0  0
   19.4263   18.1381   33.6158 C   0  0  0  0  0  0
   18.3895   17.4895   33.8200 O   0  0  0  0  0  0
   19.5449   19.5022   33.8694 N   0  0  0  0  0  0
   18.5533   20.2986   33.9551 C   0  0  0  0  0  0
   18.7240   21.6641   34.2200 N   0  0  0  0  0  0
   17.1837   20.0120   33.8200 N   0  0  0  0  0  0
   24.2501   15.5624   32.0760 N   0  0  0  0  0  0
   25.2915   15.5398   33.1177 C   0  0  0  0  0  0
   24.7895   15.3166   34.5570 C   0  0  0  0  0  0
   24.6813   15.6573   30.6649 C   0  0  0  0  0  0
   23.5240   15.5816   29.6446 C   0  0  0  0  0  0
   25.7489   14.6089   30.2849 C   0  0  0  0  0  0
   18.8423   15.6085   33.3936 H   0  0  0  0  0  0
   19.8672   14.2145   33.0200 H   0  0  0  0  0  0
   19.6299   21.9003   34.6081 H   0  0  0  0  0  0
   17.9932   22.0665   34.8013 H   0  0  0  0  0  0
   16.9023   19.0866   33.5525 H   0  0  0  0  0  0
   16.5007   20.4739   34.4184 H   0  0  0  0  0  0
   25.9819   14.7255   32.9007 H   0  0  0  0  0  0
   25.8788   16.4574   33.0717 H   0  0  0  0  0  0
   25.6288   15.2120   35.2443 H   0  0  0  0  0  0
   24.1881   16.1530   34.9137 H   0  0  0  0  0  0
   24.1853   14.4120   34.6200 H   0  0  0  0  0  0
   25.1429   16.6392   30.5468 H   0  0  0  0  0  0
   23.8902   15.6146   28.6200 H   0  0  0  0  0  0
   22.8278   16.4120   29.7517 H   0  0  0  0  0  0
   22.9536   14.6602   29.7589 H   0  0  0  0  0  0
   25.9976   14.6606   29.2239 H   0  0  0  0  0  0
   26.6827   14.7640   30.8244 H   0  0  0  0  0  0
   25.4031   13.5959   30.4931 H   0  0  0  0  0  0
  1  6  1  0  0  0
  1  7  1  0  0  0
  1  2  2  0  0  0
  2  3  1  0  0  0
  2 15  1  0  0  0
  3  4  2  0  0  0
  4  5  1  0  0  0
  4  8  1  0  0  0
  5  6  2  0  0  0
  5  9  1  0  0  0
  8 21  1  0  0  0
  8 22  1  0  0  0
  9 11  1  0  0  0
  9 10  2  0  0  0
 11 12  2  0  0  0
 12 14  1  0  0  0
 12 13  1  0  0  0
 13 24  1  0  0  0
 13 23  1  0  0  0
 14 26  1  0  0  0
 14 25  1  0  0  0
 15 16  1  0  0  0
 15 18  1  0  0  0
 16 17  1  0  0  0
 16 27  1  0  0  0
 16 28  1  0  0  0
 17 29  1  0  0  0
 17 30  1  0  0  0
 17 31  1  0  0  0
 18 19  1  0  0  0
 18 20  1  0  0  0
 18 32  1  0  0  0
 19 33  1  0  0  0
 19 34  1  0  0  0
 19 35  1  0  0  0
 20 36  1  0  0  0
 20 37  1  0  0  0
 20 38  1  0  0  0
M  END
> <s_m_entry_id>
42090

> <s_m_entry_name>
dock_pv.55

> <s_m_Source_Path>
/home/csk/Desktop/cluster/DUD-E-result/urok

> <s_m_Source_File>
dock_pv.maegz

> <i_m_Source_File_Index>
55

> <chembl_id>
CHEMBL1909809

> <chembl_pref_name>
None

> <i_lp_mmshare_version>
53161

> <r_lp_tautomer_probability>
0.499994999999877

> <s_lp_Force_Field>
OPLS_2005

> <r_lp_Energy>
35.27182

> <b_lp_Chiralities_Consistent>
1

> <s_lp_Variant>
CHEMBL3286_lig150-1

> <s_i_glide_gridfile>
glide-grid_1sqt

> <i_i_glide_lignum>
226

> <i_i_glide_rotatable_bonds>
5

> <r_i_docking_score>
-6.85213272520868

> <r_i_glide_ligand_efficiency>
-0.342606636260434

> <r_i_glide_ligand_efficiency_sa>
-0.929977488098992

> <r_i_glide_ligand_efficiency_ln>
-1.71486282265705

> <r_i_glide_gscore>
-6.85213272520868

> <r_i_glide_lipo>
-1.09987956310425

> <r_i_glide_hbond>
-1.51277673048223

> <r_i_glide_metal>
0

> <r_i_glide_rewards>
-1.87981617223993

> <r_i_glide_evdw>
-29.8866577148438

> <r_i_glide_ecoul>
-8.61558532714844

> <r_i_glide_erotb>
0.613359767943539

> <r_i_glide_esite>
-0.186349342511364

> <r_i_glide_emodel>
-53.4653886859432

> <r_i_glide_energy>
-38.5022430419922

> <r_i_glide_einternal>
3.71331834793091

> <i_i_glide_confnum>
16

> <i_i_glide_posenum>
370

> <r_i_glide_eff_state_penalty>
0

> <s_user_duplicate_titles>
CHEMBL3286_lig150

> <i_f3d_flags>
0

> <s_m_subgroup_title>
dock_pv

> <s_m_subgroupid>
dock_pv

> <b_m_subgroup_collapsed>
1

$$$$
CHEMBL3286_lig466
                    3D
 Schrodinger Suite 2021-1.
 23 24  0  0  1  0            999 V2000
   18.8165   19.1124   33.4233 C   0  0  0  0  0  0
   20.0711   18.3183   33.5735 C   0  0  0  0  0  0
   20.4190   17.3453   32.6202 C   0  0  0  0  0  0
   17.9238   18.7409   32.6209 N   0  0  0  0  0  0
   21.6010   16.5722   32.7292 C   0  0  0  0  0  0
   20.9406   18.4873   34.6613 C   0  0  0  0  0  0
   22.4561   16.7677   33.8521 C   0  0  0  0  0  0
   22.1020   17.7361   34.8149 C   0  0  0  0  0  0
   18.7240   20.2287   34.2202 N   0  0  0  0  0  0
   21.9583   15.6131   31.7502 C   0  0  0  0  0  0
   23.6360   15.9911   33.9671 C   0  0  0  0  0  0
   23.1268   14.8693   31.8876 C   0  0  0  0  0  0
   23.9564   15.0533   32.9887 C   0  0  0  0  0  0
   19.7845   17.1737   31.7613 H   0  0  0  0  0  0
   17.1316   19.3632   32.6255 H   0  0  0  0  0  0
   20.7189   19.2120   35.4302 H   0  0  0  0  0  0
   22.7379   17.8963   35.6723 H   0  0  0  0  0  0
   17.8550   20.7437   34.2971 H   0  0  0  0  0  0
   19.5096   20.5520   34.7701 H   0  0  0  0  0  0
   21.3201   15.4662   30.8915 H   0  0  0  0  0  0
   24.2897   16.1353   34.8153 H   0  0  0  0  0  0
   23.3957   14.1478   31.1300 H   0  0  0  0  0  0
   24.8606   14.4700   33.0796 H   0  0  0  0  0  0
  1  2  1  0  0  0
  1  4  2  0  0  0
  1  9  1  0  0  0
  2  3  2  0  0  0
  2  6  1  0  0  0
  3  5  1  0  0  0
  3 14  1  0  0  0
  4 15  1  0  0  0
  5 10  2  0  0  0
  5  7  1  0  0  0
  6  8  2  0  0  0
  6 16  1  0  0  0
  7  8  1  0  0  0
  7 11  2  0  0  0
  8 17  1  0  0  0
  9 18  1  0  0  0
  9 19  1  0  0  0
 10 12  1  0  0  0
 10 20  1  0  0  0
 11 13  1  0  0  0
 11 21  1  0  0  0
 12 13  2  0  0  0
 12 22  1  0  0  0
 13 23  1  0  0  0
M  END
> <s_m_entry_id>
42091

> <s_m_entry_name>
dock_pv.56

> <s_m_Source_Path>
/home/csk/Desktop/cluster/DUD-E-result/urok

> <s_m_Source_File>
dock_pv.maegz

> <i_m_Source_File_Index>
56

> <chembl_id>
CHEMBL105171

> <chembl_pref_name>
None

> <i_lp_mmshare_version>
53161

> <r_lp_tautomer_probability>
1

> <s_lp_Force_Field>
OPLS_2005

> <r_lp_Energy>
6.051195

> <b_lp_Chiralities_Consistent>
1

> <s_lp_Variant>
CHEMBL3286_lig466-1

> <s_i_glide_gridfile>
glide-grid_1sqt

> <i_i_glide_lignum>
615

> <i_i_glide_rotatable_bonds>
1

> <r_i_docking_score>
-6.84982148083729

> <r_i_glide_ligand_efficiency>
-0.526909344679792

> <r_i_glide_ligand_efficiency_sa>
-1.23894021837053

> <r_i_glide_ligand_efficiency_ln>
-1.92143584494417

> <r_i_glide_gscore>
-6.84982148083729

> <r_i_glide_lipo>
-1.82332284098322

> <r_i_glide_hbond>
-0.371298657978252

> <r_i_glide_metal>
0

> <r_i_glide_rewards>
-2.67147944698041

> <r_i_glide_evdw>
-26.4331130981445

> <r_i_glide_ecoul>
-4.40685319900513

> <r_i_glide_erotb>
0

> <r_i_glide_esite>
-0.00103690013740558

> <r_i_glide_emodel>
-43.5923405630221

> <r_i_glide_energy>
-30.8399662971497

> <r_i_glide_einternal>
0.194781199097633

> <i_i_glide_confnum>
1

> <i_i_glide_posenum>
320

> <r_i_glide_eff_state_penalty>
0

> <s_user_duplicate_titles>
CHEMBL3286_lig466

> <i_f3d_flags>
0

> <s_m_subgroup_title>
dock_pv

> <s_m_subgroupid>
dock_pv

> <b_m_subgroup_collapsed>
1

$$$$
CHEMBL3286_lig905
                    3D
 Schrodinger Suite 2021-1.
 55 57  0  0  1  0            999 V2000
   22.9365   17.5217   32.7968 C   0  0  0  0  0  0
   22.9341   16.1915   32.3397 C   0  0  0  0  0  0
   21.7923   15.4537   32.4141 N   0  0  0  0  0  0
   20.6590   16.0419   32.8620 C   0  0  0  0  0  0
   20.6361   17.3939   33.2473 C   0  0  0  0  0  0
   21.7921   18.1121   33.2271 N   0  0  0  0  0  0
   19.5478   15.2120   32.9478 N   0  0  0  0  0  0
   24.1016   15.5409   31.8976 N   0  0  0  0  0  0
   19.3739   18.1032   33.7029 C   0  0  0  0  0  0
   19.5161   19.4658   33.9499 N   0  0  0  0  0  0
   18.3240   17.4730   33.8851 O   0  0  0  0  0  0
   18.5372   20.2807   33.9872 C   0  0  0  0  0  0
   18.7240   21.6499   34.2200 N   0  0  0  0  0  0
   17.1671   20.0120   33.8200 N   0  0  0  0  0  0
   23.9463   14.5379   30.8346 C   0  0  0  0  0  0
   25.0878   14.4950   29.8016 C   0  0  0  0  0  0
   25.0637   15.2594   32.9754 C   0  0  0  0  0  0
   26.3546   13.7527   30.2570 C   0  0  0  0  0  0
   26.1230   14.1532   32.7941 C   0  0  0  0  0  0
   27.0082   14.2841   31.5425 C   0  0  0  0  0  0
   24.1257   18.4120   32.8096 C   0  0  0  0  0  0
   24.5669   19.0550   33.9764 C   0  0  0  0  0  0
   25.6286   19.9159   33.9638 N   0  0  0  0  0  0
   26.2895   20.1621   32.8204 N   0  0  0  0  0  0
   25.9232   19.5384   31.6696 C   0  0  0  0  0  0
   24.8407   18.6508   31.6354 C   0  0  0  0  0  0
   23.9225   18.7940   35.1750 O   0  0  0  0  0  0
   24.4410   19.3240   36.3903 C   0  0  0  0  0  0
   26.7010   19.8715   30.5808 O   0  0  0  0  0  0
   26.4516   19.2121   29.3428 C   0  0  0  0  0  0
   18.7289   15.6158   33.3923 H   0  0  0  0  0  0
   19.7037   14.2135   32.9434 H   0  0  0  0  0  0
   19.6248   21.8911   34.6170 H   0  0  0  0  0  0
   17.9941   22.0734   34.7870 H   0  0  0  0  0  0
   16.8734   19.0881   33.5615 H   0  0  0  0  0  0
   16.4839   20.4891   34.4064 H   0  0  0  0  0  0
   23.7212   13.5666   31.2751 H   0  0  0  0  0  0
   23.0788   14.8115   30.2295 H   0  0  0  0  0  0
   24.7250   14.0130   28.8924 H   0  0  0  0  0  0
   25.3587   15.5128   29.5156 H   0  0  0  0  0  0
   25.5105   16.1798   33.3518 H   0  0  0  0  0  0
   24.4608   14.8511   33.7897 H   0  0  0  0  0  0
   26.1222   12.6950   30.3873 H   0  0  0  0  0  0
   27.0877   13.7922   29.4497 H   0  0  0  0  0  0
   26.7816   14.2101   33.6619 H   0  0  0  0  0  0
   25.6712   13.1629   32.8712 H   0  0  0  0  0  0
   27.3125   15.3236   31.4063 H   0  0  0  0  0  0
   27.9314   13.7258   31.7079 H   0  0  0  0  0  0
   24.5358   18.1634   30.7224 H   0  0  0  0  0  0
   23.7982   19.0269   37.2186 H   0  0  0  0  0  0
   25.4437   18.9439   36.5914 H   0  0  0  0  0  0
   24.4738   20.4120   36.3680 H   0  0  0  0  0  0
   27.1240   19.6013   28.5817 H   0  0  0  0  0  0
   26.6245   18.1373   29.4203 H   0  0  0  0  0  0
   25.4332   19.3865   28.9921 H   0  0  0  0  0  0
  1  2  2  0  0  0
  1  6  1  0  0  0
  1 21  1  0  0  0
  2  3  1  0  0  0
  2  8  1  0  0  0
  3  4  2  0  0  0
  4  5  1  0  0  0
  4  7  1  0  0  0
  5  6  2  0  0  0
  5  9  1  0  0  0
  7 31  1  0  0  0
  7 32  1  0  0  0
  8 15  1  0  0  0
  8 17  1  0  0  0
  9 10  1  0  0  0
  9 11  2  0  0  0
 10 12  2  0  0  0
 12 14  1  0  0  0
 12 13  1  0  0  0
 13 34  1  0  0  0
 13 33  1  0  0  0
 14 36  1  0  0  0
 14 35  1  0  0  0
 15 16  1  0  0  0
 15 37  1  0  0  0
 15 38  1  0  0  0
 16 18  1  0  0  0
 16 39  1  0  0  0
 16 40  1  0  0  0
 17 19  1  0  0  0
 17 41  1  0  0  0
 17 42  1  0  0  0
 18 20  1  0  0  0
 18 43  1  0  0  0
 18 44  1  0  0  0
 19 20  1  0  0  0
 19 45  1  0  0  0
 19 46  1  0  0  0
 20 47  1  0  0  0
 20 48  1  0  0  0
 21 22  2  0  0  0
 21 26  1  0  0  0
 22 23  1  0  0  0
 22 27  1  0  0  0
 23 24  2  0  0  0
 24 25  1  0  0  0
 25 26  2  0  0  0
 25 29  1  0  0  0
 26 49  1  0  0  0
 27 28  1  0  0  0
 28 50  1  0  0  0
 28 51  1  0  0  0
 28 52  1  0  0  0
 29 30  1  0  0  0
 30 53  1  0  0  0
 30 54  1  0  0  0
 30 55  1  0  0  0
M  END
> <s_m_entry_id>
42092

> <s_m_entry_name>
dock_pv.57

> <s_m_Source_Path>
/home/csk/Desktop/cluster/DUD-E-result/urok

> <s_m_Source_File>
dock_pv.maegz

> <i_m_Source_File_Index>
57

> <chembl_id>
CHEMBL4216389

> <chembl_pref_name>
None

> <i_lp_mmshare_version>
53161

> <r_lp_tautomer_probability>
0.499994999999877

> <s_lp_Force_Field>
OPLS_2005

> <r_lp_Energy>
56.071293

> <b_lp_Chiralities_Consistent>
1

> <s_lp_Variant>
CHEMBL3286_lig905-1

> <s_i_glide_gridfile>
glide-grid_1sqt

> <i_i_glide_lignum>
1213

> <i_i_glide_rotatable_bonds>
6

> <r_i_docking_score>
-6.83556523039145

> <r_i_glide_ligand_efficiency>
-0.227852174346382

> <r_i_glide_ligand_efficiency_sa>
-0.707989681878672

> <r_i_glide_ligand_efficiency_ln>
-1.55311489979346

> <r_i_glide_gscore>
-6.83556523039145

> <r_i_glide_lipo>
-1.05810952028903

> <r_i_glide_hbond>
-1.52357971041782

> <r_i_glide_metal>
0

> <r_i_glide_rewards>
-1.1120310704459

> <r_i_glide_evdw>
-39.7018737792969

> <r_i_glide_ecoul>
-9.09837532043457

> <r_i_glide_erotb>
0.457637414790633

> <r_i_glide_esite>
-0.249632356999305

> <r_i_glide_emodel>
-63.9399019409645

> <r_i_glide_energy>
-48.8002490997314

> <r_i_glide_einternal>
9.35215663909912

> <i_i_glide_confnum>
16

> <i_i_glide_posenum>
138

> <r_i_glide_eff_state_penalty>
0

> <s_user_duplicate_titles>
CHEMBL3286_lig905

> <i_f3d_flags>
1

> <s_m_subgroup_title>
dock_pv

> <s_m_subgroupid>
dock_pv

> <b_m_subgroup_collapsed>
1

$$$$
CHEMBL3286_lig729
                    3D
 Schrodinger Suite 2021-1.
 23 23  0  0  1  0            999 V2000
   21.4516   16.1688   32.8980 C   0  0  0  0  0  0
   20.3316   17.1863   33.0258 C   0  0  0  0  0  0
   20.3859   18.2379   33.9699 C   0  0  0  0  0  0
   19.3585   19.1794   34.0337 C   0  0  0  0  0  0
   18.2728   19.1003   33.1692 C   0  0  0  0  0  0
   18.1941   18.0685   32.2372 C   0  0  0  0  0  0
   19.2098   17.1126   32.1774 C   0  0  0  0  0  0
   22.0760   15.7610   33.8835 O   0  0  0  0  0  0
   21.7010   15.7123   31.6090 N   0  0  0  0  0  0
   22.8882   15.6416   31.1397 C   0  0  0  0  0  0
   23.1240   15.2261   29.8200 N   0  0  0  0  0  0
   24.1102   15.9491   31.7814 N   0  0  0  0  0  0
   16.7240   18.0120   31.0200 Br  0  0  0  0  0  0
   21.4501   18.4120   34.8569 N   0  0  0  0  0  0
   19.3971   19.9879   34.7510 H   0  0  0  0  0  0
   17.4902   19.8436   33.2278 H   0  0  0  0  0  0
   19.1293   16.3294   31.4368 H   0  0  0  0  0  0
   22.2902   15.2120   29.2330 H   0  0  0  0  0  0
   23.8737   15.6785   29.3196 H   0  0  0  0  0  0
   24.9055   15.3837   31.5277 H   0  0  0  0  0  0
   24.0575   16.0511   32.7854 H   0  0  0  0  0  0
   21.4893   19.2542   35.4193 H   0  0  0  0  0  0
   22.1809   17.7135   34.8824 H   0  0  0  0  0  0
  1  9  1  0  0  0
  1  8  2  0  0  0
  1  2  1  0  0  0
  2  3  1  0  0  0
  2  7  2  0  0  0
  3  4  2  0  0  0
  3 14  1  0  0  0
  4  5  1  0  0  0
  4 15  1  0  0  0
  5  6  2  0  0  0
  5 16  1  0  0  0
  6  7  1  0  0  0
  6 13  1  0  0  0
  7 17  1  0  0  0
  9 10  2  0  0  0
 10 12  1  0  0  0
 10 11  1  0  0  0
 11 19  1  0  0  0
 11 18  1  0  0  0
 12 21  1  0  0  0
 12 20  1  0  0  0
 14 22  1  0  0  0
 14 23  1  0  0  0
M  END
> <s_m_entry_id>
42093

> <s_m_entry_name>
dock_pv.58

> <s_m_Source_Path>
/home/csk/Desktop/cluster/DUD-E-result/urok

> <s_m_Source_File>
dock_pv.maegz

> <i_m_Source_File_Index>
58

> <chembl_id>
CHEMBL561490

> <chembl_pref_name>
None

> <i_lp_mmshare_version>
53161

> <r_lp_tautomer_probability>
0.499995

> <s_lp_Force_Field>
OPLS_2005

> <r_lp_Energy>
19.773465

> <b_lp_Chiralities_Consistent>
1

> <s_lp_Variant>
CHEMBL3286_lig729-1

> <s_i_glide_gridfile>
glide-grid_1sqt

> <i_i_glide_lignum>
979

> <i_i_glide_rotatable_bonds>
2

> <r_i_docking_score>
-6.83161858496143

> <r_i_glide_ligand_efficiency>
-0.487972756068673

> <r_i_glide_ligand_efficiency_sa>
-1.1760837621326

> <r_i_glide_ligand_efficiency_ln>
-1.87730446821065

> <r_i_glide_gscore>
-6.83161858496143

> <r_i_glide_lipo>
-2.37845581738907

> <r_i_glide_hbond>
-0.462217070377062

> <r_i_glide_metal>
0

> <r_i_glide_rewards>
-2.02716037552495

> <r_i_glide_evdw>
-30.2177295684814

> <r_i_glide_ecoul>
-6.57768583297729

> <r_i_glide_erotb>
0.533754031700331

> <r_i_glide_esite>
0

> <r_i_glide_emodel>
-50.1460647945729

> <r_i_glide_energy>
-36.7954154014587

> <r_i_glide_einternal>
2.78011465072632

> <i_i_glide_confnum>
4

> <i_i_glide_posenum>
231

> <r_i_glide_eff_state_penalty>
0

> <s_user_duplicate_titles>
CHEMBL3286_lig729

> <i_f3d_flags>
1

> <s_m_subgroup_title>
dock_pv

> <s_m_subgroupid>
dock_pv

> <b_m_subgroup_collapsed>
1

$$$$
CHEMBL3286_lig900
                    3D
 Schrodinger Suite 2021-1.
 48 50  0  0  1  0            999 V2000
   23.9950   17.6235   33.2603 C   0  0  0  0  0  0
   22.7458   17.1210   32.8304 C   0  0  0  0  0  0
   22.6418   16.5214   31.6091 N   0  0  0  0  0  0
   23.7378   16.3906   30.8322 C   0  0  0  0  0  0
   24.9840   16.8649   31.2692 C   0  0  0  0  0  0
   25.0986   17.4762   32.4787 N   0  0  0  0  0  0
   23.5241   15.8049   29.5847 N   0  0  0  0  0  0
   21.5592   17.2483   33.5844 N   0  0  0  0  0  0
   26.2581   16.7029   30.4670 C   0  0  0  0  0  0
   27.2017   17.7221   30.4811 N   0  0  0  0  0  0
   26.4683   15.6792   29.8202 O   0  0  0  0  0  0
   26.9212   18.9331   30.1943 C   0  0  0  0  0  0
   27.9173   19.9204   30.2201 N   0  0  0  0  0  0
   25.6752   19.4913   29.8199 N   0  0  0  0  0  0
   21.1227   18.6368   33.8193 C   0  0  0  0  0  0
   19.6531   18.9299   34.1951 C   0  0  0  0  0  0
   20.5348   16.2106   33.3969 C   0  0  0  0  0  0
   18.6273   18.7439   33.0700 C   0  0  0  0  0  0
   19.5065   16.4184   32.2726 C   0  0  0  0  0  0
   18.3212   17.2877   32.6892 C   0  0  0  0  0  0
   24.2558   18.2676   34.5859 C   0  0  0  0  0  0
   25.0158   19.4457   34.7238 C   0  0  0  0  0  0
   25.2820   20.0119   35.9295 N   0  0  0  0  0  0
   24.7876   19.4240   37.0458 C   0  0  0  0  0  0
   24.0157   18.2678   37.0036 C   0  0  0  0  0  0
   23.7481   17.6979   35.7615 C   0  0  0  0  0  0
   25.5042   20.0702   33.6254 F   0  0  0  0  0  0
   24.3174   15.6160   28.9824 H   0  0  0  0  0  0
   22.5746   15.6116   29.2804 H   0  0  0  0  0  0
   28.8535   19.5706   30.3507 H   0  0  0  0  0  0
   27.9204   20.5657   29.4383 H   0  0  0  0  0  0
   24.8617   18.9055   29.9324 H   0  0  0  0  0  0
   25.4745   20.4249   30.1428 H   0  0  0  0  0  0
   21.8113   19.1924   34.4571 H   0  0  0  0  0  0
   21.1962   19.1040   32.8351 H   0  0  0  0  0  0
   19.3555   18.2917   35.0200 H   0  0  0  0  0  0
   19.5812   19.9548   34.5633 H   0  0  0  0  0  0
   21.0136   15.2353   33.2902 H   0  0  0  0  0  0
   20.0304   16.1048   34.3567 H   0  0  0  0  0  0
   17.6936   19.2243   33.3681 H   0  0  0  0  0  0
   18.9609   19.2955   32.1977 H   0  0  0  0  0  0
   19.9764   16.9033   31.4194 H   0  0  0  0  0  0
   19.1299   15.4530   31.9350 H   0  0  0  0  0  0
   17.5903   17.2932   31.8789 H   0  0  0  0  0  0
   17.8234   16.7995   33.5273 H   0  0  0  0  0  0
   25.0117   19.9028   37.9877 H   0  0  0  0  0  0
   23.6217   17.8309   37.9092 H   0  0  0  0  0  0
   23.1366   16.8118   35.7113 H   0  0  0  0  0  0
  1  2  2  0  0  0
  1  6  1  0  0  0
  1 21  1  0  0  0
  2  3  1  0  0  0
  2  8  1  0  0  0
  3  4  2  0  0  0
  4  5  1  0  0  0
  4  7  1  0  0  0
  5  6  2  0  0  0
  5  9  1  0  0  0
  7 28  1  0  0  0
  7 29  1  0  0  0
  8 15  1  0  0  0
  8 17  1  0  0  0
  9 10  1  0  0  0
  9 11  2  0  0  0
 10 12  2  0  0  0
 12 14  1  0  0  0
 12 13  1  0  0  0
 13 31  1  0  0  0
 13 30  1  0  0  0
 14 33  1  0  0  0
 14 32  1  0  0  0
 15 16  1  0  0  0
 15 34  1  0  0  0
 15 35  1  0  0  0
 16 18  1  0  0  0
 16 36  1  0  0  0
 16 37  1  0  0  0
 17 19  1  0  0  0
 17 38  1  0  0  0
 17 39  1  0  0  0
 18 20  1  0  0  0
 18 40  1  0  0  0
 18 41  1  0  0  0
 19 20  1  0  0  0
 19 42  1  0  0  0
 19 43  1  0  0  0
 20 44  1  0  0  0
 20 45  1  0  0  0
 21 22  2  0  0  0
 21 26  1  0  0  0
 22 23  1  0  0  0
 22 27  1  0  0  0
 23 24  2  0  0  0
 24 25  1  0  0  0
 24 46  1  0  0  0
 25 26  2  0  0  0
 25 47  1  0  0  0
 26 48  1  0  0  0
M  END
> <s_m_entry_id>
42094

> <s_m_entry_name>
dock_pv.59

> <s_m_Source_Path>
/home/csk/Desktop/cluster/DUD-E-result/urok

> <s_m_Source_File>
dock_pv.maegz

> <i_m_Source_File_Index>
59

> <chembl_id>
CHEMBL4204836

> <chembl_pref_name>
None

> <i_lp_mmshare_version>
53161

> <r_lp_tautomer_probability>
0.499994999999877

> <s_lp_Force_Field>
OPLS_2005

> <r_lp_Energy>
48.483297

> <b_lp_Chiralities_Consistent>
1

> <s_lp_Variant>
CHEMBL3286_lig900-1

> <s_i_glide_gridfile>
glide-grid_1sqt

> <i_i_glide_lignum>
1208

> <i_i_glide_rotatable_bonds>
4

> <r_i_docking_score>
-6.83022331031596

> <r_i_glide_ligand_efficiency>
-0.252971233715406

> <r_i_glide_ligand_efficiency_sa>
-0.758913700312466

> <r_i_glide_ligand_efficiency_ln>
-1.58996338160972

> <r_i_glide_gscore>
-6.83022331031596

> <r_i_glide_lipo>
-2.50051698267935

> <r_i_glide_hbond>
-0.608

> <r_i_glide_metal>
0

> <r_i_glide_rewards>
-1.17669431920501

> <r_i_glide_evdw>
-42.3457794189453

> <r_i_glide_ecoul>
-6.05281019210815

> <r_i_glide_erotb>
0.557065707868129

> <r_i_glide_esite>
-0.0768672165362468

> <r_i_glide_emodel>
-67.3834077796293

> <r_i_glide_energy>
-48.3985896110535

> <r_i_glide_einternal>
1.20562243461609

> <i_i_glide_confnum>
31

> <i_i_glide_posenum>
136

> <r_i_glide_eff_state_penalty>
0

> <s_user_duplicate_titles>
CHEMBL3286_lig900

> <i_f3d_flags>
1

> <s_m_subgroup_title>
dock_pv

> <s_m_subgroupid>
dock_pv

> <b_m_subgroup_collapsed>
1

$$$$
CHEMBL3286_lig539
                    3D
 Schrodinger Suite 2021-1.
 24 25  0  0  1  0            999 V2000
   20.1809   19.2120   34.0688 N   0  0  0  0  0  0
   20.8024   17.9652   33.8587 C   0  0  0  0  0  0
   18.8695   19.6905   33.8200 C   0  0  0  0  0  0
   22.1877   17.8058   34.1665 C   0  0  0  0  0  0
   20.0408   16.9498   33.3735 N   0  0  0  0  0  0
   23.0146   18.8413   34.6848 C   0  0  0  0  0  0
   22.7690   16.5199   33.9323 C   0  0  0  0  0  0
   17.9240   19.0493   33.3115 N   0  0  0  0  0  0
   18.7240   21.0263   34.2200 N   0  0  0  0  0  0
   24.1408   16.3141   34.2200 C   0  0  0  0  0  0
   24.3556   18.6039   34.9656 C   0  0  0  0  0  0
   20.6118   15.7443   33.1670 C   0  0  0  0  0  0
   24.9147   17.3513   34.7355 C   0  0  0  0  0  0
   25.4250   20.0120   35.6690 Br  0  0  0  0  0  0
   21.9538   15.4816   33.4199 C   0  0  0  0  0  0
   20.7919   19.9066   34.4710 H   0  0  0  0  0  0
   22.6078   19.8251   34.8633 H   0  0  0  0  0  0
   17.0869   19.6122   33.2469 H   0  0  0  0  0  0
   17.7888   21.3750   34.4054 H   0  0  0  0  0  0
   19.3923   21.3985   34.8825 H   0  0  0  0  0  0
   24.5821   15.3442   34.0420 H   0  0  0  0  0  0
   19.9591   14.9696   32.7919 H   0  0  0  0  0  0
   25.9587   17.1825   34.9565 H   0  0  0  0  0  0
   22.3680   14.5012   33.2359 H   0  0  0  0  0  0
  1  2  1  0  0  0
  1  3  1  0  0  0
  1 16  1  0  0  0
  2  4  1  0  0  0
  2  5  2  0  0  0
  3  8  2  0  0  0
  3  9  1  0  0  0
  4  6  2  0  0  0
  4  7  1  0  0  0
  5 12  1  0  0  0
  6 11  1  0  0  0
  6 17  1  0  0  0
  7 10  2  0  0  0
  7 15  1  0  0  0
  8 18  1  0  0  0
  9 19  1  0  0  0
  9 20  1  0  0  0
 10 13  1  0  0  0
 10 21  1  0  0  0
 11 14  1  0  0  0
 11 13  2  0  0  0
 12 15  2  0  0  0
 12 22  1  0  0  0
 13 23  1  0  0  0
 15 24  1  0  0  0
M  END
> <s_m_entry_id>
42095

> <s_m_entry_name>
dock_pv.60

> <s_m_Source_Path>
/home/csk/Desktop/cluster/DUD-E-result/urok

> <s_m_Source_File>
dock_pv.maegz

> <i_m_Source_File_Index>
60

> <chembl_id>
CHEMBL321848

> <chembl_pref_name>
None

> <i_lp_mmshare_version>
53161

> <r_lp_tautomer_probability>
1

> <s_lp_Force_Field>
OPLS_2005

> <r_lp_Energy>
-0.611507

> <b_lp_Chiralities_Consistent>
1

> <s_lp_Variant>
CHEMBL3286_lig539-1

> <s_i_glide_gridfile>
glide-grid_1sqt

> <i_i_glide_lignum>
703

> <i_i_glide_rotatable_bonds>
2

> <r_i_docking_score>
-6.81403019103807

> <r_i_glide_ligand_efficiency>
-0.454268679402538

> <r_i_glide_ligand_efficiency_sa>
-1.1203229011214

> <r_i_glide_ligand_efficiency_ln>
-1.83763159112911

> <r_i_glide_gscore>
-6.81403019103807

> <r_i_glide_lipo>
-1.56795948814006

> <r_i_glide_hbond>
-0.860175253431367

> <r_i_glide_metal>
0

> <r_i_glide_rewards>
-1.60152777272727

> <r_i_glide_evdw>
-27.7716369628906

> <r_i_glide_ecoul>
-10.450855255127

> <r_i_glide_erotb>
0.253115265885603

> <r_i_glide_esite>
-0.0812728062113972

> <r_i_glide_emodel>
-53.7340658029659

> <r_i_glide_energy>
-38.2224922180176

> <r_i_glide_einternal>
0.704704821109772

> <i_i_glide_confnum>
2

> <i_i_glide_posenum>
132

> <r_i_glide_eff_state_penalty>
0

> <s_user_duplicate_titles>
CHEMBL3286_lig539,181002

> <i_f3d_flags>
0

> <s_m_subgroup_title>
dock_pv

> <s_m_subgroupid>
dock_pv

> <b_m_subgroup_collapsed>
1

$$$$
CHEMBL3286_lig929 
                    3D
 Schrodinger Suite 2021-1.
 30 31  0  0  1  0            999 V2000
   21.9926   17.2393   33.9263 C   0  0  0  0  0  0
   23.0053   17.7738   34.7466 C   0  0  0  0  0  0
   24.1981   17.1485   34.9117 N   0  0  0  0  0  0
   24.4283   16.0080   34.2185 C   0  0  0  0  0  0
   23.4597   15.4913   33.3469 C   0  0  0  0  0  0
   22.2489   16.0946   33.2357 N   0  0  0  0  0  0
   25.6777   15.4188   34.4007 N   0  0  0  0  0  0
   22.8875   18.9810   35.4201 N   0  0  0  0  0  0
   23.6935   14.3074   32.4426 C   0  0  0  0  0  0
   23.2798   14.4731   31.1312 N   0  0  0  0  0  0
   24.2208   13.2673   32.8390 O   0  0  0  0  0  0
   24.0019   15.1219   30.3007 C   0  0  0  0  0  0
   23.5240   15.4418   29.0200 N   0  0  0  0  0  0
   25.3246   15.6020   30.4654 N   0  0  0  0  0  0
   20.6140   17.8205   33.6825 C   0  0  0  0  0  0
   19.5001   17.0388   32.5693 S   0  0  0  0  0  0
   18.3240   18.2823   32.7744 C   0  0  0  0  0  0
   18.7184   19.2139   33.7131 C   0  0  0  0  0  0
   19.9923   18.9535   34.2203 C   0  0  0  0  0  0
   25.8489   14.5142   33.9823 H   0  0  0  0  0  0
   26.3102   15.8186   35.0779 H   0  0  0  0  0  0
   22.0536   19.5433   35.3226 H   0  0  0  0  0  0
   23.6522   19.2791   36.0038 H   0  0  0  0  0  0
   22.5757   15.1761   28.7766 H   0  0  0  0  0  0
   24.1509   15.3656   28.2304 H   0  0  0  0  0  0
   25.8375   15.2644   31.2659 H   0  0  0  0  0  0
   25.9202   15.6119   29.6514 H   0  0  0  0  0  0
   17.3960   18.2533   32.2202 H   0  0  0  0  0  0
   18.1130   20.0571   34.0188 H   0  0  0  0  0  0
   20.4285   19.6056   34.9570 H   0  0  0  0  0  0
  1  2  2  0  0  0
  1  6  1  0  0  0
  1 15  1  0  0  0
  2  3  1  0  0  0
  2  8  1  0  0  0
  3  4  2  0  0  0
  4  5  1  0  0  0
  4  7  1  0  0  0
  5  6  2  0  0  0
  5  9  1  0  0  0
  7 20  1  0  0  0
  7 21  1  0  0  0
  8 22  1  0  0  0
  8 23  1  0  0  0
  9 10  1  0  0  0
  9 11  2  0  0  0
 10 12  2  0  0  0
 12 14  1  0  0  0
 12 13  1  0  0  0
 13 25  1  0  0  0
 13 24  1  0  0  0
 14 27  1  0  0  0
 14 26  1  0  0  0
 15 16  1  0  0  0
 15 19  2  0  0  0
 16 17  1  0  0  0
 17 18  2  0  0  0
 17 28  1  0  0  0
 18 19  1  0  0  0
 18 29  1  0  0  0
 19 30  1  0  0  0
M  END
> <s_m_entry_id>
42096

> <s_m_entry_name>
dock_pv.61

> <s_m_Source_Path>
/home/csk/Desktop/cluster/DUD-E-result/urok

> <s_m_Source_File>
dock_pv.maegz

> <i_m_Source_File_Index>
61

> <chembl_id>
CHEMBL4576924

> <chembl_pref_name>
None

> <i_lp_mmshare_version>
53161

> <r_lp_tautomer_probability>
0.499995

> <s_lp_Force_Field>
OPLS_2005

> <r_lp_Energy>
36.886944

> <b_lp_Chiralities_Consistent>
1

> <s_lp_Variant>
CHEMBL3286_lig929 -1

> <s_i_glide_gridfile>
glide-grid_1sqt

> <i_i_glide_lignum>
1237

> <i_i_glide_rotatable_bonds>
3

> <r_i_docking_score>
-6.81181082059355

> <r_i_glide_ligand_efficiency>
-0.358516358978608

> <r_i_glide_ligand_efficiency_sa>
-0.956665642453358

> <r_i_glide_ligand_efficiency_ln>
-1.72694034730208

> <r_i_glide_gscore>
-6.81181082059355

> <r_i_glide_lipo>
-2.11685320715748

> <r_i_glide_hbond>
-0.53079004171772

> <r_i_glide_metal>
0

> <r_i_glide_rewards>
-1.65842376895095

> <r_i_glide_evdw>
-33.5474319458008

> <r_i_glide_ecoul>
-10.0029716491699

> <r_i_glide_erotb>
0.70247782938746

> <r_i_glide_esite>
-0.0304042874893373

> <r_i_glide_emodel>
-59.1731636041998

> <r_i_glide_energy>
-43.5504035949707

> <r_i_glide_einternal>
4.20355987548828

> <i_i_glide_confnum>
13

> <i_i_glide_posenum>
195

> <r_i_glide_eff_state_penalty>
0

> <s_user_duplicate_titles>
CHEMBL3286_lig929 

> <i_f3d_flags>
1

> <s_m_subgroup_title>
dock_pv

> <s_m_subgroupid>
dock_pv

> <b_m_subgroup_collapsed>
1

$$$$
CHEMBL3286_lig759
                    3D
 Schrodinger Suite 2021-1.
 39 41  0  0  1  0            999 V2000
   20.8898   18.4259   34.2616 C   0  0  0  0  0  0
   19.6988   18.3815   33.5138 C   0  0  0  0  0  0
   19.5717   17.3506   32.5708 C   0  0  0  0  0  0
   20.5597   16.4037   32.3641 C   0  0  0  0  0  0
   21.7511   16.4439   33.1142 C   0  0  0  0  0  0
   22.7520   15.4813   32.8995 C   0  0  0  0  0  0
   23.9137   15.5020   33.6478 C   0  0  0  0  0  0
   24.1381   16.4806   34.6201 C   0  0  0  0  0  0
   23.1695   17.4888   34.8490 C   0  0  0  0  0  0
   21.9418   17.4670   34.0929 C   0  0  0  0  0  0
   18.5733   19.3480   33.6893 C   0  0  0  0  0  0
   17.5243   19.2131   33.0189 N   0  0  0  0  0  0
   18.7358   20.3398   34.6207 N   0  0  0  0  0  0
   23.3588   18.5016   35.8205 N   0  0  0  0  0  0
   24.5087   18.9556   36.4834 C   0  0  0  0  0  0
   24.4425   19.2029   37.8538 C   0  0  0  0  0  0
   25.5707   19.6421   38.5398 C   0  0  0  0  0  0
   26.7665   19.8393   37.8487 C   0  0  0  0  0  0
   26.8358   19.6146   36.4758 C   0  0  0  0  0  0
   25.6986   19.1973   35.7896 C   0  0  0  0  0  0
   25.2681   16.4178   35.4199 O   0  0  0  0  0  0
   26.4677   15.8654   34.8879 C   0  0  0  0  0  0
   21.0229   19.2087   34.9920 H   0  0  0  0  0  0
   18.6798   17.2666   31.9661 H   0  0  0  0  0  0
   20.4171   15.6281   31.6243 H   0  0  0  0  0  0
   22.6042   14.7078   32.1596 H   0  0  0  0  0  0
   24.6344   14.7197   33.4694 H   0  0  0  0  0  0
   16.8409   19.9151   33.2720 H   0  0  0  0  0  0
   17.9574   20.9394   34.8785 H   0  0  0  0  0  0
   19.6468   20.5623   35.0068 H   0  0  0  0  0  0
   22.5010   18.9253   36.1456 H   0  0  0  0  0  0
   23.5247   19.0408   38.3984 H   0  0  0  0  0  0
   25.5205   19.8153   39.6041 H   0  0  0  0  0  0
   27.6470   20.1639   38.3833 H   0  0  0  0  0  0
   27.7649   19.7691   35.9466 H   0  0  0  0  0  0
   25.7476   19.0270   34.7253 H   0  0  0  0  0  0
   27.2929   16.0837   35.5676 H   0  0  0  0  0  0
   26.4025   14.7797   34.7858 H   0  0  0  0  0  0
   26.7130   16.3001   33.9161 H   0  0  0  0  0  0
  1  2  1  0  0  0
  1 10  2  0  0  0
  1 23  1  0  0  0
  2  3  2  0  0  0
  2 11  1  0  0  0
  3  4  1  0  0  0
  3 24  1  0  0  0
  4  5  2  0  0  0
  4 25  1  0  0  0
  5  6  1  0  0  0
  5 10  1  0  0  0
  6  7  2  0  0  0
  6 26  1  0  0  0
  7  8  1  0  0  0
  7 27  1  0  0  0
  8  9  2  0  0  0
  8 21  1  0  0  0
  9 10  1  0  0  0
  9 14  1  0  0  0
 11 12  2  0  0  0
 11 13  1  0  0  0
 12 28  1  0  0  0
 13 29  1  0  0  0
 13 30  1  0  0  0
 14 15  1  0  0  0
 14 31  1  0  0  0
 15 16  1  0  0  0
 15 20  2  0  0  0
 16 17  2  0  0  0
 16 32  1  0  0  0
 17 18  1  0  0  0
 17 33  1  0  0  0
 18 19  2  0  0  0
 18 34  1  0  0  0
 19 20  1  0  0  0
 19 35  1  0  0  0
 20 36  1  0  0  0
 21 22  1  0  0  0
 22 37  1  0  0  0
 22 38  1  0  0  0
 22 39  1  0  0  0
M  END
> <s_m_entry_id>
42097

> <s_m_entry_name>
dock_pv.62

> <s_m_Source_Path>
/home/csk/Desktop/cluster/DUD-E-result/urok

> <s_m_Source_File>
dock_pv.maegz

> <i_m_Source_File_Index>
62

> <chembl_id>
CHEMBL562212

> <chembl_pref_name>
None

> <i_lp_mmshare_version>
53161

> <r_lp_tautomer_probability>
1

> <s_lp_Force_Field>
OPLS_2005

> <r_lp_Energy>
21.828701

> <b_lp_Chiralities_Consistent>
1

> <s_lp_Variant>
CHEMBL3286_lig759-1

> <s_i_glide_gridfile>
glide-grid_1sqt

> <i_i_glide_lignum>
1013

> <i_i_glide_rotatable_bonds>
4

> <r_i_docking_score>
-6.81100451387988

> <r_i_glide_ligand_efficiency>
-0.309591114267267

> <r_i_glide_ligand_efficiency_sa>
-0.867486477704496

> <r_i_glide_ligand_efficiency_ln>
-1.66485794061823

> <r_i_glide_gscore>
-6.81100451387988

> <r_i_glide_lipo>
-2.36764376793968

> <r_i_glide_hbond>
-0.553161933215502

> <r_i_glide_metal>
0

> <r_i_glide_rewards>
-1.62637147512009

> <r_i_glide_evdw>
-32.2330627441406

> <r_i_glide_ecoul>
-7.09670352935791

> <r_i_glide_erotb>
0.429757349523464

> <r_i_glide_esite>
-0.0174260205173492

> <r_i_glide_emodel>
-54.9613358396991

> <r_i_glide_energy>
-39.3297662734985

> <r_i_glide_einternal>
0.353691190481186

> <i_i_glide_confnum>
1

> <i_i_glide_posenum>
22

> <r_i_glide_eff_state_penalty>
0

> <s_user_duplicate_titles>
CHEMBL3286_lig759

> <i_f3d_flags>
0

> <s_m_subgroup_title>
dock_pv

> <s_m_subgroupid>
dock_pv

> <b_m_subgroup_collapsed>
1

$$$$
96661
                    3D
 Schrodinger Suite 2021-1.
 32 33  0  0  1  0            999 V2000
   26.2485   12.2534   32.4043 C   0  0  0  0  0  0
   25.6734   13.4475   32.8330 C   0  0  0  0  0  0
   24.3484   13.4883   33.2927 C   0  0  0  0  0  0
   23.6118   12.2788   33.3377 C   0  0  0  0  0  0
   24.1954   11.0840   32.8928 C   0  0  0  0  0  0
   25.5087   11.0754   32.4278 C   0  0  0  0  0  0
   23.3077    9.5983   32.8971 Cl  0  0  0  0  0  0
   22.3241   12.2290   33.8200 O   0  0  0  0  0  0
   23.7698   14.8312   33.6916 C   0  0  0  0  0  0
   24.4791   15.6872   34.2203 O   0  0  0  0  0  0
   22.4680   14.9899   33.3877 N   0  0  0  0  0  0
   21.6119   16.0867   33.5373 C   0  0  0  0  0  0
   20.2715   15.8130   33.2822 C   0  0  0  0  0  0
   19.3324   16.8304   33.3336 C   0  0  0  0  0  0
   19.7144   18.1475   33.6282 C   0  0  0  0  0  0
   21.0615   18.4109   33.9207 C   0  0  0  0  0  0
   22.0094   17.3878   33.8759 C   0  0  0  0  0  0
   18.7014   19.2119   33.5699 C   0  0  0  0  0  0
   17.8815   19.2115   32.6201 N   0  0  0  0  0  0
   18.7260   20.0906   34.6199 N   0  0  0  0  0  0
   27.2676   12.2435   32.0449 H   0  0  0  0  0  0
   26.2680   14.3507   32.7893 H   0  0  0  0  0  0
   25.9571   10.1533   32.0859 H   0  0  0  0  0  0
   21.6652   12.1982   33.1091 H   0  0  0  0  0  0
   22.0185   14.1666   33.0200 H   0  0  0  0  0  0
   19.9430   14.8130   33.0357 H   0  0  0  0  0  0
   18.3004   16.5856   33.1207 H   0  0  0  0  0  0
   21.3889   19.4174   34.1462 H   0  0  0  0  0  0
   23.0413   17.6336   34.0723 H   0  0  0  0  0  0
   18.0608   18.4823   31.9468 H   0  0  0  0  0  0
   17.9800   20.7691   34.7240 H   0  0  0  0  0  0
   19.5360   20.1690   35.2201 H   0  0  0  0  0  0
  1  6  1  0  0  0
  1  2  2  0  0  0
  1 21  1  0  0  0
  2  3  1  0  0  0
  2 22  1  0  0  0
  3  4  2  0  0  0
  3  9  1  0  0  0
  4  5  1  0  0  0
  4  8  1  0  0  0
  5  6  2  0  0  0
  5  7  1  0  0  0
  6 23  1  0  0  0
  8 24  1  0  0  0
  9 10  2  0  0  0
  9 11  1  0  0  0
 11 12  1  0  0  0
 11 25  1  0  0  0
 12 17  1  0  0  0
 12 13  2  0  0  0
 13 14  1  0  0  0
 13 26  1  0  0  0
 14 15  2  0  0  0
 14 27  1  0  0  0
 15 16  1  0  0  0
 15 18  1  0  0  0
 16 17  2  0  0  0
 16 28  1  0  0  0
 17 29  1  0  0  0
 18 19  2  3  0  0
 18 20  1  0  0  0
 19 30  1  0  0  0
 20 31  1  0  0  0
 20 32  1  0  0  0
M  END
> <s_m_entry_id>
42438

> <s_m_entry_name>
ligand_docking-pose.2

> <s_m_Source_Path>
/home/csk/Desktop/cluster/DUD-E-result/urok

> <s_m_Source_File>
ligand_docking-pose.sdf

> <i_m_Source_File_Index>
2

> <i_lp_mmshare_version>
53161

> <i_f3d_flags>
0

> <r_lp_tautomer_probability>
0.999999999997365

> <s_lp_Force_Field>
OPLS_2005

> <r_lp_Energy>
20.452419

> <b_lp_Chiralities_Consistent>
1

> <s_lp_Variant>
96661-2

> <s_i_glide_gridfile>
glide-grid_1sqt

> <i_i_glide_lignum>
275

> <i_i_glide_rotatable_bonds>
5

> <r_i_docking_score>
-7.52740017212296

> <r_i_glide_ligand_efficiency>
-0.376370008606148

> <r_i_glide_ligand_efficiency_sa>
-1.02162538069833

> <r_i_glide_ligand_efficiency_ln>
-1.88385999280871

> <r_i_glide_gscore>
-7.52740017212296

> <r_i_glide_lipo>
-2.09371914642891

> <r_i_glide_hbond>
-0.874942263449216

> <r_i_glide_metal>
0

> <r_i_glide_rewards>
-1.89050686502838

> <r_i_glide_evdw>
-33.0458145141602

> <r_i_glide_ecoul>
-11.0655097961426

> <r_i_glide_erotb>
0.650975801782999

> <r_i_glide_esite>
-0.00709050387005355

> <r_i_glide_emodel>
-58.5427904612851

> <r_i_glide_energy>
-44.1113243103027

> <r_i_glide_einternal>
9.54462909698486

> <i_i_glide_confnum>
4

> <i_i_glide_posenum>
150

> <r_i_glide_eff_state_penalty>
0

> <s_user_duplicate_titles>
96661

> <s_m_subgroup_title>
dock_pv

> <s_m_subgroupid>
dock_pv1

> <b_m_subgroup_collapsed>
0

$$$$
604436
                    3D
 Schrodinger Suite 2021-1.
 57 60  0  0  1  0            999 V2000
   17.9258   18.1298   32.2909 C   0  0  0  0  0  0
   18.4159   19.2114   33.0201 C   0  0  0  0  0  0
   19.7039   19.1578   33.5464 C   0  0  0  0  0  0
   20.4933   18.0137   33.3709 C   0  0  0  0  0  0
   19.9507   16.9074   32.7117 C   0  0  0  0  0  0
   18.6882   16.9753   32.1457 C   0  0  0  0  0  0
   21.9337   18.0137   33.9019 C   0  0  1  0  0  0
   21.9360   18.2168   35.4222 C   0  0  0  0  0  0
   23.1999   18.0085   36.0432 O   0  0  0  0  0  0
   24.1544   18.9519   36.0496 C   0  0  0  0  0  0
   24.1209   20.0110   35.4202 O   0  0  0  0  0  0
   25.1570   18.5257   36.8996 N   0  0  0  0  0  0
   26.3318   19.2158   37.1989 C   0  0  0  0  0  0
   27.1903   19.6075   36.1633 C   0  0  0  0  0  0
   28.3860   20.2619   36.4564 C   0  0  0  0  0  0
   28.7241   20.5371   37.7793 C   0  0  0  0  0  0
   27.8794   20.1388   38.8137 C   0  0  0  0  0  0
   26.6822   19.4662   38.5413 C   0  0  0  0  0  0
   25.7935   19.0539   39.7151 C   0  0  0  0  0  0
   25.6910   17.6118   39.8178 N   0  0  0  0  0  0
   22.6477   16.7917   33.6209 O   0  0  0  0  0  0
   23.1297   16.5928   32.3408 C   0  0  0  0  0  0
   22.7456   15.4530   31.6380 C   0  0  0  0  0  0
   23.1252   15.2595   30.3206 C   0  0  0  0  0  0
   23.9497   16.1655   29.6694 C   0  0  0  0  0  0
   24.4431   17.2561   30.3958 C   0  0  0  0  0  0
   24.0624   17.4829   31.7516 C   0  0  0  0  0  0
   24.7471   18.6093   32.2888 C   0  0  0  0  0  0
   25.5851   19.2504   31.3924 C   0  0  0  0  0  0
   25.5577   18.4854   29.8201 S   0  0  0  0  0  0
   26.4247   20.4175   31.6591 C   0  0  0  0  0  0
   25.9248   21.3666   32.3194 N   0  0  0  0  0  0
   27.6934   20.3049   31.1542 N   0  0  0  0  0  0
   16.9415   18.1841   31.8430 H   0  0  0  0  0  0
   17.8128   20.0990   33.1541 H   0  0  0  0  0  0
   20.0910   20.0156   34.0759 H   0  0  0  0  0  0
   20.4904   15.9871   32.6135 H   0  0  0  0  0  0
   18.3225   16.1318   31.5850 H   0  0  0  0  0  0
   22.4263   18.8716   33.4478 H   0  0  0  0  0  0
   21.5518   19.2084   35.6781 H   0  0  0  0  0  0
   21.2466   17.4980   35.8640 H   0  0  0  0  0  0
   24.9779   17.6751   37.4088 H   0  0  0  0  0  0
   26.9340   19.3925   35.1342 H   0  0  0  0  0  0
   29.0503   20.5581   35.6570 H   0  0  0  0  0  0
   29.6461   21.0528   38.0065 H   0  0  0  0  0  0
   28.1655   20.3586   39.8317 H   0  0  0  0  0  0
   26.2107   19.4346   40.6500 H   0  0  0  0  0  0
   24.7999   19.4973   39.6137 H   0  0  0  0  0  0
   24.9160   17.3027   39.2464 H   0  0  0  0  0  0
   26.5297   17.2257   39.3982 H   0  0  0  0  0  0
   22.1014   14.7235   32.1073 H   0  0  0  0  0  0
   22.7537   14.4124   29.7683 H   0  0  0  0  0  0
   24.2212   16.0000   28.6370 H   0  0  0  0  0  0
   24.6366   18.9309   33.3084 H   0  0  0  0  0  0
   24.9492   21.1773   32.5229 H   0  0  0  0  0  0
   28.3315   21.0830   31.2207 H   0  0  0  0  0  0
   27.9273   19.5342   30.5457 H   0  0  0  0  0  0
  1  6  1  0  0  0
  1  2  2  0  0  0
  1 34  1  0  0  0
  2  3  1  0  0  0
  2 35  1  0  0  0
  3  4  2  0  0  0
  3 36  1  0  0  0
  4  5  1  0  0  0
  4  7  1  0  0  0
  5  6  2  0  0  0
  5 37  1  0  0  0
  6 38  1  0  0  0
  7  8  1  0  0  0
  7 21  1  0  0  0
  7 39  1  0  0  0
  8  9  1  0  0  0
  8 40  1  0  0  0
  8 41  1  0  0  0
  9 10  1  0  0  0
 10 11  2  0  0  0
 10 12  1  0  0  0
 12 13  1  0  0  0
 12 42  1  0  0  0
 13 18  1  0  0  0
 13 14  2  0  0  0
 14 15  1  0  0  0
 14 43  1  0  0  0
 15 16  2  0  0  0
 15 44  1  0  0  0
 16 17  1  0  0  0
 16 45  1  0  0  0
 17 18  2  0  0  0
 17 46  1  0  0  0
 18 19  1  0  0  0
 19 20  1  0  0  0
 19 47  1  0  0  0
 19 48  1  0  0  0
 20 49  1  0  0  0
 20 50  1  0  0  0
 21 22  1  0  0  0
 22 27  1  0  0  0
 22 23  2  0  0  0
 23 24  1  0  0  0
 23 51  1  0  0  0
 24 25  2  0  0  0
 24 52  1  0  0  0
 25 26  1  0  0  0
 25 53  1  0  0  0
 26 30  1  0  0  0
 26 27  2  0  0  0
 27 28  1  0  0  0
 28 29  2  0  0  0
 28 54  1  0  0  0
 29 30  1  0  0  0
 29 31  1  0  0  0
 31 32  2  3  0  0
 31 33  1  0  0  0
 32 55  1  0  0  0
 33 56  1  0  0  0
 33 57  1  0  0  0
M  END
> <s_m_entry_id>
42442

> <s_m_entry_name>
ligand_docking-pose.6

> <s_m_Source_Path>
/home/csk/Desktop/cluster/DUD-E-result/urok

> <s_m_Source_File>
ligand_docking-pose.sdf

> <i_m_Source_File_Index>
6

> <i_lp_mmshare_version>
53161

> <i_f3d_flags>
0

> <r_lp_tautomer_probability>
1

> <s_lp_Force_Field>
OPLS_2005

> <r_lp_Energy>
27.364859

> <b_lp_Chiralities_Consistent>
1

> <s_lp_Variant>
604436-4

> <s_i_glide_gridfile>
glide-grid_1sqt

> <i_i_glide_lignum>
231

> <i_i_glide_rotatable_bonds>
10

> <r_i_docking_score>
-7.34317484205856

> <r_i_glide_ligand_efficiency>
-0.22252044975935

> <r_i_glide_ligand_efficiency_sa>
-0.71374198089736

> <r_i_glide_ligand_efficiency_ln>
-1.63308406394933

> <r_i_glide_gscore>
-7.34317484205856

> <r_i_glide_lipo>
-3.40963006050289

> <r_i_glide_hbond>
-0.404868163269

> <r_i_glide_metal>
0

> <r_i_glide_rewards>
-0.459414884951501

> <r_i_glide_evdw>
-44.7316093444824

> <r_i_glide_ecoul>
-10.6126623153687

> <r_i_glide_erotb>
0.759218081194244

> <r_i_glide_esite>
0

> <r_i_glide_emodel>
-75.1279869326102

> <r_i_glide_energy>
-55.3442716598511

> <r_i_glide_einternal>
14.3668575286865

> <i_i_glide_confnum>
17

> <i_i_glide_posenum>
282

> <r_i_glide_eff_state_penalty>
0

> <s_user_duplicate_titles>
604436

> <s_m_subgroup_title>
dock_pv

> <s_m_subgroupid>
dock_pv1

> <b_m_subgroup_collapsed>
0

$$$$
555989
                    3D
 Schrodinger Suite 2021-1.
 48 51  0  0  1  0            999 V2000
   23.6052   15.2505   30.6199 C   0  0  0  0  0  0
   22.3248   15.5766   31.0525 C   0  0  0  0  0  0
   22.1317   16.5449   32.0673 C   0  0  0  0  0  0
   20.8364   16.9220   32.4988 C   0  0  0  0  0  0
   20.6395   17.9034   33.4839 C   0  0  0  0  0  0
   21.7780   18.4785   34.0688 C   0  0  0  0  0  0
   23.0670   18.1307   33.6709 C   0  0  0  0  0  0
   23.2683   17.1702   32.6535 C   0  0  0  0  0  0
   24.5626   16.8112   32.1977 C   0  0  0  0  0  0
   24.7226   15.8559   31.1907 C   0  0  0  0  0  0
   26.1190   15.4543   30.7355 C   0  0  0  0  0  0
   26.8426   14.5006   31.7122 C   0  0  0  0  0  0
   26.1855   13.1332   31.8793 C   0  0  0  0  0  0
   26.7208   12.0103   31.2471 C   0  0  0  0  0  0
   26.1502   10.7546   31.4506 C   0  0  0  0  0  0
   25.0294   10.5969   32.2743 C   0  0  0  0  0  0
   24.4499   11.7373   32.8659 C   0  0  0  0  0  0
   25.0529   12.9852   32.6825 C   0  0  0  0  0  0
   23.1651   11.5968   33.6771 C   0  0  0  0  0  0
   22.9704   10.1690   34.2214 C   0  0  0  0  0  0
   23.1241    9.2124   33.1354 N   0  0  1  0  0  0
   24.4846    9.2055   32.6032 C   0  0  0  0  0  0
   19.2641   18.2965   33.8802 C   0  0  0  0  0  0
   18.3242   17.4595   33.8179 N   0  0  0  0  0  0
   19.1332   19.5987   34.2945 N   0  0  0  0  0  0
   23.7275   14.5104   29.8420 H   0  0  0  0  0  0
   21.4650   15.0917   30.6200 H   0  0  0  0  0  0
   19.9913   16.4528   32.0146 H   0  0  0  0  0  0
   21.6766   19.2159   34.8518 H   0  0  0  0  0  0
   23.9206   18.6072   34.1291 H   0  0  0  0  0  0
   25.4272   17.2812   32.6435 H   0  0  0  0  0  0
   26.0768   15.0168   29.7360 H   0  0  0  0  0  0
   26.7110   16.3625   30.6113 H   0  0  0  0  0  0
   27.8727   14.3627   31.3813 H   0  0  0  0  0  0
   26.9285   14.9667   32.6950 H   0  0  0  0  0  0
   27.5948   12.0986   30.6172 H   0  0  0  0  0  0
   26.6010    9.8909   30.9830 H   0  0  0  0  0  0
   24.6198   13.8540   33.1567 H   0  0  0  0  0  0
   23.1237   12.3230   34.4866 H   0  0  0  0  0  0
   22.3261   11.8330   33.0231 H   0  0  0  0  0  0
   21.9631   10.0678   34.6199 H   0  0  0  0  0  0
   23.6550    9.9589   35.0452 H   0  0  0  0  0  0
   22.8470    8.2828   33.4409 H   0  0  0  0  0  0
   24.4760    8.5871   31.7046 H   0  0  0  0  0  0
   25.1558    8.7200   33.3126 H   0  0  0  0  0  0
   18.6381   16.5545   33.5026 H   0  0  0  0  0  0
   18.2374   19.9083   34.6480 H   0  0  0  0  0  0
   19.9396   20.1869   34.4611 H   0  0  0  0  0  0
  1 10  1  0  0  0
  1  2  2  0  0  0
  1 26  1  0  0  0
  2  3  1  0  0  0
  2 27  1  0  0  0
  3  8  2  0  0  0
  3  4  1  0  0  0
  4  5  2  0  0  0
  4 28  1  0  0  0
  5  6  1  0  0  0
  5 23  1  0  0  0
  6  7  2  0  0  0
  6 29  1  0  0  0
  7  8  1  0  0  0
  7 30  1  0  0  0
  8  9  1  0  0  0
  9 10  2  0  0  0
  9 31  1  0  0  0
 10 11  1  0  0  0
 11 12  1  0  0  0
 11 32  1  0  0  0
 11 33  1  0  0  0
 12 13  1  0  0  0
 12 34  1  0  0  0
 12 35  1  0  0  0
 13 18  1  0  0  0
 13 14  2  0  0  0
 14 15  1  0  0  0
 14 36  1  0  0  0
 15 16  2  0  0  0
 15 37  1  0  0  0
 16 22  1  0  0  0
 16 17  1  0  0  0
 17 18  2  0  0  0
 17 19  1  0  0  0
 18 38  1  0  0  0
 19 20  1  0  0  0
 19 39  1  0  0  0
 19 40  1  0  0  0
 20 21  1  0  0  0
 20 41  1  0  0  0
 20 42  1  0  0  0
 21 22  1  0  0  0
 21 43  1  0  0  0
 22 44  1  0  0  0
 22 45  1  0  0  0
 23 24  2  3  0  0
 23 25  1  0  0  0
 24 46  1  0  0  0
 25 47  1  0  0  0
 25 48  1  0  0  0
M  END
> <s_m_entry_id>
42446

> <s_m_entry_name>
ligand_docking-pose.10

> <s_m_Source_Path>
/home/csk/Desktop/cluster/DUD-E-result/urok

> <s_m_Source_File>
ligand_docking-pose.sdf

> <i_m_Source_File_Index>
10

> <i_lp_mmshare_version>
53161

> <i_f3d_flags>
0

> <r_lp_tautomer_probability>
1

> <s_lp_Force_Field>
OPLS_2005

> <r_lp_Energy>
22.832042

> <b_lp_Chiralities_Consistent>
1

> <s_lp_Variant>
555989-2

> <s_i_glide_gridfile>
glide-grid_1sqt

> <i_i_glide_lignum>
34

> <i_i_glide_rotatable_bonds>
4

> <r_i_docking_score>
-7.21870200369863

> <r_i_glide_ligand_efficiency>
-0.288748080147945

> <r_i_glide_ligand_efficiency_sa>
-0.844304507321598

> <r_i_glide_ligand_efficiency_ln>
-1.71104870191911

> <r_i_glide_gscore>
-7.21870200369863

> <r_i_glide_lipo>
-2.27764179289223

> <r_i_glide_hbond>
-0.74793818258204

> <r_i_glide_metal>
0

> <r_i_glide_rewards>
-1.61292190909091

> <r_i_glide_evdw>
-33.641658782959

> <r_i_glide_ecoul>
-9.45099925994873

> <r_i_glide_erotb>
0.519532709006808

> <r_i_glide_esite>
0

> <r_i_glide_emodel>
-60.9723178242503

> <r_i_glide_energy>
-43.0926580429077

> <r_i_glide_einternal>
1.31906259059906

> <i_i_glide_confnum>
4

> <i_i_glide_posenum>
322

> <r_i_glide_eff_state_penalty>
0

> <s_user_duplicate_titles>
555989

> <s_m_subgroup_title>
dock_pv

> <s_m_subgroupid>
dock_pv1

> <b_m_subgroup_collapsed>
0

$$$$
603408
                    3D
 Schrodinger Suite 2021-1.
 57 60  0  0  1  0            999 V2000
   17.6799   18.2731   32.2199 C   0  0  0  0  0  0
   18.4848   17.2120   31.8204 C   0  0  0  0  0  0
   19.7821   17.1156   32.3128 C   0  0  0  0  0  0
   20.2739   18.0861   33.1987 C   0  0  0  0  0  0
   19.4463   19.1404   33.6009 C   0  0  0  0  0  0
   18.1477   19.2293   33.1165 C   0  0  0  0  0  0
   21.7042   18.0196   33.7362 C   0  0  1  0  0  0
   21.7260   18.0156   35.2760 C   0  0  0  0  0  0
   23.0121   17.7493   35.8205 O   0  0  0  0  0  0
   23.9687   18.6853   35.8900 C   0  0  0  0  0  0
   23.9239   19.8076   35.3815 O   0  0  0  0  0  0
   24.9801   18.1698   36.6739 N   0  0  0  0  0  0
   26.0626   18.8809   37.1833 C   0  0  0  0  0  0
   27.0317   19.3704   36.2995 C   0  0  0  0  0  0
   28.1518   20.0390   36.7904 C   0  0  0  0  0  0
   28.3042   20.2250   38.1630 C   0  0  0  0  0  0
   27.3394   19.7387   39.0460 C   0  0  0  0  0  0
   26.2136   19.0515   38.5766 C   0  0  0  0  0  0
   25.1807   18.5827   39.6108 C   0  0  0  0  0  0
   24.7321   17.2120   39.4201 N   0  0  0  0  0  0
   22.3298   16.7989   33.3284 O   0  0  0  0  0  0
   23.2225   16.7616   32.2730 C   0  0  0  0  0  0
   23.5867   17.8316   31.4419 C   0  0  0  0  0  0
   24.5268   17.6652   30.4305 C   0  0  0  0  0  0
   25.1474   16.4372   30.2199 C   0  0  0  0  0  0
   24.7787   15.3561   31.0337 C   0  0  0  0  0  0
   23.7953   15.4947   32.0515 C   0  0  0  0  0  0
   23.5432   14.2586   32.7109 C   0  0  0  0  0  0
   24.2999   13.1956   32.2379 C   0  0  0  0  0  0
   25.4234   13.7229   30.9878 S   0  0  0  0  0  0
   24.2320   11.7996   32.6974 C   0  0  0  0  0  0
   23.1247   11.3679   33.1101 N   0  0  0  0  0  0
   25.4277   11.1279   32.6350 N   0  0  0  0  0  0
   24.8535   18.7197   29.6513 F   0  0  0  0  0  0
   16.6777   18.3562   31.8232 H   0  0  0  0  0  0
   18.1123   16.4813   31.1178 H   0  0  0  0  0  0
   20.3969   16.2919   31.9845 H   0  0  0  0  0  0
   19.8045   19.9007   34.2805 H   0  0  0  0  0  0
   17.5074   20.0448   33.4257 H   0  0  0  0  0  0
   22.2378   18.9095   33.4066 H   0  0  0  0  0  0
   21.3301   18.9498   35.6766 H   0  0  0  0  0  0
   21.0763   17.2169   35.6283 H   0  0  0  0  0  0
   24.8189   17.2502   37.0521 H   0  0  0  0  0  0
   26.9246   19.2162   35.2358 H   0  0  0  0  0  0
   28.9022   20.4075   36.1072 H   0  0  0  0  0  0
   29.1731   20.7405   38.5454 H   0  0  0  0  0  0
   27.4758   19.8983   40.1063 H   0  0  0  0  0  0
   25.6093   18.6550   40.6109 H   0  0  0  0  0  0
   24.3183   19.2502   39.5986 H   0  0  0  0  0  0
   23.8900   17.2215   38.8607 H   0  0  0  0  0  0
   25.4290   16.6946   38.8937 H   0  0  0  0  0  0
   23.1550   18.8118   31.5616 H   0  0  0  0  0  0
   25.8902   16.3275   29.4435 H   0  0  0  0  0  0
   22.8111   14.1740   33.5001 H   0  0  0  0  0  0
   22.3967   12.0629   33.0212 H   0  0  0  0  0  0
   25.4686   10.1627   32.9207 H   0  0  0  0  0  0
   26.2540   11.5787   32.2735 H   0  0  0  0  0  0
  1  6  1  0  0  0
  1  2  2  0  0  0
  1 35  1  0  0  0
  2  3  1  0  0  0
  2 36  1  0  0  0
  3  4  2  0  0  0
  3 37  1  0  0  0
  4  5  1  0  0  0
  4  7  1  0  0  0
  5  6  2  0  0  0
  5 38  1  0  0  0
  6 39  1  0  0  0
  7  8  1  0  0  0
  7 21  1  0  0  0
  7 40  1  0  0  0
  8  9  1  0  0  0
  8 41  1  0  0  0
  8 42  1  0  0  0
  9 10  1  0  0  0
 10 11  2  0  0  0
 10 12  1  0  0  0
 12 13  1  0  0  0
 12 43  1  0  0  0
 13 18  1  0  0  0
 13 14  2  0  0  0
 14 15  1  0  0  0
 14 44  1  0  0  0
 15 16  2  0  0  0
 15 45  1  0  0  0
 16 17  1  0  0  0
 16 46  1  0  0  0
 17 18  2  0  0  0
 17 47  1  0  0  0
 18 19  1  0  0  0
 19 20  1  0  0  0
 19 48  1  0  0  0
 19 49  1  0  0  0
 20 50  1  0  0  0
 20 51  1  0  0  0
 21 22  1  0  0  0
 22 27  1  0  0  0
 22 23  2  0  0  0
 23 24  1  0  0  0
 23 52  1  0  0  0
 24 25  2  0  0  0
 24 34  1  0  0  0
 25 26  1  0  0  0
 25 53  1  0  0  0
 26 30  1  0  0  0
 26 27  2  0  0  0
 27 28  1  0  0  0
 28 29  2  0  0  0
 28 54  1  0  0  0
 29 30  1  0  0  0
 29 31  1  0  0  0
 31 32  2  3  0  0
 31 33  1  0  0  0
 32 55  1  0  0  0
 33 56  1  0  0  0
 33 57  1  0  0  0
M  END
> <s_m_entry_id>
42447

> <s_m_entry_name>
ligand_docking-pose.11

> <s_m_Source_Path>
/home/csk/Desktop/cluster/DUD-E-result/urok

> <s_m_Source_File>
ligand_docking-pose.sdf

> <i_m_Source_File_Index>
11

> <i_lp_mmshare_version>
53161

> <i_f3d_flags>
0

> <r_lp_tautomer_probability>
1

> <s_lp_Force_Field>
OPLS_2005

> <r_lp_Energy>
26.009857

> <b_lp_Chiralities_Consistent>
1

> <s_lp_Variant>
603408-4

> <s_i_glide_gridfile>
glide-grid_1sqt

> <i_i_glide_lignum>
235

> <i_i_glide_rotatable_bonds>
10

> <r_i_docking_score>
-7.21450645387246

> <r_i_glide_ligand_efficiency>
-0.212191366290366

> <r_i_glide_ligand_efficiency_sa>
-0.687417653555437

> <r_i_glide_ligand_efficiency_ln>
-1.59388683571207

> <r_i_glide_gscore>
-7.21450645387246

> <r_i_glide_lipo>
-3.40168674723492

> <r_i_glide_hbond>
-0.43878947948673

> <r_i_glide_metal>
0

> <r_i_glide_rewards>
-0.799962244755693

> <r_i_glide_evdw>
-47.206657409668

> <r_i_glide_ecoul>
-6.14459609985352

> <r_i_glide_erotb>
0.707954303066306

> <r_i_glide_esite>
0

> <r_i_glide_emodel>
-72.364957532306

> <r_i_glide_energy>
-53.3512535095215

> <r_i_glide_einternal>
9.95913887023926

> <i_i_glide_confnum>
26

> <i_i_glide_posenum>
211

> <r_i_glide_eff_state_penalty>
0

> <s_user_duplicate_titles>
603408

> <s_m_subgroup_title>
dock_pv

> <s_m_subgroupid>
dock_pv1

> <b_m_subgroup_collapsed>
0

$$$$
305597
                    3D
 Schrodinger Suite 2021-1.
 47 51  0  0  1  0            999 V2000
   26.0562   18.8139   29.8200 C   0  0  0  0  0  0
   27.2387   18.1976   30.2248 C   0  0  0  0  0  0
   27.2166   16.8697   30.6465 C   0  0  0  0  0  0
   26.0126   16.1610   30.6585 C   0  0  0  0  0  0
   24.8365   16.7772   30.2198 C   0  0  0  0  0  0
   24.8541   18.1099   29.8188 C   0  0  0  0  0  0
   25.9837   14.7126   31.1355 C   0  0  1  0  0  0
   26.5598   14.3380   32.4821 C   0  0  0  0  0  0
   25.0637   14.2062   32.2338 C   0  0  1  0  0  0
   24.0226   15.1212   32.8699 C   0  0  0  0  0  0
   22.7214   15.0586   32.3902 C   0  0  0  0  0  0
   21.7616   16.0194   32.7725 C   0  0  0  0  0  0
   20.4684   15.9927   32.2183 C   0  0  0  0  0  0
   19.5518   16.9830   32.5263 C   0  0  0  0  0  0
   19.8597   18.0439   33.3923 C   0  0  0  0  0  0
   21.1273   18.0360   34.0039 C   0  0  0  0  0  0
   22.1128   17.0486   33.6978 C   0  0  0  0  0  0
   23.4380   17.0453   34.2477 C   0  0  0  0  0  0
   24.3574   16.0829   33.8198 C   0  0  0  0  0  0
   23.9609   18.0468   35.2230 C   0  0  0  0  0  0
   24.7242   17.7939   36.3736 C   0  0  0  0  0  0
   25.0070   19.0109   36.9642 C   0  0  0  0  0  0
   24.4815   20.0117   36.2205 O   0  0  0  0  0  0
   23.8512   19.4310   35.1695 C   0  0  0  0  0  0
   18.8625   19.1306   33.6050 C   0  0  0  0  0  0
   17.8428   19.2120   32.8796 N   0  0  0  0  0  0
   19.1238   20.0078   34.6201 N   0  0  0  0  0  0
   26.0752   19.8437   29.4951 H   0  0  0  0  0  0
   28.1678   18.7488   30.2114 H   0  0  0  0  0  0
   28.1324   16.3942   30.9667 H   0  0  0  0  0  0
   23.9054   16.2310   30.1982 H   0  0  0  0  0  0
   23.9423   18.5886   29.4957 H   0  0  0  0  0  0
   26.1890   14.0073   30.3290 H   0  0  0  0  0  0
   26.9598   15.1300   33.1141 H   0  0  0  0  0  0
   27.1583   13.4300   32.5576 H   0  0  0  0  0  0
   24.6934   13.1919   32.0783 H   0  0  0  0  0  0
   22.4532   14.3199   31.6497 H   0  0  0  0  0  0
   20.2015   15.2123   31.5213 H   0  0  0  0  0  0
   18.5865   16.9153   32.0454 H   0  0  0  0  0  0
   21.3862   18.8172   34.7003 H   0  0  0  0  0  0
   25.3671   16.1261   34.1971 H   0  0  0  0  0  0
   25.0358   16.8250   36.7373 H   0  0  0  0  0  0
   25.5495   19.3017   37.8518 H   0  0  0  0  0  0
   23.3764   20.1044   34.4693 H   0  0  0  0  0  0
   17.8074   18.5082   32.1595 H   0  0  0  0  0  0
   18.4138   20.6966   34.8336 H   0  0  0  0  0  0
   20.0469   20.1531   35.0096 H   0  0  0  0  0  0
  1  6  1  0  0  0
  1  2  2  0  0  0
  1 28  1  0  0  0
  2  3  1  0  0  0
  2 29  1  0  0  0
  3  4  2  0  0  0
  3 30  1  0  0  0
  4  5  1  0  0  0
  4  7  1  0  0  0
  5  6  2  0  0  0
  5 31  1  0  0  0
  6 32  1  0  0  0
  7  9  1  0  0  0
  7  8  1  0  0  0
  7 33  1  0  0  0
  8  9  1  0  0  0
  8 34  1  0  0  0
  8 35  1  0  0  0
  9 10  1  0  0  0
  9 36  1  0  0  0
 10 19  1  0  0  0
 10 11  2  0  0  0
 11 12  1  0  0  0
 11 37  1  0  0  0
 12 17  2  0  0  0
 12 13  1  0  0  0
 13 14  2  0  0  0
 13 38  1  0  0  0
 14 15  1  0  0  0
 14 39  1  0  0  0
 15 16  2  0  0  0
 15 25  1  0  0  0
 16 17  1  0  0  0
 16 40  1  0  0  0
 17 18  1  0  0  0
 18 19  2  0  0  0
 18 20  1  0  0  0
 19 41  1  0  0  0
 20 24  2  0  0  0
 20 21  1  0  0  0
 21 22  2  0  0  0
 21 42  1  0  0  0
 22 23  1  0  0  0
 22 43  1  0  0  0
 23 24  1  0  0  0
 24 44  1  0  0  0
 25 26  2  3  0  0
 25 27  1  0  0  0
 26 45  1  0  0  0
 27 46  1  0  0  0
 27 47  1  0  0  0
M  END
> <s_m_entry_id>
42449

> <s_m_entry_name>
ligand_docking-pose.13

> <s_m_Source_Path>
/home/csk/Desktop/cluster/DUD-E-result/urok

> <s_m_Source_File>
ligand_docking-pose.sdf

> <i_m_Source_File_Index>
13

> <i_lp_mmshare_version>
53161

> <i_f3d_flags>
0

> <r_lp_tautomer_probability>
1

> <s_lp_Force_Field>
OPLS_2005

> <r_lp_Energy>
20.094883

> <b_lp_Chiralities_Consistent>
1

> <s_lp_Variant>
305597-4

> <s_i_glide_gridfile>
glide-grid_1sqt

> <i_i_glide_lignum>
102

> <i_i_glide_rotatable_bonds>
4

> <r_i_docking_score>
-7.13579541553955

> <r_i_glide_ligand_efficiency>
-0.264288719094057

> <r_i_glide_ligand_efficiency_sa>
-0.79286615641112

> <r_i_glide_ligand_efficiency_ln>
-1.6610955299559

> <r_i_glide_gscore>
-7.13579541553955

> <r_i_glide_lipo>
-3.0400472660175

> <r_i_glide_hbond>
-0.314437730143661

> <r_i_glide_metal>
0

> <r_i_glide_rewards>
-1.38318366128307

> <r_i_glide_evdw>
-40.0348701477051

> <r_i_glide_ecoul>
-5.71564531326294

> <r_i_glide_erotb>
0.460963546279366

> <r_i_glide_esite>
0

> <r_i_glide_emodel>
-62.8498601379211

> <r_i_glide_energy>
-45.750515460968

> <r_i_glide_einternal>
1.63711059093475

> <i_i_glide_confnum>
51

> <i_i_glide_posenum>
192

> <r_i_glide_eff_state_penalty>
0

> <s_user_duplicate_titles>
305597

> <s_m_subgroup_title>
dock_pv

> <s_m_subgroupid>
dock_pv1

> <b_m_subgroup_collapsed>
0

$$$$
554240
                    3D
 Schrodinger Suite 2021-1.
 31 32  0  0  1  0            999 V2000
   24.6438   20.0737   39.0557 C   0  0  0  0  0  0
   24.3211   19.8566   37.6887 O   0  0  0  0  0  0
   24.3241   18.6129   37.1759 C   0  0  0  0  0  0
   24.7238   17.6120   37.7747 O   0  0  0  0  0  0
   23.7847   18.6535   35.8960 N   0  0  0  0  0  0
   23.6411   17.5636   35.0209 C   0  0  0  0  0  0
   24.6964   16.6576   34.8551 C   0  0  0  0  0  0
   24.5857   15.5767   33.9913 C   0  0  0  0  0  0
   23.4232   15.3777   33.2574 C   0  0  0  0  0  0
   22.3375   16.2779   33.3751 C   0  0  0  0  0  0
   22.4346   17.3929   34.2639 C   0  0  0  0  0  0
   21.3167   18.2747   34.3577 C   0  0  0  0  0  0
   20.1387   18.0834   33.6094 C   0  0  0  0  0  0
   20.0955   16.9774   32.7471 C   0  0  0  0  0  0
   21.1576   16.0906   32.6245 C   0  0  0  0  0  0
   18.9596   18.9960   33.7115 C   0  0  0  0  0  0
   17.9251   18.8142   33.0176 N   0  0  0  0  0  0
   19.0815   20.0120   34.6199 N   0  0  0  0  0  0
   24.5653   21.1352   39.2919 H   0  0  0  0  0  0
   23.9581   19.5327   39.7109 H   0  0  0  0  0  0
   25.6621   19.7486   39.2762 H   0  0  0  0  0  0
   23.3602   19.5242   35.6161 H   0  0  0  0  0  0
   25.6168   16.7841   35.4071 H   0  0  0  0  0  0
   25.4121   14.8887   33.8880 H   0  0  0  0  0  0
   23.3460   14.5352   32.5851 H   0  0  0  0  0  0
   21.3946   19.1102   35.0370 H   0  0  0  0  0  0
   19.2144   16.7877   32.1491 H   0  0  0  0  0  0
   21.0834   15.2498   31.9501 H   0  0  0  0  0  0
   17.2288   19.5217   33.2077 H   0  0  0  0  0  0
   18.2800   20.5966   34.8268 H   0  0  0  0  0  0
   19.9737   20.2861   35.0196 H   0  0  0  0  0  0
  1  2  1  0  0  0
  1 19  1  0  0  0
  1 20  1  0  0  0
  1 21  1  0  0  0
  2  3  1  0  0  0
  3  4  2  0  0  0
  3  5  1  0  0  0
  5  6  1  0  0  0
  5 22  1  0  0  0
  6 11  1  0  0  0
  6  7  2  0  0  0
  7  8  1  0  0  0
  7 23  1  0  0  0
  8  9  2  0  0  0
  8 24  1  0  0  0
  9 10  1  0  0  0
  9 25  1  0  0  0
 10 15  2  0  0  0
 10 11  1  0  0  0
 11 12  2  0  0  0
 12 13  1  0  0  0
 12 26  1  0  0  0
 13 14  2  0  0  0
 13 16  1  0  0  0
 14 15  1  0  0  0
 14 27  1  0  0  0
 15 28  1  0  0  0
 16 17  2  3  0  0
 16 18  1  0  0  0
 17 29  1  0  0  0
 18 30  1  0  0  0
 18 31  1  0  0  0
M  END
> <s_m_entry_id>
42456

> <s_m_entry_name>
ligand_docking-pose.20

> <s_m_Source_Path>
/home/csk/Desktop/cluster/DUD-E-result/urok

> <s_m_Source_File>
ligand_docking-pose.sdf

> <i_m_Source_File_Index>
20

> <i_lp_mmshare_version>
53161

> <i_f3d_flags>
0

> <r_lp_tautomer_probability>
1

> <s_lp_Force_Field>
OPLS_2005

> <r_lp_Energy>
12.995814

> <b_lp_Chiralities_Consistent>
1

> <s_lp_Variant>
554240-1

> <s_i_glide_gridfile>
glide-grid_1sqt

> <i_i_glide_lignum>
938

> <i_i_glide_rotatable_bonds>
4

> <r_i_docking_score>
-6.95192681951634

> <r_i_glide_ligand_efficiency>
-0.386218156639797

> <r_i_glide_ligand_efficiency_sa>
-1.01217790932578

> <r_i_glide_ligand_efficiency_ln>
-1.78695694194423

> <r_i_glide_gscore>
-6.95192681951634

> <r_i_glide_lipo>
-2.07386035631348

> <r_i_glide_hbond>
-0.480897484610754

> <r_i_glide_metal>
0

> <r_i_glide_rewards>
-2.42121592980492

> <r_i_glide_evdw>
-31.7349891662598

> <r_i_glide_ecoul>
-6.50676584243774

> <r_i_glide_erotb>
0.586811285891464

> <r_i_glide_esite>
0

> <r_i_glide_emodel>
-54.0950881402427

> <r_i_glide_energy>
-38.2417550086975

> <r_i_glide_einternal>
0.957458257675171

> <i_i_glide_confnum>
8

> <i_i_glide_posenum>
368

> <r_i_glide_eff_state_penalty>
0

> <s_user_duplicate_titles>
554240

> <s_m_subgroup_title>
dock_pv

> <s_m_subgroupid>
dock_pv1

> <b_m_subgroup_collapsed>
0

$$$$
181531
                    3D
 Schrodinger Suite 2021-1.
 35 37  0  0  1  0            999 V2000
   18.9390   19.6078   34.2200 C   0  0  0  0  0  0
   17.9240   19.3377   33.3101 C   0  0  0  0  0  0
   18.0454   18.2684   32.4161 C   0  0  0  0  0  0
   19.1832   17.4579   32.4589 C   0  0  0  0  0  0
   20.2203   17.7382   33.3545 C   0  0  0  0  0  0
   20.0811   18.8138   34.2390 C   0  0  0  0  0  0
   21.4792   16.9618   33.3260 C   0  0  0  0  0  0
   21.4872   15.5718   33.4200 C   0  0  0  0  0  0
   22.6846   14.8593   33.4132 C   0  0  0  0  0  0
   23.9303   15.5331   33.3035 C   0  0  0  0  0  0
   23.9272   16.9567   33.1704 C   0  0  0  0  0  0
   22.6852   17.6433   33.1910 C   0  0  0  0  0  0
   25.1826   17.6173   33.0271 C   0  0  0  0  0  0
   26.3658   16.9519   33.0381 N   0  0  0  0  0  0
   26.3496   15.6076   33.1859 C   0  0  0  0  0  0
   25.1840   14.8556   33.3179 C   0  0  0  0  0  0
   25.3033   13.1387   33.5020 Cl  0  0  0  0  0  0
   25.1978   19.0143   32.8345 N   0  0  0  0  0  0
   26.2082   20.0096   32.8260 C   0  0  0  0  0  0
   25.9240   21.2131   32.6200 N   0  0  0  0  0  0
   27.5264   19.5892   33.0712 N   0  0  0  0  0  0
   17.0144   18.0120   31.4200 C   0  0  0  0  0  0
   16.1985   17.8018   30.6252 N   0  0  0  0  0  0
   18.8384   20.4326   34.9125 H   0  0  0  0  0  0
   17.0440   19.9682   33.3233 H   0  0  0  0  0  0
   19.2947   16.6412   31.7585 H   0  0  0  0  0  0
   20.8668   19.0533   34.9420 H   0  0  0  0  0  0
   20.5540   15.0342   33.5181 H   0  0  0  0  0  0
   22.6601   13.7826   33.4935 H   0  0  0  0  0  0
   22.6657   18.7203   33.0995 H   0  0  0  0  0  0
   27.3149   15.1218   33.1913 H   0  0  0  0  0  0
   24.2663   19.3951   32.7654 H   0  0  0  0  0  0
   24.9333   21.3059   32.4233 H   0  0  0  0  0  0
   28.2864   20.2105   32.8427 H   0  0  0  0  0  0
   27.7462   18.6114   32.9432 H   0  0  0  0  0  0
  1  6  1  0  0  0
  1  2  2  0  0  0
  1 24  1  0  0  0
  2  3  1  0  0  0
  2 25  1  0  0  0
  3  4  2  0  0  0
  3 22  1  0  0  0
  4  5  1  0  0  0
  4 26  1  0  0  0
  5  6  2  0  0  0
  5  7  1  0  0  0
  6 27  1  0  0  0
  7 12  1  0  0  0
  7  8  2  0  0  0
  8  9  1  0  0  0
  8 28  1  0  0  0
  9 10  2  0  0  0
  9 29  1  0  0  0
 10 16  1  0  0  0
 10 11  1  0  0  0
 11 12  2  0  0  0
 11 13  1  0  0  0
 12 30  1  0  0  0
 13 14  2  0  0  0
 13 18  1  0  0  0
 14 15  1  0  0  0
 15 16  2  0  0  0
 15 31  1  0  0  0
 16 17  1  0  0  0
 18 19  1  0  0  0
 18 32  1  0  0  0
 19 20  2  3  0  0
 19 21  1  0  0  0
 20 33  1  0  0  0
 21 34  1  0  0  0
 21 35  1  0  0  0
 22 23  3  0  0  0
M  END
> <s_m_entry_id>
42457

> <s_m_entry_name>
ligand_docking-pose.21

> <s_m_Source_Path>
/home/csk/Desktop/cluster/DUD-E-result/urok

> <s_m_Source_File>
ligand_docking-pose.sdf

> <i_m_Source_File_Index>
21

> <i_lp_mmshare_version>
53161

> <i_f3d_flags>
0

> <r_lp_tautomer_probability>
1

> <s_lp_Force_Field>
OPLS_2005

> <r_lp_Energy>
12.507227

> <b_lp_Chiralities_Consistent>
1

> <s_lp_Variant>
181531-2

> <s_i_glide_gridfile>
glide-grid_1sqt

> <i_i_glide_lignum>
118

> <i_i_glide_rotatable_bonds>
3

> <r_i_docking_score>
-6.94775321255359

> <r_i_glide_ligand_efficiency>
-0.302076226632765

> <r_i_glide_ligand_efficiency_sa>
-0.859064605421214

> <r_i_glide_ligand_efficiency_ln>
-1.68002972553852

> <r_i_glide_gscore>
-6.94775321255359

> <r_i_glide_lipo>
-2.56464450825755

> <r_i_glide_hbond>
-0.356843171297104

> <r_i_glide_metal>
0

> <r_i_glide_rewards>
-1.66524968181818

> <r_i_glide_evdw>
-33.0089492797852

> <r_i_glide_ecoul>
-8.32351875305176

> <r_i_glide_erotb>
0.541603989447561

> <r_i_glide_esite>
-0.00364456368129628

> <r_i_glide_emodel>
-58.6821075597271

> <r_i_glide_energy>
-41.3324680328369

> <r_i_glide_einternal>
0.966424107551575

> <i_i_glide_confnum>
2

> <i_i_glide_posenum>
312

> <r_i_glide_eff_state_penalty>
0

> <s_user_duplicate_titles>
181531

> <s_m_subgroup_title>
dock_pv

> <s_m_subgroupid>
dock_pv1

> <b_m_subgroup_collapsed>
0

$$$$
180987
                    3D
 Schrodinger Suite 2021-1.
 37 40  0  0  1  0            999 V2000
   24.5184   16.0852   34.2739 C   0  0  0  0  0  0
   25.0117   16.8119   35.3527 C   0  0  0  0  0  0
   24.2867   17.8657   35.9068 C   0  0  0  0  0  0
   23.0528   18.2192   35.3510 C   0  0  0  0  0  0
   22.5057   17.4920   34.2544 C   0  0  0  0  0  0
   23.2583   16.4015   33.7157 C   0  0  0  0  0  0
   22.7239   15.6608   32.6339 C   0  0  0  0  0  0
   21.4773   16.0124   32.1306 C   0  0  0  0  0  0
   20.7427   17.0338   32.6201 N   0  0  0  0  0  0
   21.2371   17.7673   33.6532 C   0  0  0  0  0  0
   20.4478   18.8450   34.1092 N   0  0  0  0  0  0
   19.1080   19.2276   33.8205 C   0  0  0  0  0  0
   18.3240   18.5999   33.0677 N   0  0  0  0  0  0
   18.7240   20.4087   34.4785 N   0  0  0  0  0  0
   24.8168   18.5894   37.0863 C   0  0  0  0  0  0
   25.0713   17.9031   38.2924 C   0  0  0  0  0  0
   25.5732   18.5711   39.4183 C   0  0  0  0  0  0
   25.8090   19.9353   39.3017 C   0  0  0  0  0  0
   25.5712   20.6085   38.1392 C   0  0  0  0  0  0
   25.0794   19.9667   37.0083 C   0  0  0  0  0  0
   25.9267   21.9118   38.2900 O   0  0  0  0  0  0
   26.1735   22.0729   39.6625 C   0  0  0  0  0  0
   26.3244   20.7942   40.2188 O   0  0  0  0  0  0
   25.0922   15.2665   33.8651 H   0  0  0  0  0  0
   25.9696   16.5415   35.7736 H   0  0  0  0  0  0
   22.4919   19.0386   35.7803 H   0  0  0  0  0  0
   23.2802   14.8374   32.2091 H   0  0  0  0  0  0
   21.0468   15.4716   31.3001 H   0  0  0  0  0  0
   20.8984   19.4191   34.8059 H   0  0  0  0  0  0
   18.7967   17.7931   32.6809 H   0  0  0  0  0  0
   17.7740   20.7596   34.4496 H   0  0  0  0  0  0
   19.3549   20.9239   35.0763 H   0  0  0  0  0  0
   24.8762   16.8413   38.3551 H   0  0  0  0  0  0
   25.7709   18.0440   40.3397 H   0  0  0  0  0  0
   24.9053   20.5017   36.0878 H   0  0  0  0  0  0
   25.3177   22.5694   40.1305 H   0  0  0  0  0  0
   27.0730   22.6677   39.8303 H   0  0  0  0  0  0
  1  6  1  0  0  0
  1  2  2  0  0  0
  1 24  1  0  0  0
  2  3  1  0  0  0
  2 25  1  0  0  0
  3  4  2  0  0  0
  3 15  1  0  0  0
  4  5  1  0  0  0
  4 26  1  0  0  0
  5 10  2  0  0  0
  5  6  1  0  0  0
  6  7  2  0  0  0
  7  8  1  0  0  0
  7 27  1  0  0  0
  8  9  2  0  0  0
  8 28  1  0  0  0
  9 10  1  0  0  0
 10 11  1  0  0  0
 11 12  1  0  0  0
 11 29  1  0  0  0
 12 13  2  3  0  0
 12 14  1  0  0  0
 13 30  1  0  0  0
 14 31  1  0  0  0
 14 32  1  0  0  0
 15 20  1  0  0  0
 15 16  2  0  0  0
 16 17  1  0  0  0
 16 33  1  0  0  0
 17 18  2  0  0  0
 17 34  1  0  0  0
 18 23  1  0  0  0
 18 19  1  0  0  0
 19 20  2  0  0  0
 19 21  1  0  0  0
 20 35  1  0  0  0
 21 22  1  0  0  0
 22 23  1  0  0  0
 22 36  1  0  0  0
 22 37  1  0  0  0
M  END
> <s_m_entry_id>
42459

> <s_m_entry_name>
ligand_docking-pose.23

> <s_m_Source_Path>
/home/csk/Desktop/cluster/DUD-E-result/urok

> <s_m_Source_File>
ligand_docking-pose.sdf

> <i_m_Source_File_Index>
23

> <i_lp_mmshare_version>
53161

> <i_f3d_flags>
0

> <r_lp_tautomer_probability>
1

> <s_lp_Force_Field>
OPLS_2005

> <r_lp_Energy>
21.55836

> <b_lp_Chiralities_Consistent>
1

> <s_lp_Variant>
180987-2

> <s_i_glide_gridfile>
glide-grid_1sqt

> <i_i_glide_lignum>
85

> <i_i_glide_rotatable_bonds>
3

> <r_i_docking_score>
-6.83041882039172

> <r_i_glide_ligand_efficiency>
-0.296974731321379

> <r_i_glide_ligand_efficiency_sa>
-0.84455663137246

> <r_i_glide_ligand_efficiency_ln>
-1.65165720558434

> <r_i_glide_gscore>
-6.83041882039172

> <r_i_glide_lipo>
-2.37232523787298

> <r_i_glide_hbond>
-0.593956320431825

> <r_i_glide_metal>
0

> <r_i_glide_rewards>
-1.32055459090909

> <r_i_glide_evdw>
-37.538257598877

> <r_i_glide_ecoul>
-8.24247169494629

> <r_i_glide_erotb>
0.590537006201493

> <r_i_glide_esite>
-0.0208360431935295

> <r_i_glide_emodel>
-62.6830321823839

> <r_i_glide_energy>
-45.7807292938232

> <r_i_glide_einternal>
3.5487322807312

> <i_i_glide_confnum>
5

> <i_i_glide_posenum>
161

> <r_i_glide_eff_state_penalty>
0

> <s_user_duplicate_titles>
180987

> <s_m_subgroup_title>
dock_pv

> <s_m_subgroupid>
dock_pv1

> <b_m_subgroup_collapsed>
0

$$$$
152527
                    3D
 Schrodinger Suite 2021-1.
 31 33  0  0  1  0            999 V2000
   18.3688   19.2957   33.7071 C   0  0  0  0  0  0
   19.6161   19.0213   34.2575 C   0  0  0  0  0  0
   20.4488   18.0199   33.7284 C   0  0  0  0  0  0
   19.9623   17.2526   32.6494 C   0  0  0  0  0  0
   18.7010   17.5214   32.1120 C   0  0  0  0  0  0
   17.9240   18.5555   32.6199 C   0  0  0  0  0  0
   18.2430   16.8120   31.0553 F   0  0  0  0  0  0
   20.7004   16.2537   32.0645 O   0  0  0  0  0  0
   21.8277   17.8657   34.3138 C   0  0  0  0  0  0
   22.3925   18.8125   35.1397 N   0  0  0  0  0  0
   23.6778   18.4265   35.4208 C   0  0  0  0  0  0
   24.7094   18.9878   36.1714 C   0  0  0  0  0  0
   25.9211   18.2933   36.1743 C   0  0  0  0  0  0
   26.1188   17.0865   35.4758 C   0  0  0  0  0  0
   25.0484   16.5358   34.7463 C   0  0  0  0  0  0
   23.8213   17.2117   34.7178 C   0  0  0  0  0  0
   22.6605   16.8775   34.0714 N   0  0  0  0  0  0
   27.4341   16.4121   35.4860 C   0  0  0  0  0  0
   27.9031   15.8989   34.4369 N   0  0  0  0  0  0
   28.0372   16.4118   36.7169 N   0  0  0  0  0  0
   21.9144   19.6620   35.4191 H   0  0  0  0  0  0
   17.7506   20.0807   34.1245 H   0  0  0  0  0  0
   19.9252   19.6121   35.1057 H   0  0  0  0  0  0
   16.9590   18.7695   32.1827 H   0  0  0  0  0  0
   20.3153   15.9734   31.2308 H   0  0  0  0  0  0
   24.5856   19.9148   36.7113 H   0  0  0  0  0  0
   26.7409   18.7263   36.7318 H   0  0  0  0  0  0
   25.1596   15.6070   34.2049 H   0  0  0  0  0  0
   27.2924   16.0318   33.6452 H   0  0  0  0  0  0
   28.9400   15.9756   36.8171 H   0  0  0  0  0  0
   27.5017   16.6472   37.5385 H   0  0  0  0  0  0
  1  6  1  0  0  0
  1  2  2  0  0  0
  1 22  1  0  0  0
  2  3  1  0  0  0
  2 23  1  0  0  0
  3  4  2  0  0  0
  3  9  1  0  0  0
  4  5  1  0  0  0
  4  8  1  0  0  0
  5  6  2  0  0  0
  5  7  1  0  0  0
  6 24  1  0  0  0
  8 25  1  0  0  0
  9 17  2  0  0  0
  9 10  1  0  0  0
 10 21  1  0  0  0
 10 11  1  0  0  0
 11 16  2  0  0  0
 11 12  1  0  0  0
 12 13  2  0  0  0
 12 26  1  0  0  0
 13 14  1  0  0  0
 13 27  1  0  0  0
 14 15  2  0  0  0
 14 18  1  0  0  0
 15 16  1  0  0  0
 15 28  1  0  0  0
 16 17  1  0  0  0
 18 19  2  3  0  0
 18 20  1  0  0  0
 19 29  1  0  0  0
 20 30  1  0  0  0
 20 31  1  0  0  0
M  END
> <s_m_entry_id>
42461

> <s_m_entry_name>
ligand_docking-pose.25

> <s_m_Source_Path>
/home/csk/Desktop/cluster/DUD-E-result/urok

> <s_m_Source_File>
ligand_docking-pose.sdf

> <i_m_Source_File_Index>
25

> <i_lp_mmshare_version>
53161

> <i_f3d_flags>
0

> <r_lp_tautomer_probability>
0.999999999997365

> <s_lp_Force_Field>
OPLS_2005

> <r_lp_Energy>
16.532944

> <b_lp_Chiralities_Consistent>
1

> <s_lp_Variant>
152527-2

> <s_i_glide_gridfile>
glide-grid_1sqt

> <i_i_glide_lignum>
384

> <i_i_glide_rotatable_bonds>
3

> <r_i_docking_score>
-6.80120854654504

> <r_i_glide_ligand_efficiency>
-0.340060427327252

> <r_i_glide_ligand_efficiency_sa>
-0.923066013722132

> <r_i_glide_ligand_efficiency_ln>
-1.70211818032937

> <r_i_glide_gscore>
-6.80120854654504

> <r_i_glide_lipo>
-2.1041778375583

> <r_i_glide_hbond>
-0.32

> <r_i_glide_metal>
0

> <r_i_glide_rewards>
-2.27148036765781

> <r_i_glide_evdw>
-29.8922653198242

> <r_i_glide_ecoul>
-5.62921667098999

> <r_i_glide_erotb>
0.24483453095862

> <r_i_glide_esite>
-0.0113891056478308

> <r_i_glide_emodel>
-50.0891992263522

> <r_i_glide_energy>
-35.5214819908142

> <r_i_glide_einternal>
0.147108942270279

> <i_i_glide_confnum>
1

> <i_i_glide_posenum>
101

> <r_i_glide_eff_state_penalty>
0

> <s_user_duplicate_titles>
152527

> <s_m_subgroup_title>
dock_pv

> <s_m_subgroupid>
dock_pv1

> <b_m_subgroup_collapsed>
0

$$$$
