CHEMBL402_lig26
                    3D
 Schrodinger Suite 2021-1.
 62 64  0  0  1  0            999 V2000
  -16.3406    7.1467   47.1519 N   0  0  0  0  0  0
  -14.3829    7.3395   46.0353 C   0  0  0  0  0  0
  -15.4193    6.4479   46.3875 C   0  0  0  0  0  0
  -14.7039    8.5905   46.6063 C   0  0  0  0  0  0
  -15.9013    8.4350   47.2719 C   0  0  0  0  0  0
  -13.2035    7.0691   45.1113 C   0  0  0  0  0  0
  -13.6550   11.1001   39.7355 C   0  0  0  0  0  0
  -13.9698    9.8801   46.4845 C   0  0  0  0  0  0
  -13.2504    9.6313   39.7020 C   0  0  0  0  0  0
  -17.5595    6.6881   47.6808 C   0  0  0  0  0  0
  -12.6979   11.9000   39.1998 O   0  0  0  0  0  0
  -15.6914    4.9869   46.0066 C   0  0  0  0  0  0
  -14.7102   11.5000   40.2188 O   0  0  0  0  0  0
  -13.1273    9.0639   41.1229 C   0  0  1  0  0  0
  -12.9815    7.5237   41.1588 C   0  0  0  0  0  0
  -12.6082    9.9762   46.7882 C   0  0  0  0  0  0
  -14.6717   11.0114   46.0589 C   0  0  0  0  0  0
  -13.5862    7.4327   43.6671 C   0  0  0  0  0  0
  -12.6550   12.3163   46.2191 C   0  0  0  0  0  0
  -14.0123   12.2283   45.9260 C   0  0  0  0  0  0
  -11.9488   11.1964   46.6518 C   0  0  0  0  0  0
  -12.0190   13.4995   46.0749 F   0  0  0  0  0  0
  -12.6686    6.8999   42.5416 C   0  0  2  0  0  0
  -12.0190    9.6898   41.7289 O   0  0  0  0  0  0
  -11.3006    7.1000   42.8322 O   0  0  0  0  0  0
  -18.7562    7.1003   47.0907 C   0  0  0  0  0  0
  -17.5664    5.8479   48.7965 C   0  0  0  0  0  0
  -14.4196    4.1543   45.7811 C   0  0  0  0  0  0
  -16.6166    4.9123   44.7765 C   0  0  0  0  0  0
  -18.7816    5.4178   49.3241 C   0  0  0  0  0  0
  -19.9670    6.6687   47.6212 C   0  0  0  0  0  0
  -19.9761    5.8302   48.7343 C   0  0  0  0  0  0
  -16.4944    9.1513   47.8208 H   0  0  0  0  0  0
  -12.8330    6.0521   45.1685 H   0  0  0  0  0  0
  -12.3342    7.6582   45.3971 H   0  0  0  0  0  0
  -14.0190    9.1000   39.1543 H   0  0  0  0  0  0
  -12.3289    9.4834   39.1358 H   0  0  0  0  0  0
  -16.2148    4.4877   46.8234 H   0  0  0  0  0  0
  -14.0189    9.3348   41.6906 H   0  0  0  0  0  0
  -13.9110    7.0847   40.7966 H   0  0  0  0  0  0
  -12.2170    7.2120   40.4462 H   0  0  0  0  0  0
  -12.0637    9.1106   47.1355 H   0  0  0  0  0  0
  -15.7244   10.9472   45.8218 H   0  0  0  0  0  0
  -13.6263    8.5204   43.6477 H   0  0  0  0  0  0
  -14.5997    7.0916   43.4528 H   0  0  0  0  0  0
  -14.5511   13.1000   45.5935 H   0  0  0  0  0  0
  -10.8968   11.2798   46.8821 H   0  0  0  0  0  0
  -12.8115    5.8199   42.4703 H   0  0  0  0  0  0
  -11.2322    9.3202   41.3039 H   0  0  0  0  0  0
  -11.0200    6.3780   43.4190 H   0  0  0  0  0  0
  -18.7505    7.7447   46.2230 H   0  0  0  0  0  0
  -16.6401    5.5306   49.2550 H   0  0  0  0  0  0
  -13.6652    4.3375   46.5476 H   0  0  0  0  0  0
  -14.6512    3.1000   45.8193 H   0  0  0  0  0  0
  -13.9818    4.3210   44.7968 H   0  0  0  0  0  0
  -17.5680    5.4160   44.9553 H   0  0  0  0  0  0
  -16.1591    5.3754   43.9021 H   0  0  0  0  0  0
  -16.8396    3.8787   44.5140 H   0  0  0  0  0  0
  -18.7969    4.7660   50.1855 H   0  0  0  0  0  0
  -20.8921    6.9727   47.1580 H   0  0  0  0  0  0
  -20.9179    5.4930   49.1412 H   0  0  0  0  0  0
  -12.8648   12.8327   39.4189 H   0  0  0  0  0  0
  1  3  1  0  0  0
  1  5  1  0  0  0
  1 10  1  0  0  0
  2  3  2  0  0  0
  2  6  1  0  0  0
  2  4  1  0  0  0
  3 12  1  0  0  0
  4  5  2  0  0  0
  4  8  1  0  0  0
  5 33  1  0  0  0
  6 18  1  0  0  0
  6 34  1  0  0  0
  6 35  1  0  0  0
  7  9  1  0  0  0
  7 11  1  0  0  0
  7 13  2  0  0  0
  8 16  2  0  0  0
  8 17  1  0  0  0
  9 14  1  0  0  0
  9 36  1  0  0  0
  9 37  1  0  0  0
 10 26  1  0  0  0
 10 27  2  0  0  0
 11 62  1  0  0  0
 12 28  1  0  0  0
 12 29  1  0  0  0
 12 38  1  0  0  0
 14 15  1  0  0  0
 14 24  1  0  0  0
 14 39  1  0  0  0
 15 23  1  0  0  0
 15 40  1  0  0  0
 15 41  1  0  0  0
 16 21  1  0  0  0
 16 42  1  0  0  0
 17 20  2  0  0  0
 17 43  1  0  0  0
 18 23  1  0  0  0
 18 44  1  0  0  0
 18 45  1  0  0  0
 19 20  1  0  0  0
 19 22  1  0  0  0
 19 21  2  0  0  0
 20 46  1  0  0  0
 21 47  1  0  0  0
 23 25  1  0  0  0
 23 48  1  0  0  0
 24 49  1  0  0  0
 25 50  1  0  0  0
 26 31  2  0  0  0
 26 51  1  0  0  0
 27 30  1  0  0  0
 27 52  1  0  0  0
 28 53  1  0  0  0
 28 54  1  0  0  0
 28 55  1  0  0  0
 29 56  1  0  0  0
 29 57  1  0  0  0
 29 58  1  0  0  0
 30 32  2  0  0  0
 30 59  1  0  0  0
 31 32  1  0  0  0
 31 60  1  0  0  0
 32 61  1  0  0  0
M  END
> <s_m_entry_id>
60115

> <s_m_entry_name>
dock_pv.2

> <s_m_Source_Path>
/home/csk/Desktop/cluster/DUD-E-result/hmdh

> <s_m_Source_File>
dock_pv.maegz

> <i_m_Source_File_Index>
2

> <chembl_id>
CHEMBL2110171

> <chembl_pref_name>
None

> <i_lp_mmshare_version>
53161

> <i_f3d_flags>
0

> <r_lp_tautomer_probability>
1

> <s_lp_Force_Field>
OPLS_2005

> <r_lp_Energy>
22.598443

> <b_lp_Chiralities_Consistent>
1

> <s_lp_Variant>
CHEMBL402_lig26-2

> <s_i_glide_gridfile>
glide-grid_3ccw

> <i_i_glide_lignum>
28

> <i_i_glide_rotatable_bonds>
13

> <r_i_docking_score>
-7.56413171148273

> <r_i_glide_ligand_efficiency>
-0.236379115983835

> <r_i_glide_ligand_efficiency_sa>
-0.750456913885144

> <r_i_glide_ligand_efficiency_ln>
-1.693815280644

> <r_i_glide_gscore>
-7.56413171148273

> <r_i_glide_lipo>
-3.18498858964298

> <r_i_glide_hbond>
-0.145247399271882

> <r_i_glide_metal>
0

> <r_i_glide_rewards>
-0.826035109952152

> <r_i_glide_evdw>
-41.1606254577637

> <r_i_glide_ecoul>
-15.1980209350586

> <r_i_glide_erotb>
0.929873800531263

> <r_i_glide_esite>
0

> <r_i_glide_emodel>
-79.0418196659651

> <r_i_glide_energy>
-56.3586463928223

> <r_i_glide_einternal>
9.69756603240967

> <i_i_glide_confnum>
171

> <i_i_glide_posenum>
325

> <r_i_glide_eff_state_penalty>
0

> <s_user_duplicate_titles>
CHEMBL402_lig26

> <s_m_subgroup_title>
dock_pv

> <s_m_subgroupid>
dock_pv

> <b_m_subgroup_collapsed>
1

$$$$
CHEMBL402_lig23
                    3D
 Schrodinger Suite 2021-1.
 66 68  0  0  1  0            999 V2000
  -16.2664    6.9217   46.9052 N   0  0  0  0  0  0
  -14.3959    7.2995   45.6963 C   0  0  0  0  0  0
  -15.3353    6.3162   46.0675 C   0  0  0  0  0  0
  -14.6975    8.4770   46.4089 C   0  0  0  0  0  0
  -15.8506    8.2148   47.1180 C   0  0  0  0  0  0
  -13.3286    7.1760   44.7254 C   0  0  0  0  0  0
  -13.8895   11.0986   39.9359 C   0  0  0  0  0  0
  -13.9750    9.7835   46.3639 C   0  0  0  0  0  0
  -13.5119    9.6244   39.8222 C   0  0  0  0  0  0
  -13.5220    6.8792   43.4282 C   0  0  0  0  0  0
  -17.4787    6.3187   47.4918 C   0  0  0  0  0  0
  -13.0712   11.8999   39.1998 O   0  0  0  0  0  0
  -15.4540    4.8327   45.6742 C   0  0  0  0  0  0
  -14.8217   11.5044   40.6205 O   0  0  0  0  0  0
  -13.1429    9.0018   41.1823 C   0  0  1  0  0  0
  -12.8246    7.4957   41.0471 C   0  0  0  0  0  0
  -14.7069   10.9629   46.1838 C   0  0  0  0  0  0
  -12.5825    9.8393   46.4777 C   0  0  0  0  0  0
  -12.6605   12.2317   46.2033 C   0  0  0  0  0  0
  -12.4709    6.7374   42.3416 C   0  0  1  0  0  0
  -11.9273   11.0653   46.4047 C   0  0  0  0  0  0
  -14.0458   12.1852   46.0943 C   0  0  0  0  0  0
  -12.0190   13.4189   46.1129 F   0  0  0  0  0  0
  -12.0190    9.6846   41.6949 O   0  0  0  0  0  0
  -11.1846    7.1031   42.8007 O   0  0  0  0  0  0
  -17.3217    6.2656   49.0366 C   0  0  0  0  0  0
  -18.7138    7.1359   47.0254 C   0  0  0  0  0  0
  -14.1011    4.1295   45.4590 C   0  0  0  0  0  0
  -16.3747    4.6511   44.4524 C   0  0  0  0  0  0
  -19.9988    6.6926   47.7378 C   0  0  0  0  0  0
  -18.6392    5.8549   49.7302 C   0  0  0  0  0  0
  -19.8333    6.7107   49.2663 C   0  0  0  0  0  0
  -16.4272    8.8600   47.7622 H   0  0  0  0  0  0
  -12.3369    7.3569   45.1097 H   0  0  0  0  0  0
  -14.3716    9.0981   39.4193 H   0  0  0  0  0  0
  -12.7046    9.4817   39.1038 H   0  0  0  0  0  0
  -14.5364    6.7163   43.0906 H   0  0  0  0  0  0
  -17.5710    5.3156   47.0900 H   0  0  0  0  0  0
  -15.8872    4.2579   46.4937 H   0  0  0  0  0  0
  -13.9720    9.1326   41.8851 H   0  0  0  0  0  0
  -13.6989    7.0086   40.6186 H   0  0  0  0  0  0
  -12.0238    7.3578   40.3235 H   0  0  0  0  0  0
  -15.7820   10.9347   46.0806 H   0  0  0  0  0  0
  -12.0082    8.9365   46.6205 H   0  0  0  0  0  0
  -12.4229    5.6690   42.1343 H   0  0  0  0  0  0
  -10.8544   11.1269   46.5099 H   0  0  0  0  0  0
  -14.6054   13.1002   45.9498 H   0  0  0  0  0  0
  -11.2538    9.3937   41.1738 H   0  0  0  0  0  0
  -10.8987    6.4002   43.4055 H   0  0  0  0  0  0
  -16.5767    5.5025   49.2791 H   0  0  0  0  0  0
  -16.9200    7.1930   49.4535 H   0  0  0  0  0  0
  -18.5719    8.2131   47.1143 H   0  0  0  0  0  0
  -18.8693    6.9534   45.9552 H   0  0  0  0  0  0
  -13.4321    4.2653   46.3156 H   0  0  0  0  0  0
  -14.2666    3.0619   45.3224 H   0  0  0  0  0  0
  -13.5872    4.4633   44.5566 H   0  0  0  0  0  0
  -17.3491    5.1076   44.6227 H   0  0  0  0  0  0
  -15.9569    5.1222   43.5662 H   0  0  0  0  0  0
  -16.5334    3.5963   44.2198 H   0  0  0  0  0  0
  -20.2642    5.6863   47.4190 H   0  0  0  0  0  0
  -20.8183    7.3427   47.4351 H   0  0  0  0  0  0
  -18.8390    4.8071   49.5022 H   0  0  0  0  0  0
  -18.5390    5.9163   50.8159 H   0  0  0  0  0  0
  -20.7494    6.3629   49.7411 H   0  0  0  0  0  0
  -19.6932    7.7453   49.5890 H   0  0  0  0  0  0
  -13.2189   12.8390   39.4206 H   0  0  0  0  0  0
  1  3  1  0  0  0
  1  5  1  0  0  0
  1 11  1  0  0  0
  2  3  2  0  0  0
  2  6  1  0  0  0
  2  4  1  0  0  0
  3 13  1  0  0  0
  4  5  2  0  0  0
  4  8  1  0  0  0
  5 33  1  0  0  0
  6 10  2  0  0  0
  6 34  1  0  0  0
  7  9  1  0  0  0
  7 12  1  0  0  0
  7 14  2  0  0  0
  8 17  2  0  0  0
  8 18  1  0  0  0
  9 15  1  0  0  0
  9 35  1  0  0  0
  9 36  1  0  0  0
 10 20  1  0  0  0
 10 37  1  0  0  0
 11 26  1  0  0  0
 11 27  1  0  0  0
 11 38  1  0  0  0
 12 66  1  0  0  0
 13 28  1  0  0  0
 13 29  1  0  0  0
 13 39  1  0  0  0
 15 16  1  0  0  0
 15 24  1  0  0  0
 15 40  1  0  0  0
 16 20  1  0  0  0
 16 41  1  0  0  0
 16 42  1  0  0  0
 17 22  1  0  0  0
 17 43  1  0  0  0
 18 21  2  0  0  0
 18 44  1  0  0  0
 19 21  1  0  0  0
 19 23  1  0  0  0
 19 22  2  0  0  0
 20 25  1  0  0  0
 20 45  1  0  0  0
 21 46  1  0  0  0
 22 47  1  0  0  0
 24 48  1  0  0  0
 25 49  1  0  0  0
 26 31  1  0  0  0
 26 50  1  0  0  0
 26 51  1  0  0  0
 27 30  1  0  0  0
 27 52  1  0  0  0
 27 53  1  0  0  0
 28 54  1  0  0  0
 28 55  1  0  0  0
 28 56  1  0  0  0
 29 57  1  0  0  0
 29 58  1  0  0  0
 29 59  1  0  0  0
 30 32  1  0  0  0
 30 60  1  0  0  0
 30 61  1  0  0  0
 31 32  1  0  0  0
 31 62  1  0  0  0
 31 63  1  0  0  0
 32 64  1  0  0  0
 32 65  1  0  0  0
M  END
> <s_m_entry_id>
60116

> <s_m_entry_name>
dock_pv.3

> <s_m_Source_Path>
/home/csk/Desktop/cluster/DUD-E-result/hmdh

> <s_m_Source_File>
dock_pv.maegz

> <i_m_Source_File_Index>
3

> <chembl_id>
CHEMBL2375155

> <chembl_pref_name>
None

> <i_lp_mmshare_version>
53161

> <i_f3d_flags>
0

> <r_lp_tautomer_probability>
1

> <s_lp_Force_Field>
OPLS_2005

> <r_lp_Energy>
32.095625

> <b_lp_Chiralities_Consistent>
1

> <s_lp_Variant>
CHEMBL402_lig23-1

> <s_i_glide_gridfile>
glide-grid_3ccw

> <i_i_glide_lignum>
24

> <i_i_glide_rotatable_bonds>
12

> <r_i_docking_score>
-7.54320671012169

> <r_i_glide_ligand_efficiency>
-0.235725209691303

> <r_i_glide_ligand_efficiency_sa>
-0.748380890814233

> <r_i_glide_ligand_efficiency_ln>
-1.68912960244527

> <r_i_glide_gscore>
-7.54320671012169

> <r_i_glide_lipo>
-3.01017427750405

> <r_i_glide_hbond>
-0.11764558354558

> <r_i_glide_metal>
0

> <r_i_glide_rewards>
-0.894737343906479

> <r_i_glide_evdw>
-39.4802055358887

> <r_i_glide_ecoul>
-15.7307024002075

> <r_i_glide_erotb>
0.812966131659981

> <r_i_glide_esite>
0

> <r_i_glide_emodel>
-77.8256301555282

> <r_i_glide_energy>
-55.2109079360962

> <r_i_glide_einternal>
7.66335964202881

> <i_i_glide_confnum>
70

> <i_i_glide_posenum>
268

> <r_i_glide_eff_state_penalty>
0

> <s_user_duplicate_titles>
CHEMBL402_lig23

> <s_m_subgroup_title>
dock_pv

> <s_m_subgroupid>
dock_pv

> <b_m_subgroup_collapsed>
1

$$$$
CHEMBL402_lig115
                    3D
 Schrodinger Suite 2021-1.
 59 61  0  0  1  0            999 V2000
  -14.8086    7.5208   46.0292 N   0  0  0  0  0  0
  -16.3985    6.1135   46.7126 N   0  0  0  0  0  0
  -16.5742    7.2633   47.3419 C   0  0  0  0  0  0
  -15.5721    8.1755   46.9803 C   0  0  0  0  0  0
  -15.3790    6.2668   45.9037 C   0  0  0  0  0  0
  -13.7719    8.1121   45.2752 C   0  0  0  0  0  0
  -15.3045    9.5856   47.3996 C   0  0  0  0  0  0
  -12.6914    7.4993   44.7581 C   0  0  0  0  0  0
  -17.7383    7.4287   48.2756 C   0  0  0  0  0  0
  -13.7286   11.1370   40.1842 C   0  0  0  0  0  0
  -13.0392    9.8187   40.5668 C   0  0  0  0  0  0
  -16.2846   10.5702   47.2510 C   0  0  0  0  0  0
  -14.9405    5.1798   44.9241 C   0  0  0  0  0  0
  -12.9555   11.9000   39.3640 O   0  0  0  0  0  0
  -14.8186   11.5001   40.6196 O   0  0  0  0  0  0
  -12.9679    9.5353   42.0940 C   0  0  1  0  0  0
  -11.9922    8.3757   42.4352 C   0  0  0  0  0  0
  -18.9172    6.7002   48.0568 C   0  0  0  0  0  0
  -17.6690    8.3017   49.3676 C   0  0  0  0  0  0
  -11.6350    8.2081   43.9379 C   0  0  2  0  0  0
  -16.0090   11.8936   47.5993 C   0  0  0  0  0  0
  -19.9290    7.7298   49.9826 C   0  0  0  0  0  0
  -20.0087    6.8499   48.9078 C   0  0  0  0  0  0
  -18.7629    8.4542   50.2179 C   0  0  0  0  0  0
  -14.0515    9.9378   47.9150 C   0  0  0  0  0  0
  -17.2186   13.1056   47.4206 Cl  0  0  0  0  0  0
  -20.9946    7.8839   50.8007 F   0  0  0  0  0  0
  -12.5426   10.7009   42.7815 O   0  0  0  0  0  0
  -10.4276    7.5000   44.0859 O   0  0  0  0  0  0
  -13.7739   11.2616   48.2559 C   0  0  0  0  0  0
  -14.7513   12.2409   48.0901 C   0  0  0  0  0  0
  -16.1447    4.5225   44.2363 C   0  0  0  0  0  0
  -14.0602    4.1202   45.6149 C   0  0  0  0  0  0
  -13.9211    9.1745   45.1490 H   0  0  0  0  0  0
  -12.5362    6.4402   44.9058 H   0  0  0  0  0  0
  -13.5593    9.0070   40.0588 H   0  0  0  0  0  0
  -12.0301    9.8233   40.1544 H   0  0  0  0  0  0
  -17.2514   10.3090   46.8505 H   0  0  0  0  0  0
  -14.3678    5.6087   44.1036 H   0  0  0  0  0  0
  -13.2189   12.8363   39.4201 H   0  0  0  0  0  0
  -13.9682    9.2858   42.4546 H   0  0  0  0  0  0
  -12.3823    7.4358   42.0412 H   0  0  0  0  0  0
  -11.0698    8.5530   41.8810 H   0  0  0  0  0  0
  -18.9945    6.0217   47.2180 H   0  0  0  0  0  0
  -16.7666    8.8602   49.5672 H   0  0  0  0  0  0
  -11.4356    9.1747   44.4002 H   0  0  0  0  0  0
  -20.9151    6.2904   48.7311 H   0  0  0  0  0  0
  -18.7082    9.1316   51.0570 H   0  0  0  0  0  0
  -13.2858    9.1857   48.0392 H   0  0  0  0  0  0
  -12.8188   10.6231   43.6985 H   0  0  0  0  0  0
  -10.5592    6.5729   43.8255 H   0  0  0  0  0  0
  -12.8016   11.5294   48.6436 H   0  0  0  0  0  0
  -14.5325   13.2675   48.3435 H   0  0  0  0  0  0
  -16.8202    5.2703   43.8200 H   0  0  0  0  0  0
  -15.7936    3.8993   43.4192 H   0  0  0  0  0  0
  -16.7209    3.8996   44.9222 H   0  0  0  0  0  0
  -13.1837    4.5651   46.0876 H   0  0  0  0  0  0
  -14.6111    3.5850   46.3885 H   0  0  0  0  0  0
  -13.7013    3.3803   44.8980 H   0  0  0  0  0  0
  1  4  1  0  0  0
  1  5  1  0  0  0
  1  6  1  0  0  0
  2  5  2  0  0  0
  2  3  1  0  0  0
  3  4  2  0  0  0
  3  9  1  0  0  0
  4  7  1  0  0  0
  5 13  1  0  0  0
  6  8  2  0  0  0
  6 34  1  0  0  0
  7 12  1  0  0  0
  7 25  2  0  0  0
  8 20  1  0  0  0
  8 35  1  0  0  0
  9 18  1  0  0  0
  9 19  2  0  0  0
 10 11  1  0  0  0
 10 14  1  0  0  0
 10 15  2  0  0  0
 11 16  1  0  0  0
 11 36  1  0  0  0
 11 37  1  0  0  0
 12 21  2  0  0  0
 12 38  1  0  0  0
 13 32  1  0  0  0
 13 33  1  0  0  0
 13 39  1  0  0  0
 14 40  1  0  0  0
 16 17  1  0  0  0
 16 28  1  0  0  0
 16 41  1  0  0  0
 17 20  1  0  0  0
 17 42  1  0  0  0
 17 43  1  0  0  0
 18 23  2  0  0  0
 18 44  1  0  0  0
 19 24  1  0  0  0
 19 45  1  0  0  0
 20 29  1  0  0  0
 20 46  1  0  0  0
 21 26  1  0  0  0
 21 31  1  0  0  0
 22 24  2  0  0  0
 22 27  1  0  0  0
 22 23  1  0  0  0
 23 47  1  0  0  0
 24 48  1  0  0  0
 25 30  1  0  0  0
 25 49  1  0  0  0
 28 50  1  0  0  0
 29 51  1  0  0  0
 30 31  2  0  0  0
 30 52  1  0  0  0
 31 53  1  0  0  0
 32 54  1  0  0  0
 32 55  1  0  0  0
 32 56  1  0  0  0
 33 57  1  0  0  0
 33 58  1  0  0  0
 33 59  1  0  0  0
M  END
> <s_m_entry_id>
60117

> <s_m_entry_name>
dock_pv.4

> <s_m_Source_Path>
/home/csk/Desktop/cluster/DUD-E-result/hmdh

> <s_m_Source_File>
dock_pv.maegz

> <i_m_Source_File_Index>
4

> <chembl_id>
CHEMBL1161660

> <chembl_pref_name>
None

> <i_lp_mmshare_version>
53161

> <i_f3d_flags>
0

> <r_lp_tautomer_probability>
1

> <s_lp_Force_Field>
OPLS_2005

> <r_lp_Energy>
25.322954

> <b_lp_Chiralities_Consistent>
1

> <s_lp_Variant>
CHEMBL402_lig115-1

> <s_i_glide_gridfile>
glide-grid_3ccw

> <i_i_glide_lignum>
159

> <i_i_glide_rotatable_bonds>
12

> <r_i_docking_score>
-7.47134145708303

> <r_i_glide_ligand_efficiency>
-0.226404286578274

> <r_i_glide_ligand_efficiency_sa>
-0.726199520811638

> <r_i_glide_ligand_efficiency_ln>
-1.66158765551955

> <r_i_glide_gscore>
-7.47134145708303

> <r_i_glide_lipo>
-3.00669804906007

> <r_i_glide_hbond>
-0.275077171809075

> <r_i_glide_metal>
0

> <r_i_glide_rewards>
-0.760889442068901

> <r_i_glide_evdw>
-41.0164337158203

> <r_i_glide_ecoul>
-14.0080232620239

> <r_i_glide_erotb>
0.723348380949624

> <r_i_glide_esite>
0

> <r_i_glide_emodel>
-78.2132668708537

> <r_i_glide_energy>
-55.0244569778442

> <r_i_glide_einternal>
9.54561042785645

> <i_i_glide_confnum>
234

> <i_i_glide_posenum>
282

> <r_i_glide_eff_state_penalty>
0

> <s_user_duplicate_titles>
CHEMBL402_lig115,643199

> <s_m_subgroup_title>
dock_pv

> <s_m_subgroupid>
dock_pv

> <b_m_subgroup_collapsed>
1

$$$$
CHEMBL402_lig15
                    3D
 Schrodinger Suite 2021-1.
 55 57  0  0  1  0            999 V2000
  -15.1496    6.0265   45.6135 N   0  0  0  0  0  0
  -14.9490    7.3792   45.9655 C   0  0  0  0  0  0
  -16.1917    5.6401   44.8625 N   0  0  0  0  0  0
  -15.9746    4.3002   44.6236 N   0  0  0  0  0  0
  -14.3141    4.9562   45.8326 C   0  0  0  0  0  0
  -14.7884    3.9000   45.2297 N   0  0  0  0  0  0
  -15.8261    8.0143   46.8018 C   0  0  0  0  0  0
  -13.7585    8.0274   45.4048 C   0  0  0  0  0  0
  -13.6526   11.1204   39.8637 C   0  0  0  0  0  0
  -13.0376    9.7820   40.2805 C   0  0  0  0  0  0
  -15.7445    9.4650   47.1686 C   0  0  0  0  0  0
  -16.9738    7.2853   47.4113 C   0  0  0  0  0  0
  -13.0525    7.5639   44.3551 C   0  0  0  0  0  0
  -12.7668   11.9000   39.1882 O   0  0  0  0  0  0
  -14.7644   11.5000   40.2198 O   0  0  0  0  0  0
  -13.0214    9.5351   41.8144 C   0  0  1  0  0  0
  -12.0114    8.4384   42.2229 C   0  0  0  0  0  0
  -15.4207   10.4462   46.2189 C   0  0  0  0  0  0
  -15.9718    9.8698   48.4909 C   0  0  0  0  0  0
  -16.7626    6.3162   48.3992 C   0  0  0  0  0  0
  -18.2754    7.5553   46.9808 C   0  0  0  0  0  0
  -15.5532   12.1651   47.8839 C   0  0  0  0  0  0
  -19.1355    5.9001   48.5009 C   0  0  0  0  0  0
  -11.8571    8.2512   43.7472 C   0  0  2  0  0  0
  -17.8451    5.6312   48.9490 C   0  0  0  0  0  0
  -15.3305   11.7868   46.5689 C   0  0  0  0  0  0
  -19.3541    6.8570   47.5153 C   0  0  0  0  0  0
  -15.8648   11.2108   48.8486 C   0  0  0  0  0  0
  -20.1838    5.2205   49.0189 F   0  0  0  0  0  0
  -15.4570   13.4689   48.2190 F   0  0  0  0  0  0
  -13.0216    5.0088   46.6175 C   0  0  0  0  0  0
  -12.6930   10.7205   42.5223 O   0  0  0  0  0  0
  -10.7027    7.5000   44.0487 O   0  0  0  0  0  0
  -13.3985    8.9372   45.8608 H   0  0  0  0  0  0
  -12.0194    9.7313   39.8931 H   0  0  0  0  0  0
  -13.5804    8.9831   39.7761 H   0  0  0  0  0  0
  -13.3403    6.6450   43.8635 H   0  0  0  0  0  0
  -14.0192    9.2314   42.1369 H   0  0  0  0  0  0
  -11.0357    8.6996   41.8190 H   0  0  0  0  0  0
  -12.2788    7.4925   41.7504 H   0  0  0  0  0  0
  -15.2193   10.1825   45.1934 H   0  0  0  0  0  0
  -16.2118    9.1433   49.2543 H   0  0  0  0  0  0
  -15.7615    6.0948   48.7405 H   0  0  0  0  0  0
  -18.4485    8.2995   46.2190 H   0  0  0  0  0  0
  -11.7020    9.2123   44.2396 H   0  0  0  0  0  0
  -17.6878    4.8864   49.7143 H   0  0  0  0  0  0
  -15.0796   12.5306   45.8277 H   0  0  0  0  0  0
  -20.3563    7.0527   47.1636 H   0  0  0  0  0  0
  -16.0179   11.5053   49.8739 H   0  0  0  0  0  0
  -12.5160    4.0443   46.6181 H   0  0  0  0  0  0
  -12.3058    5.7188   46.2078 H   0  0  0  0  0  0
  -13.1918    5.2799   47.6588 H   0  0  0  0  0  0
  -13.4120   11.3462   42.3974 H   0  0  0  0  0  0
  -10.8247    6.5639   43.8190 H   0  0  0  0  0  0
  -12.9972   12.8365   39.2888 H   0  0  0  0  0  0
  1  2  1  0  0  0
  1  3  1  0  0  0
  1  5  1  0  0  0
  2  7  2  0  0  0
  2  8  1  0  0  0
  3  4  2  0  0  0
  4  6  1  0  0  0
  5  6  2  0  0  0
  5 31  1  0  0  0
  7 11  1  0  0  0
  7 12  1  0  0  0
  8 13  2  0  0  0
  8 34  1  0  0  0
  9 10  1  0  0  0
  9 14  1  0  0  0
  9 15  2  0  0  0
 10 16  1  0  0  0
 10 35  1  0  0  0
 10 36  1  0  0  0
 11 18  2  0  0  0
 11 19  1  0  0  0
 12 20  1  0  0  0
 12 21  2  0  0  0
 13 24  1  0  0  0
 13 37  1  0  0  0
 14 55  1  0  0  0
 16 17  1  0  0  0
 16 32  1  0  0  0
 16 38  1  0  0  0
 17 24  1  0  0  0
 17 39  1  0  0  0
 17 40  1  0  0  0
 18 26  1  0  0  0
 18 41  1  0  0  0
 19 28  2  0  0  0
 19 42  1  0  0  0
 20 25  2  0  0  0
 20 43  1  0  0  0
 21 27  1  0  0  0
 21 44  1  0  0  0
 22 28  1  0  0  0
 22 30  1  0  0  0
 22 26  2  0  0  0
 23 27  2  0  0  0
 23 29  1  0  0  0
 23 25  1  0  0  0
 24 33  1  0  0  0
 24 45  1  0  0  0
 25 46  1  0  0  0
 26 47  1  0  0  0
 27 48  1  0  0  0
 28 49  1  0  0  0
 31 50  1  0  0  0
 31 51  1  0  0  0
 31 52  1  0  0  0
 32 53  1  0  0  0
 33 54  1  0  0  0
M  END
> <s_m_entry_id>
60118

> <s_m_entry_name>
dock_pv.5

> <s_m_Source_Path>
/home/csk/Desktop/cluster/DUD-E-result/hmdh

> <s_m_Source_File>
dock_pv.maegz

> <i_m_Source_File_Index>
5

> <chembl_id>
CHEMBL276717

> <chembl_pref_name>
None

> <i_lp_mmshare_version>
53161

> <i_f3d_flags>
0

> <r_lp_tautomer_probability>
1

> <s_lp_Force_Field>
OPLS_2005

> <r_lp_Energy>
34.211674

> <b_lp_Chiralities_Consistent>
1

> <s_lp_Variant>
CHEMBL402_lig15-1

> <s_i_glide_gridfile>
glide-grid_3ccw

> <i_i_glide_lignum>
16

> <i_i_glide_rotatable_bonds>
12

> <r_i_docking_score>
-7.21654687241434

> <r_i_glide_ligand_efficiency>
-0.21868323855801

> <r_i_glide_ligand_efficiency_sa>
-0.701433994251962

> <r_i_glide_ligand_efficiency_ln>
-1.60492265914499

> <r_i_glide_gscore>
-7.21654687241434

> <r_i_glide_lipo>
-2.34190332427041

> <r_i_glide_hbond>
-0.304

> <r_i_glide_metal>
0

> <r_i_glide_rewards>
-1.24739511248996

> <r_i_glide_evdw>
-42.2203598022461

> <r_i_glide_ecoul>
-13.8693141937256

> <r_i_glide_erotb>
0.868166683517172

> <r_i_glide_esite>
0

> <r_i_glide_emodel>
-75.6193954240698

> <r_i_glide_energy>
-56.0896739959717

> <r_i_glide_einternal>
13.4989776611328

> <i_i_glide_confnum>
261

> <i_i_glide_posenum>
301

> <r_i_glide_eff_state_penalty>
0

> <s_user_duplicate_titles>
CHEMBL402_lig15

> <s_m_subgroup_title>
dock_pv

> <s_m_subgroupid>
dock_pv

> <b_m_subgroup_collapsed>
1

$$$$
CHEMBL402_lig110
                    3D
 Schrodinger Suite 2021-1.
 53 55  0  0  1  0            999 V2000
  -14.9130    7.2532   45.8126 N   0  0  0  0  0  0
  -15.5172    6.0199   45.6329 C   0  0  0  0  0  0
  -16.5342    5.8517   46.4444 N   0  0  0  0  0  0
  -16.6894    6.9855   47.1063 C   0  0  0  0  0  0
  -15.6971    7.9061   46.7475 C   0  0  0  0  0  0
  -15.1254    4.9501   44.6185 C   0  0  0  0  0  0
  -13.8512    7.8410   45.0932 C   0  0  0  0  0  0
  -12.7707    7.2109   44.5971 C   0  0  0  0  0  0
  -17.8309    7.1510   48.0647 C   0  0  0  0  0  0
  -13.1947   10.3386   40.0978 C   0  0  0  0  0  0
  -15.5054    9.3312   47.1600 C   0  0  0  0  0  0
  -12.6498    9.6950   41.3768 C   0  0  0  0  0  0
  -12.4215   10.0214   39.0201 O   0  0  0  0  0  0
  -14.1620   11.1008   40.0681 O   0  0  0  0  0  0
  -12.6796    8.1425   41.3942 C   0  0  1  0  0  0
  -14.1201    4.2030   45.0680 F   0  0  0  0  0  0
  -16.1451    4.1317   44.3666 F   0  0  0  0  0  0
  -14.7737    5.4700   43.4433 F   0  0  0  0  0  0
  -11.6196    7.5002   42.3120 C   0  0  0  0  0  0
  -19.0525    6.5118   47.8187 C   0  0  0  0  0  0
  -17.6941    7.9419   49.2111 C   0  0  0  0  0  0
  -14.2882    9.7900   47.6707 C   0  0  0  0  0  0
  -16.5787   10.2137   47.0186 C   0  0  0  0  0  0
  -11.6698    7.8958   43.8078 C   0  0  2  0  0  0
  -15.2239   12.0029   47.8752 C   0  0  0  0  0  0
  -19.9721    7.4581   49.8295 C   0  0  0  0  0  0
  -14.1459   11.1302   48.0265 C   0  0  0  0  0  0
  -20.1204    6.6626   48.6970 C   0  0  0  0  0  0
  -16.4384   11.5500   47.3747 C   0  0  0  0  0  0
  -18.7626    8.0960   50.0922 C   0  0  0  0  0  0
  -21.0125    7.6075   50.6814 F   0  0  0  0  0  0
  -15.0914   13.3012   48.2188 F   0  0  0  0  0  0
  -13.9601    7.7106   41.7812 O   0  0  0  0  0  0
  -10.4550    7.4998   44.3976 O   0  0  0  0  0  0
  -13.9806    8.9061   44.9714 H   0  0  0  0  0  0
  -12.6481    6.1462   44.7390 H   0  0  0  0  0  0
  -11.6213   10.0390   41.4764 H   0  0  0  0  0  0
  -13.1801   10.0999   42.2413 H   0  0  0  0  0  0
  -11.6459    9.4988   39.2632 H   0  0  0  0  0  0
  -12.4988    7.7507   40.3902 H   0  0  0  0  0  0
  -11.6707    6.4128   42.2206 H   0  0  0  0  0  0
  -10.6466    7.7703   41.9058 H   0  0  0  0  0  0
  -19.1810    5.9009   46.9360 H   0  0  0  0  0  0
  -16.7579    8.4354   49.4273 H   0  0  0  0  0  0
  -13.4541    9.1097   47.7865 H   0  0  0  0  0  0
  -17.5173    9.8596   46.6203 H   0  0  0  0  0  0
  -11.7425    8.9780   43.9190 H   0  0  0  0  0  0
  -13.2098   11.4944   48.4166 H   0  0  0  0  0  0
  -21.0587    6.1693   48.4990 H   0  0  0  0  0  0
  -17.2679   12.2356   47.2633 H   0  0  0  0  0  0
  -18.6552    8.7086   50.9746 H   0  0  0  0  0  0
  -13.9482    6.7664   41.9688 H   0  0  0  0  0  0
  -10.3722    6.5437   44.2601 H   0  0  0  0  0  0
  1  2  1  0  0  0
  1  5  1  0  0  0
  1  7  1  0  0  0
  2  3  2  0  0  0
  2  6  1  0  0  0
  3  4  1  0  0  0
  4  5  2  0  0  0
  4  9  1  0  0  0
  5 11  1  0  0  0
  6 16  1  0  0  0
  6 17  1  0  0  0
  6 18  1  0  0  0
  7  8  2  0  0  0
  7 35  1  0  0  0
  8 24  1  0  0  0
  8 36  1  0  0  0
  9 20  1  0  0  0
  9 21  2  0  0  0
 10 12  1  0  0  0
 10 13  1  0  0  0
 10 14  2  0  0  0
 11 22  2  0  0  0
 11 23  1  0  0  0
 12 15  1  0  0  0
 12 37  1  0  0  0
 12 38  1  0  0  0
 13 39  1  0  0  0
 15 19  1  0  0  0
 15 33  1  0  0  0
 15 40  1  0  0  0
 19 24  1  0  0  0
 19 41  1  0  0  0
 19 42  1  0  0  0
 20 28  2  0  0  0
 20 43  1  0  0  0
 21 30  1  0  0  0
 21 44  1  0  0  0
 22 27  1  0  0  0
 22 45  1  0  0  0
 23 29  2  0  0  0
 23 46  1  0  0  0
 24 34  1  0  0  0
 24 47  1  0  0  0
 25 29  1  0  0  0
 25 32  1  0  0  0
 25 27  2  0  0  0
 26 30  2  0  0  0
 26 31  1  0  0  0
 26 28  1  0  0  0
 27 48  1  0  0  0
 28 49  1  0  0  0
 29 50  1  0  0  0
 30 51  1  0  0  0
 33 52  1  0  0  0
 34 53  1  0  0  0
M  END
> <s_m_entry_id>
60119

> <s_m_entry_name>
dock_pv.6

> <s_m_Source_Path>
/home/csk/Desktop/cluster/DUD-E-result/hmdh

> <s_m_Source_File>
dock_pv.maegz

> <i_m_Source_File_Index>
6

> <chembl_id>
CHEMBL1161639

> <chembl_pref_name>
None

> <i_lp_mmshare_version>
53161

> <i_f3d_flags>
0

> <r_lp_tautomer_probability>
1

> <s_lp_Force_Field>
OPLS_2005

> <r_lp_Energy>
29.502205

> <b_lp_Chiralities_Consistent>
1

> <s_lp_Variant>
CHEMBL402_lig110-1

> <s_i_glide_gridfile>
glide-grid_3ccw

> <i_i_glide_lignum>
154

> <i_i_glide_rotatable_bonds>
12

> <r_i_docking_score>
-7.18436696682502

> <r_i_glide_ligand_efficiency>
-0.211304910788971

> <r_i_glide_ligand_efficiency_sa>
-0.684545881855185

> <r_i_glide_ligand_efficiency_ln>
-1.58722817763931

> <r_i_glide_gscore>
-7.18436696682502

> <r_i_glide_lipo>
-2.12827246471623

> <r_i_glide_hbond>
-0.154474889393037

> <r_i_glide_metal>
0

> <r_i_glide_rewards>
-1.91325402259313

> <r_i_glide_evdw>
-43.6619415283203

> <r_i_glide_ecoul>
-8.62408065795898

> <r_i_glide_erotb>
0.488343584987244

> <r_i_glide_esite>
0

> <r_i_glide_emodel>
-75.4802711859901

> <r_i_glide_energy>
-52.2860221862793

> <r_i_glide_einternal>
7.08639430999756

> <i_i_glide_confnum>
151

> <i_i_glide_posenum>
262

> <r_i_glide_eff_state_penalty>
0

> <s_user_duplicate_titles>
CHEMBL402_lig110,643178

> <s_m_subgroup_title>
dock_pv

> <s_m_subgroupid>
dock_pv

> <b_m_subgroup_collapsed>
1

$$$$
CHEMBL402_lig26
                    3D
 Schrodinger Suite 2021-1.
 62 64  0  0  1  0            999 V2000
  -16.4210    7.1760   47.1512 N   0  0  0  0  0  0
  -14.4605    7.3686   46.0472 C   0  0  0  0  0  0
  -15.4609    6.4603   46.4511 C   0  0  0  0  0  0
  -14.8131    8.6367   46.5608 C   0  0  0  0  0  0
  -16.0303    8.4866   47.1901 C   0  0  0  0  0  0
  -13.2485    7.0846   45.1756 C   0  0  0  0  0  0
  -13.6617   11.1415   40.0145 C   0  0  0  0  0  0
  -14.0656    9.9228   46.4439 C   0  0  0  0  0  0
  -13.0511    9.8455   40.5476 C   0  0  0  0  0  0
  -17.6134    6.7033   47.7265 C   0  0  0  0  0  0
  -12.7338   11.9000   39.3743 O   0  0  0  0  0  0
  -15.6500    4.9586   46.1811 C   0  0  0  0  0  0
  -14.8186   11.5000   40.2210 O   0  0  0  0  0  0
  -13.0892    9.7051   42.0968 C   0  0  1  0  0  0
  -12.0513    8.6796   42.6222 C   0  0  0  0  0  0
  -14.7293   11.0673   45.9900 C   0  0  0  0  0  0
  -12.7137    9.9967   46.8018 C   0  0  0  0  0  0
  -13.6354    6.9089   43.6899 C   0  0  0  0  0  0
  -12.6886   12.3320   46.2190 C   0  0  0  0  0  0
  -12.0237   11.2004   46.6835 C   0  0  0  0  0  0
  -14.0371   12.2698   45.8757 C   0  0  0  0  0  0
  -12.0194   13.4986   46.0868 F   0  0  0  0  0  0
  -12.4915    7.2085   42.7014 C   0  0  1  0  0  0
  -12.8193   10.9305   42.7559 O   0  0  0  0  0  0
  -12.8580    6.7592   41.4190 O   0  0  0  0  0  0
  -18.8389    7.1000   47.1885 C   0  0  0  0  0  0
  -17.5644    5.8599   48.8401 C   0  0  0  0  0  0
  -14.3269    4.1711   46.1162 C   0  0  0  0  0  0
  -16.5108    4.7403   44.9219 C   0  0  0  0  0  0
  -18.7484    5.4024   49.4119 C   0  0  0  0  0  0
  -20.0192    6.6367   47.7603 C   0  0  0  0  0  0
  -19.9710    5.7921   48.8680 C   0  0  0  0  0  0
  -16.6487    9.2106   47.6997 H   0  0  0  0  0  0
  -12.6856    6.2201   45.5236 H   0  0  0  0  0  0
  -12.5331    7.8939   45.2667 H   0  0  0  0  0  0
  -13.5708    9.0126   40.0753 H   0  0  0  0  0  0
  -12.0194    9.7778   40.1950 H   0  0  0  0  0  0
  -16.1953    4.5020   47.0071 H   0  0  0  0  0  0
  -14.0962    9.4287   42.4033 H   0  0  0  0  0  0
  -11.1623    8.7054   41.9933 H   0  0  0  0  0  0
  -11.6888    8.9726   43.6080 H   0  0  0  0  0  0
  -15.7767   11.0249   45.7174 H   0  0  0  0  0  0
  -12.1992    9.1243   47.1779 H   0  0  0  0  0  0
  -14.5058    7.5173   43.4436 H   0  0  0  0  0  0
  -13.9588    5.8787   43.5430 H   0  0  0  0  0  0
  -10.9797   11.2650   46.9547 H   0  0  0  0  0  0
  -14.5437   13.1533   45.5237 H   0  0  0  0  0  0
  -11.6167    6.6401   42.9978 H   0  0  0  0  0  0
  -13.1021   10.8473   43.6707 H   0  0  0  0  0  0
  -13.7274    7.1101   41.2133 H   0  0  0  0  0  0
  -18.8793    7.7496   46.3265 H   0  0  0  0  0  0
  -16.6180    5.5570   49.2645 H   0  0  0  0  0  0
  -13.6694    4.4179   46.9503 H   0  0  0  0  0  0
  -14.5028    3.1001   46.1592 H   0  0  0  0  0  0
  -13.7789    4.3378   45.1911 H   0  0  0  0  0  0
  -17.4703    5.2510   45.0102 H   0  0  0  0  0  0
  -16.0257    5.1215   44.0241 H   0  0  0  0  0  0
  -16.7198    3.6843   44.7560 H   0  0  0  0  0  0
  -18.7185    4.7450   50.2699 H   0  0  0  0  0  0
  -20.9675    6.9204   47.3341 H   0  0  0  0  0  0
  -20.8907    5.4308   49.3057 H   0  0  0  0  0  0
  -12.9790   12.8375   39.4205 H   0  0  0  0  0  0
  1  3  1  0  0  0
  1  5  1  0  0  0
  1 10  1  0  0  0
  2  3  2  0  0  0
  2  6  1  0  0  0
  2  4  1  0  0  0
  3 12  1  0  0  0
  4  5  2  0  0  0
  4  8  1  0  0  0
  5 33  1  0  0  0
  6 18  1  0  0  0
  6 34  1  0  0  0
  6 35  1  0  0  0
  7  9  1  0  0  0
  7 11  1  0  0  0
  7 13  2  0  0  0
  8 16  2  0  0  0
  8 17  1  0  0  0
  9 14  1  0  0  0
  9 36  1  0  0  0
  9 37  1  0  0  0
 10 26  1  0  0  0
 10 27  2  0  0  0
 11 62  1  0  0  0
 12 28  1  0  0  0
 12 29  1  0  0  0
 12 38  1  0  0  0
 14 15  1  0  0  0
 14 24  1  0  0  0
 14 39  1  0  0  0
 15 23  1  0  0  0
 15 40  1  0  0  0
 15 41  1  0  0  0
 16 21  1  0  0  0
 16 42  1  0  0  0
 17 20  2  0  0  0
 17 43  1  0  0  0
 18 23  1  0  0  0
 18 44  1  0  0  0
 18 45  1  0  0  0
 19 20  1  0  0  0
 19 22  1  0  0  0
 19 21  2  0  0  0
 20 46  1  0  0  0
 21 47  1  0  0  0
 23 25  1  0  0  0
 23 48  1  0  0  0
 24 49  1  0  0  0
 25 50  1  0  0  0
 26 31  2  0  0  0
 26 51  1  0  0  0
 27 30  1  0  0  0
 27 52  1  0  0  0
 28 53  1  0  0  0
 28 54  1  0  0  0
 28 55  1  0  0  0
 29 56  1  0  0  0
 29 57  1  0  0  0
 29 58  1  0  0  0
 30 32  2  0  0  0
 30 59  1  0  0  0
 31 32  1  0  0  0
 31 60  1  0  0  0
 32 61  1  0  0  0
M  END
> <s_m_entry_id>
60120

> <s_m_entry_name>
dock_pv.7

> <s_m_Source_Path>
/home/csk/Desktop/cluster/DUD-E-result/hmdh

> <s_m_Source_File>
dock_pv.maegz

> <i_m_Source_File_Index>
7

> <chembl_id>
CHEMBL2110171

> <chembl_pref_name>
None

> <i_lp_mmshare_version>
53161

> <i_f3d_flags>
0

> <r_lp_tautomer_probability>
1

> <s_lp_Force_Field>
OPLS_2005

> <r_lp_Energy>
23.750785

> <b_lp_Chiralities_Consistent>
1

> <s_lp_Variant>
CHEMBL402_lig26-4

> <s_i_glide_gridfile>
glide-grid_3ccw

> <i_i_glide_lignum>
30

> <i_i_glide_rotatable_bonds>
13

> <r_i_docking_score>
-7.08247895484121

> <r_i_glide_ligand_efficiency>
-0.221327467338788

> <r_i_glide_ligand_efficiency_sa>
-0.702670908154341

> <r_i_glide_ligand_efficiency_ln>
-1.58596009907369

> <r_i_glide_gscore>
-7.08247895484121

> <r_i_glide_lipo>
-2.89084904045364

> <r_i_glide_hbond>
-0.318065225333567

> <r_i_glide_metal>
0

> <r_i_glide_rewards>
-0.992824142127379

> <r_i_glide_evdw>
-40.1312370300293

> <r_i_glide_ecoul>
-12.0270166397095

> <r_i_glide_erotb>
0.929873800531263

> <r_i_glide_esite>
0

> <r_i_glide_emodel>
-70.3180370860481

> <r_i_glide_energy>
-52.1582536697388

> <r_i_glide_einternal>
10.7242250442505

> <i_i_glide_confnum>
27

> <i_i_glide_posenum>
63

> <r_i_glide_eff_state_penalty>
0

> <s_user_duplicate_titles>
CHEMBL402_lig26,165410

> <s_m_subgroup_title>
dock_pv

> <s_m_subgroupid>
dock_pv

> <b_m_subgroup_collapsed>
1

$$$$
CHEMBL402_lig199
                    3D
 Schrodinger Suite 2021-1.
 56 58  0  0  1  0            999 V2000
  -13.5820    7.1280   41.5020 F   0  0  0  0  0  0
  -12.6175    8.0057   41.7963 C   0  0  0  0  0  0
  -11.6190    7.6115   41.0194 F   0  0  0  0  0  0
  -17.3873    7.8416   48.7196 C   0  0  0  0  0  0
  -18.1735    6.7945   49.1840 C   0  0  0  0  0  0
  -17.9564    5.5000   48.7359 C   0  0  0  0  0  0
  -16.9512    5.1963   47.8164 C   0  0  0  0  0  0
  -16.3688    7.5741   47.7881 C   0  0  0  0  0  0
  -16.1538    6.2432   47.3415 C   0  0  0  0  0  0
  -15.0960    6.2686   46.4303 N   0  0  0  0  0  0
  -14.6485    7.5850   46.3117 C   0  0  0  0  0  0
  -15.4272    8.4001   47.1125 C   0  0  0  0  0  0
  -14.5679    5.0964   45.6897 C   0  0  0  0  0  0
  -15.5834    4.6204   44.6318 C   0  0  0  0  0  0
  -14.0846    3.9948   46.6190 C   0  0  0  0  0  0
  -13.5576    7.9797   45.4358 C   0  0  0  0  0  0
  -13.3296    7.5265   44.1945 C   0  0  0  0  0  0
  -12.1915    7.9236   43.2947 C   0  0  1  0  0  0
  -11.0715    7.1000   43.5498 O   0  0  0  0  0  0
  -13.1290    9.4361   41.4419 C   0  0  2  0  0  0
  -13.1912    9.7181   39.9236 C   0  0  0  0  0  0
  -12.4189   10.4958   42.0835 O   0  0  0  0  0  0
  -13.7329   11.1128   39.6458 C   0  0  0  0  0  0
  -12.8192   11.9000   39.0191 O   0  0  0  0  0  0
  -14.8190   11.5000   40.0620 O   0  0  0  0  0  0
  -15.3913    9.8706   47.2316 C   0  0  0  0  0  0
  -16.5766   10.5508   46.9561 C   0  0  0  0  0  0
  -16.6475   11.9200   47.1404 C   0  0  0  0  0  0
  -15.5258   12.5944   47.5988 C   0  0  0  0  0  0
  -14.3257   11.9332   47.8477 C   0  0  0  0  0  0
  -14.2556   10.5565   47.6620 C   0  0  0  0  0  0
  -15.6195   13.9109   47.8190 F   0  0  0  0  0  0
  -17.5611    8.8472   49.0711 H   0  0  0  0  0  0
  -18.9603    6.9875   49.8991 H   0  0  0  0  0  0
  -18.5826    4.7037   49.1115 H   0  0  0  0  0  0
  -16.8189    4.1841   47.4790 H   0  0  0  0  0  0
  -13.6406    5.3516   45.1930 H   0  0  0  0  0  0
  -15.1314    3.8870   43.9652 H   0  0  0  0  0  0
  -16.4619    4.1614   45.0862 H   0  0  0  0  0  0
  -15.9315    5.4456   44.0094 H   0  0  0  0  0  0
  -13.5127    3.2360   46.0854 H   0  0  0  0  0  0
  -13.4600    4.3961   47.4186 H   0  0  0  0  0  0
  -14.9241    3.5000   47.0673 H   0  0  0  0  0  0
  -12.9014    8.7282   45.8551 H   0  0  0  0  0  0
  -14.0172    6.8160   43.7640 H   0  0  0  0  0  0
  -11.8144    8.8735   43.6657 H   0  0  0  0  0  0
  -11.2277    6.1388   43.4192 H   0  0  0  0  0  0
  -14.1348    9.5073   41.8528 H   0  0  0  0  0  0
  -13.8425    9.0046   39.4252 H   0  0  0  0  0  0
  -12.2045    9.5956   39.4734 H   0  0  0  0  0  0
  -12.8094   10.6253   42.9524 H   0  0  0  0  0  0
  -17.4490   10.0120   46.6190 H   0  0  0  0  0  0
  -17.5670   12.4544   46.9497 H   0  0  0  0  0  0
  -13.4670   12.4839   48.2032 H   0  0  0  0  0  0
  -13.3426   10.0245   47.8841 H   0  0  0  0  0  0
  -13.0082   12.8338   39.1946 H   0  0  0  0  0  0
  1  2  1  0  0  0
  2  3  1  0  0  0
  2 18  1  0  0  0
  2 20  1  0  0  0
  4  5  2  0  0  0
  4  8  1  0  0  0
  4 33  1  0  0  0
  5  6  1  0  0  0
  5 34  1  0  0  0
  6  7  2  0  0  0
  6 35  1  0  0  0
  7  9  1  0  0  0
  7 36  1  0  0  0
  8  9  2  0  0  0
  8 12  1  0  0  0
  9 10  1  0  0  0
 10 11  1  0  0  0
 10 13  1  0  0  0
 11 12  2  0  0  0
 11 16  1  0  0  0
 12 26  1  0  0  0
 13 14  1  0  0  0
 13 15  1  0  0  0
 13 37  1  0  0  0
 14 38  1  0  0  0
 14 39  1  0  0  0
 14 40  1  0  0  0
 15 41  1  0  0  0
 15 42  1  0  0  0
 15 43  1  0  0  0
 16 17  2  0  0  0
 16 44  1  0  0  0
 17 18  1  0  0  0
 17 45  1  0  0  0
 18 19  1  0  0  0
 18 46  1  0  0  0
 19 47  1  0  0  0
 20 21  1  0  0  0
 20 22  1  0  0  0
 20 48  1  0  0  0
 21 23  1  0  0  0
 21 49  1  0  0  0
 21 50  1  0  0  0
 22 51  1  0  0  0
 23 24  1  0  0  0
 23 25  2  0  0  0
 24 56  1  0  0  0
 26 27  2  0  0  0
 26 31  1  0  0  0
 27 28  1  0  0  0
 27 52  1  0  0  0
 28 29  2  0  0  0
 28 53  1  0  0  0
 29 30  1  0  0  0
 29 32  1  0  0  0
 30 31  2  0  0  0
 30 54  1  0  0  0
 31 55  1  0  0  0
M  END
> <s_m_entry_id>
60121

> <s_m_entry_name>
dock_pv.8

> <s_m_Source_Path>
/home/csk/Desktop/cluster/DUD-E-result/hmdh

> <s_m_Source_File>
dock_pv.maegz

> <i_m_Source_File_Index>
8

> <chembl_id>
CHEMBL3318042

> <chembl_pref_name>
None

> <i_lp_mmshare_version>
53161

> <i_f3d_flags>
0

> <r_lp_tautomer_probability>
1

> <s_lp_Force_Field>
OPLS_2005

> <r_lp_Energy>
31.525939

> <b_lp_Chiralities_Consistent>
1

> <s_lp_Variant>
CHEMBL402_lig199-1

> <s_i_glide_gridfile>
glide-grid_3ccw

> <i_i_glide_lignum>
255

> <i_i_glide_rotatable_bonds>
11

> <r_i_docking_score>
-7.05562575613955

> <r_i_glide_ligand_efficiency>
-0.220488304879361

> <r_i_glide_ligand_efficiency_sa>
-0.700006733415686

> <r_i_glide_ligand_efficiency_ln>
-1.57994693589384

> <r_i_glide_gscore>
-7.05562575613955

> <r_i_glide_lipo>
-2.80676871694166

> <r_i_glide_hbond>
-0.295060261317395

> <r_i_glide_metal>
0

> <r_i_glide_rewards>
-0.86721256371167

> <r_i_glide_evdw>
-27.4845123291016

> <r_i_glide_ecoul>
-15.8870124816895

> <r_i_glide_erotb>
0.70013320397731

> <r_i_glide_esite>
-0.0294399294376422

> <r_i_glide_emodel>
-56.1003444066505

> <r_i_glide_energy>
-43.371524810791

> <r_i_glide_einternal>
13.9490814208984

> <i_i_glide_confnum>
69

> <i_i_glide_posenum>
223

> <r_i_glide_eff_state_penalty>
0

> <s_user_duplicate_titles>
CHEMBL402_lig199

> <s_m_subgroup_title>
dock_pv

> <s_m_subgroupid>
dock_pv

> <b_m_subgroup_collapsed>
1

$$$$
CHEMBL402_lig14
                    3D
 Schrodinger Suite 2021-1.
 52 54  0  0  1  0            999 V2000
  -15.7155   10.8063   47.0896 N   0  0  0  0  0  0
  -15.2907    9.6196   46.4633 C   0  0  0  0  0  0
  -14.9287   11.4703   47.9432 N   0  0  0  0  0  0
  -15.6192   12.6361   48.2190 N   0  0  0  0  0  0
  -16.8187   12.6666   47.5140 N   0  0  0  0  0  0
  -15.7048    8.4052   46.9369 C   0  0  0  0  0  0
  -14.4168    9.7686   45.2959 C   0  0  0  0  0  0
  -16.8340   11.5530   46.8284 C   0  0  0  0  0  0
  -12.9203    7.8857   41.0586 C   0  0  0  0  0  0
  -13.2138    9.1012   40.1623 C   0  0  0  0  0  0
  -15.2720    7.0994   46.3556 C   0  0  0  0  0  0
  -16.5828    8.2779   48.1301 C   0  0  0  0  0  0
  -14.1207   10.9328   44.6720 C   0  0  0  0  0  0
  -11.6189    7.4999   41.0191 O   0  0  0  0  0  0
  -13.7737    7.3392   41.7471 O   0  0  0  0  0  0
  -13.0270   10.4775   40.8423 C   0  0  1  0  0  0
  -13.8688   10.6859   42.1430 C   0  0  0  0  0  0
  -16.1997    6.1952   45.8198 C   0  0  0  0  0  0
  -13.9125    6.7539   46.3514 C   0  0  0  0  0  0
  -16.0511    8.5327   49.3996 C   0  0  0  0  0  0
  -17.9248    7.8986   48.0112 C   0  0  0  0  0  0
  -14.4244    4.6675   45.2643 C   0  0  0  0  0  0
  -18.1791    8.0208   50.4031 C   0  0  0  0  0  0
  -13.1881   11.0762   43.4800 C   0  0  2  0  0  0
  -16.8496    8.4097   50.5336 C   0  0  0  0  0  0
  -15.7795    4.9859   45.2756 C   0  0  0  0  0  0
  -18.7187    7.7639   49.1464 C   0  0  0  0  0  0
  -13.4886    5.5447   45.8041 C   0  0  0  0  0  0
  -14.0189    3.5000   44.7195 F   0  0  0  0  0  0
  -18.9548    7.8959   51.5043 F   0  0  0  0  0  0
  -11.6494   10.6999   41.0167 O   0  0  0  0  0  0
  -12.0405   10.2932   43.7526 O   0  0  0  0  0  0
  -13.9616    8.8820   44.8831 H   0  0  0  0  0  0
  -17.5821   11.2186   46.1240 H   0  0  0  0  0  0
  -14.2462    9.0364   39.8198 H   0  0  0  0  0  0
  -12.6222    9.0298   39.2486 H   0  0  0  0  0  0
  -14.5649   11.8580   45.0112 H   0  0  0  0  0  0
  -13.3447   11.2344   40.1240 H   0  0  0  0  0  0
  -14.4186    9.7692   42.3335 H   0  0  0  0  0  0
  -14.6477   11.4219   41.9394 H   0  0  0  0  0  0
  -17.2531    6.4239   45.7914 H   0  0  0  0  0  0
  -13.1767    7.4280   46.7654 H   0  0  0  0  0  0
  -15.0191    8.8301   49.5083 H   0  0  0  0  0  0
  -18.3712    7.7274   47.0440 H   0  0  0  0  0  0
  -12.8552   12.1132   43.4299 H   0  0  0  0  0  0
  -16.4410    8.6106   51.5127 H   0  0  0  0  0  0
  -16.4998    4.3027   44.8538 H   0  0  0  0  0  0
  -19.7536    7.4711   49.0564 H   0  0  0  0  0  0
  -12.4399    5.2850   45.7808 H   0  0  0  0  0  0
  -11.1389   10.0842   40.4599 H   0  0  0  0  0  0
  -12.2498    9.3738   43.5701 H   0  0  0  0  0  0
  -11.0377    8.0689   40.4840 H   0  0  0  0  0  0
  1  2  1  0  0  0
  1  3  1  0  0  0
  1  8  1  0  0  0
  2  6  2  0  0  0
  2  7  1  0  0  0
  3  4  2  0  0  0
  4  5  1  0  0  0
  5  8  2  0  0  0
  6 11  1  0  0  0
  6 12  1  0  0  0
  7 13  2  0  0  0
  7 33  1  0  0  0
  8 34  1  0  0  0
  9 10  1  0  0  0
  9 14  1  0  0  0
  9 15  2  0  0  0
 10 16  1  0  0  0
 10 35  1  0  0  0
 10 36  1  0  0  0
 11 18  2  0  0  0
 11 19  1  0  0  0
 12 20  1  0  0  0
 12 21  2  0  0  0
 13 24  1  0  0  0
 13 37  1  0  0  0
 14 52  1  0  0  0
 16 17  1  0  0  0
 16 31  1  0  0  0
 16 38  1  0  0  0
 17 24  1  0  0  0
 17 39  1  0  0  0
 17 40  1  0  0  0
 18 26  1  0  0  0
 18 41  1  0  0  0
 19 28  2  0  0  0
 19 42  1  0  0  0
 20 25  2  0  0  0
 20 43  1  0  0  0
 21 27  1  0  0  0
 21 44  1  0  0  0
 22 28  1  0  0  0
 22 29  1  0  0  0
 22 26  2  0  0  0
 23 27  2  0  0  0
 23 30  1  0  0  0
 23 25  1  0  0  0
 24 32  1  0  0  0
 24 45  1  0  0  0
 25 46  1  0  0  0
 26 47  1  0  0  0
 27 48  1  0  0  0
 28 49  1  0  0  0
 31 50  1  0  0  0
 32 51  1  0  0  0
M  END
> <s_m_entry_id>
60122

> <s_m_entry_name>
dock_pv.9

> <s_m_Source_Path>
/home/csk/Desktop/cluster/DUD-E-result/hmdh

> <s_m_Source_File>
dock_pv.maegz

> <i_m_Source_File_Index>
9

> <chembl_id>
CHEMBL11891

> <chembl_pref_name>
None

> <i_lp_mmshare_version>
53161

> <i_f3d_flags>
0

> <r_lp_tautomer_probability>
1

> <s_lp_Force_Field>
OPLS_2005

> <r_lp_Energy>
34.612356

> <b_lp_Chiralities_Consistent>
1

> <s_lp_Variant>
CHEMBL402_lig14-1

> <s_i_glide_gridfile>
glide-grid_3ccw

> <i_i_glide_lignum>
15

> <i_i_glide_rotatable_bonds>
12

> <r_i_docking_score>
-7.00002387230425

> <r_i_glide_ligand_efficiency>
-0.218750746009508

> <r_i_glide_ligand_efficiency_sa>
-0.694490327866335

> <r_i_glide_ligand_efficiency_ln>
-1.56749615845301

> <r_i_glide_gscore>
-7.00002387230425

> <r_i_glide_lipo>
-1.90453633018051

> <r_i_glide_hbond>
0

> <r_i_glide_metal>
0

> <r_i_glide_rewards>
-1.6385906701519

> <r_i_glide_evdw>
-32.4554138183594

> <r_i_glide_ecoul>
-16.5154914855957

> <r_i_glide_erotb>
0.643197541785486

> <r_i_glide_esite>
0

> <r_i_glide_emodel>
-64.2489658685164

> <r_i_glide_energy>
-48.9709053039551

> <r_i_glide_einternal>
14.5753450393677

> <i_i_glide_confnum>
78

> <i_i_glide_posenum>
152

> <r_i_glide_eff_state_penalty>
0

> <s_user_duplicate_titles>
CHEMBL402_lig14

> <s_m_subgroup_title>
dock_pv

> <s_m_subgroupid>
dock_pv

> <b_m_subgroup_collapsed>
1

$$$$
CHEMBL402_lig38
                    3D
 Schrodinger Suite 2021-1.
 61 62  0  0  1  0            999 V2000
  -14.6871    7.3301   45.9908 C   0  0  0  0  0  0
  -15.0350    8.5162   46.6712 C   0  0  0  0  0  0
  -15.4963    6.1852   46.0906 C   0  0  0  0  0  0
  -16.2002    8.5218   47.4515 C   0  0  0  0  0  0
  -16.6364    6.2233   46.8991 C   0  0  0  0  0  0
  -17.0048    7.3869   47.5721 C   0  0  0  0  0  0
  -13.5824    7.2926   45.1692 O   0  0  0  0  0  0
  -13.8126   11.1108   39.7485 C   0  0  0  0  0  0
  -13.4047    9.6602   39.8049 C   0  0  0  0  0  0
  -14.2288    9.7682   46.5408 C   0  0  0  0  0  0
  -12.8468   11.9000   39.2115 O   0  0  0  0  0  0
  -14.8724   11.5000   40.2185 O   0  0  0  0  0  0
  -13.1749    9.2569   41.2585 C   0  0  1  0  0  0
  -13.0169    7.7502   41.4038 C   0  0  0  0  0  0
  -15.1717    4.9320   45.2666 C   0  0  0  0  0  0
  -12.8283    9.7396   46.6073 C   0  0  0  0  0  0
  -14.8681   10.9959   46.3240 C   0  0  0  0  0  0
  -18.2747    7.4201   48.4251 C   0  0  0  0  0  0
  -13.8377    7.7688   43.8506 C   0  0  0  0  0  0
  -12.7384   12.1139   46.2192 C   0  0  0  0  0  0
  -14.1277   12.1628   46.1620 C   0  0  0  0  0  0
  -12.0847   10.9069   46.4464 C   0  0  0  0  0  0
  -12.0188   13.2447   46.0436 F   0  0  0  0  0  0
  -12.7670    7.2891   42.8478 C   0  0  1  0  0  0
  -12.0190    9.8915   41.7355 O   0  0  0  0  0  0
  -12.8190    5.9000   42.7195 O   0  0  0  0  0  0
  -16.4190    4.1506   44.8223 C   0  0  0  0  0  0
  -14.1259    4.0364   45.9537 C   0  0  0  0  0  0
  -18.0992    6.6142   49.7249 C   0  0  0  0  0  0
  -19.5247    6.9648   47.6415 C   0  0  0  0  0  0
  -16.4829    9.4228   47.9767 H   0  0  0  0  0  0
  -17.2584    5.3465   46.9954 H   0  0  0  0  0  0
  -14.2483    9.1000   39.4190 H   0  0  0  0  0  0
  -12.5464    9.4425   39.1660 H   0  0  0  0  0  0
  -14.0192    9.5862   41.8652 H   0  0  0  0  0  0
  -13.9251    7.2781   41.0206 H   0  0  0  0  0  0
  -12.2014    7.4060   40.7640 H   0  0  0  0  0  0
  -14.7385    5.2659   44.3274 H   0  0  0  0  0  0
  -12.3132    8.8050   46.7792 H   0  0  0  0  0  0
  -15.9456   11.0457   46.2577 H   0  0  0  0  0  0
  -18.4502    8.4578   48.7135 H   0  0  0  0  0  0
  -13.8532    8.8572   43.8971 H   0  0  0  0  0  0
  -14.8190    7.4595   43.4877 H   0  0  0  0  0  0
  -14.6302   13.0998   45.9830 H   0  0  0  0  0  0
  -11.0063   10.8783   46.4935 H   0  0  0  0  0  0
  -11.7706    7.5792   43.1846 H   0  0  0  0  0  0
  -11.2825    9.5456   41.2099 H   0  0  0  0  0  0
  -12.1526    5.4874   43.2988 H   0  0  0  0  0  0
  -17.2103    4.8168   44.4747 H   0  0  0  0  0  0
  -16.1731    3.5001   43.9881 H   0  0  0  0  0  0
  -16.8188    3.5391   45.6301 H   0  0  0  0  0  0
  -13.1984    4.5800   46.1354 H   0  0  0  0  0  0
  -14.4813    3.6656   46.9137 H   0  0  0  0  0  0
  -13.8769    3.1733   45.3354 H   0  0  0  0  0  0
  -17.2341    6.9620   50.2912 H   0  0  0  0  0  0
  -18.9723    6.7106   50.3714 H   0  0  0  0  0  0
  -17.9557    5.5521   49.5221 H   0  0  0  0  0  0
  -19.6234    7.5007   46.6969 H   0  0  0  0  0  0
  -19.4949    5.9005   47.4071 H   0  0  0  0  0  0
  -20.4351    7.1424   48.2140 H   0  0  0  0  0  0
  -13.0119   12.8362   39.4191 H   0  0  0  0  0  0
  1  2  2  0  0  0
  1  3  1  0  0  0
  1  7  1  0  0  0
  2  4  1  0  0  0
  2 10  1  0  0  0
  3  5  2  0  0  0
  3 15  1  0  0  0
  4  6  2  0  0  0
  4 31  1  0  0  0
  5  6  1  0  0  0
  5 32  1  0  0  0
  6 18  1  0  0  0
  7 19  1  0  0  0
  8  9  1  0  0  0
  8 11  1  0  0  0
  8 12  2  0  0  0
  9 13  1  0  0  0
  9 33  1  0  0  0
  9 34  1  0  0  0
 10 16  1  0  0  0
 10 17  2  0  0  0
 11 61  1  0  0  0
 13 14  1  0  0  0
 13 25  1  0  0  0
 13 35  1  0  0  0
 14 24  1  0  0  0
 14 36  1  0  0  0
 14 37  1  0  0  0
 15 27  1  0  0  0
 15 28  1  0  0  0
 15 38  1  0  0  0
 16 22  2  0  0  0
 16 39  1  0  0  0
 17 21  1  0  0  0
 17 40  1  0  0  0
 18 29  1  0  0  0
 18 30  1  0  0  0
 18 41  1  0  0  0
 19 24  1  0  0  0
 19 42  1  0  0  0
 19 43  1  0  0  0
 20 21  2  0  0  0
 20 23  1  0  0  0
 20 22  1  0  0  0
 21 44  1  0  0  0
 22 45  1  0  0  0
 24 26  1  0  0  0
 24 46  1  0  0  0
 25 47  1  0  0  0
 26 48  1  0  0  0
 27 49  1  0  0  0
 27 50  1  0  0  0
 27 51  1  0  0  0
 28 52  1  0  0  0
 28 53  1  0  0  0
 28 54  1  0  0  0
 29 55  1  0  0  0
 29 56  1  0  0  0
 29 57  1  0  0  0
 30 58  1  0  0  0
 30 59  1  0  0  0
 30 60  1  0  0  0
M  END
> <s_m_entry_id>
60123

> <s_m_entry_name>
dock_pv.10

> <s_m_Source_Path>
/home/csk/Desktop/cluster/DUD-E-result/hmdh

> <s_m_Source_File>
dock_pv.maegz

> <i_m_Source_File_Index>
10

> <chembl_id>
CHEMBL100165

> <chembl_pref_name>
None

> <i_lp_mmshare_version>
53161

> <i_f3d_flags>
0

> <r_lp_tautomer_probability>
1

> <s_lp_Force_Field>
OPLS_2005

> <r_lp_Energy>
26.864308

> <b_lp_Chiralities_Consistent>
1

> <s_lp_Variant>
CHEMBL402_lig38-2

> <s_i_glide_gridfile>
glide-grid_3ccw

> <i_i_glide_lignum>
55

> <i_i_glide_rotatable_bonds>
13

> <r_i_docking_score>
-6.97153602020489

> <r_i_glide_ligand_efficiency>
-0.23238453400683

> <r_i_glide_ligand_efficiency_sa>
-0.722072777128324

> <r_i_glide_ligand_efficiency_ln>
-1.58400894475949

> <r_i_glide_gscore>
-6.97153602020489

> <r_i_glide_lipo>
-2.77265732016227

> <r_i_glide_hbond>
-0.144701049216338

> <r_i_glide_metal>
0

> <r_i_glide_rewards>
-0.820532408497817

> <r_i_glide_evdw>
-33.9849166870117

> <r_i_glide_ecoul>
-16.2510929107666

> <r_i_glide_erotb>
0.903264528637111

> <r_i_glide_esite>
0

> <r_i_glide_emodel>
-71.1158833569746

> <r_i_glide_energy>
-50.2360095977783

> <r_i_glide_einternal>
7.58695793151855

> <i_i_glide_confnum>
5

> <i_i_glide_posenum>
221

> <r_i_glide_eff_state_penalty>
0

> <s_user_duplicate_titles>
CHEMBL402_lig38

> <s_m_subgroup_title>
dock_pv

> <s_m_subgroupid>
dock_pv

> <b_m_subgroup_collapsed>
1

$$$$
CHEMBL402_lig38
                    3D
 Schrodinger Suite 2021-1.
 61 62  0  0  1  0            999 V2000
  -14.7959    7.1728   45.9882 C   0  0  0  0  0  0
  -15.1558    8.3839   46.6243 C   0  0  0  0  0  0
  -15.5961    6.0232   46.1450 C   0  0  0  0  0  0
  -16.3331    8.4170   47.3845 C   0  0  0  0  0  0
  -16.7529    6.0967   46.9233 C   0  0  0  0  0  0
  -17.1364    7.2865   47.5389 C   0  0  0  0  0  0
  -13.6711    7.0914   45.1963 O   0  0  0  0  0  0
  -13.7426   11.1053   39.7933 C   0  0  0  0  0  0
  -13.3246    9.6478   39.8664 C   0  0  0  0  0  0
  -14.3373    9.6301   46.5060 C   0  0  0  0  0  0
  -12.7865   11.9000   39.2449 O   0  0  0  0  0  0
  -14.8196   11.5000   40.2193 O   0  0  0  0  0  0
  -13.1291    9.2128   41.3273 C   0  0  1  0  0  0
  -12.9180    7.6922   41.4953 C   0  0  0  0  0  0
  -15.2979    4.6979   45.4294 C   0  0  0  0  0  0
  -14.9544   10.8573   46.2258 C   0  0  0  0  0  0
  -12.9437    9.5950   46.6553 C   0  0  0  0  0  0
  -18.4259    7.3525   48.3576 C   0  0  0  0  0  0
  -13.7391    7.7766   43.9470 C   0  0  0  0  0  0
  -12.8141   11.9602   46.2193 C   0  0  0  0  0  0
  -12.1836   10.7538   46.5096 C   0  0  0  0  0  0
  -14.1973   12.0168   46.0813 C   0  0  0  0  0  0
  -12.0779   13.0832   46.0626 F   0  0  0  0  0  0
  -12.7137    7.1956   42.9498 C   0  0  2  0  0  0
  -12.0191    9.9165   41.8311 O   0  0  0  0  0  0
  -11.3990    7.4988   43.3840 O   0  0  0  0  0  0
  -13.8782    4.1488   45.6696 C   0  0  0  0  0  0
  -15.6651    4.7868   43.9394 C   0  0  0  0  0  0
  -18.3828    6.4129   49.5774 C   0  0  0  0  0  0
  -19.6672    7.0921   47.4827 C   0  0  0  0  0  0
  -16.6235    9.3363   47.8719 H   0  0  0  0  0  0
  -17.3792    5.2244   47.0332 H   0  0  0  0  0  0
  -14.1459    9.1001   39.4189 H   0  0  0  0  0  0
  -12.4375    9.4490   39.2609 H   0  0  0  0  0  0
  -14.0078    9.5054   41.9067 H   0  0  0  0  0  0
  -13.7910    7.1806   41.0864 H   0  0  0  0  0  0
  -12.0779    7.3650   40.8797 H   0  0  0  0  0  0
  -15.9610    3.9435   45.8587 H   0  0  0  0  0  0
  -16.0259   10.9124   46.0977 H   0  0  0  0  0  0
  -12.4460    8.6604   46.8717 H   0  0  0  0  0  0
  -18.5214    8.3668   48.7486 H   0  0  0  0  0  0
  -13.5614    8.8425   44.0847 H   0  0  0  0  0  0
  -14.7375    7.6876   43.5153 H   0  0  0  0  0  0
  -11.1096   10.7190   46.6158 H   0  0  0  0  0  0
  -14.6786   12.9565   45.8559 H   0  0  0  0  0  0
  -12.8004    6.1073   42.9505 H   0  0  0  0  0  0
  -11.2339    9.4997   41.4541 H   0  0  0  0  0  0
  -11.0626    6.6957   43.8140 H   0  0  0  0  0  0
  -13.6168    4.1817   46.7273 H   0  0  0  0  0  0
  -13.8042    3.1098   45.3491 H   0  0  0  0  0  0
  -13.1165    4.7013   45.1210 H   0  0  0  0  0  0
  -16.6796    5.1686   43.8185 H   0  0  0  0  0  0
  -14.9971    5.4392   43.3854 H   0  0  0  0  0  0
  -15.6189    3.8200   43.4507 H   0  0  0  0  0  0
  -17.5047    6.6080   50.1948 H   0  0  0  0  0  0
  -19.2622    6.5475   50.2082 H   0  0  0  0  0  0
  -18.3502    5.3639   49.2806 H   0  0  0  0  0  0
  -19.6845    7.7559   46.6178 H   0  0  0  0  0  0
  -19.6905    6.0687   47.1064 H   0  0  0  0  0  0
  -20.5883    7.2519   48.0436 H   0  0  0  0  0  0
  -12.9731   12.8389   39.4195 H   0  0  0  0  0  0
  1  2  2  0  0  0
  1  3  1  0  0  0
  1  7  1  0  0  0
  2  4  1  0  0  0
  2 10  1  0  0  0
  3  5  2  0  0  0
  3 15  1  0  0  0
  4  6  2  0  0  0
  4 31  1  0  0  0
  5  6  1  0  0  0
  5 32  1  0  0  0
  6 18  1  0  0  0
  7 19  1  0  0  0
  8  9  1  0  0  0
  8 11  1  0  0  0
  8 12  2  0  0  0
  9 13  1  0  0  0
  9 33  1  0  0  0
  9 34  1  0  0  0
 10 16  1  0  0  0
 10 17  2  0  0  0
 11 61  1  0  0  0
 13 14  1  0  0  0
 13 25  1  0  0  0
 13 35  1  0  0  0
 14 24  1  0  0  0
 14 36  1  0  0  0
 14 37  1  0  0  0
 15 27  1  0  0  0
 15 28  1  0  0  0
 15 38  1  0  0  0
 16 22  2  0  0  0
 16 39  1  0  0  0
 17 21  1  0  0  0
 17 40  1  0  0  0
 18 29  1  0  0  0
 18 30  1  0  0  0
 18 41  1  0  0  0
 19 24  1  0  0  0
 19 42  1  0  0  0
 19 43  1  0  0  0
 20 21  2  0  0  0
 20 23  1  0  0  0
 20 22  1  0  0  0
 21 44  1  0  0  0
 22 45  1  0  0  0
 24 26  1  0  0  0
 24 46  1  0  0  0
 25 47  1  0  0  0
 26 48  1  0  0  0
 27 49  1  0  0  0
 27 50  1  0  0  0
 27 51  1  0  0  0
 28 52  1  0  0  0
 28 53  1  0  0  0
 28 54  1  0  0  0
 29 55  1  0  0  0
 29 56  1  0  0  0
 29 57  1  0  0  0
 30 58  1  0  0  0
 30 59  1  0  0  0
 30 60  1  0  0  0
M  END
> <s_m_entry_id>
60124

> <s_m_entry_name>
dock_pv.11

> <s_m_Source_Path>
/home/csk/Desktop/cluster/DUD-E-result/hmdh

> <s_m_Source_File>
dock_pv.maegz

> <i_m_Source_File_Index>
11

> <chembl_id>
CHEMBL100165

> <chembl_pref_name>
None

> <i_lp_mmshare_version>
53161

> <i_f3d_flags>
0

> <r_lp_tautomer_probability>
1

> <s_lp_Force_Field>
OPLS_2005

> <r_lp_Energy>
24.448394

> <b_lp_Chiralities_Consistent>
1

> <s_lp_Variant>
CHEMBL402_lig38-1

> <s_i_glide_gridfile>
glide-grid_3ccw

> <i_i_glide_lignum>
54

> <i_i_glide_rotatable_bonds>
13

> <r_i_docking_score>
-6.96382176775324

> <r_i_glide_ligand_efficiency>
-0.232127392258441

> <r_i_glide_ligand_efficiency_sa>
-0.721273777929999

> <r_i_glide_ligand_efficiency_ln>
-1.58225618254896

> <r_i_glide_gscore>
-6.96382176775324

> <r_i_glide_lipo>
-2.90700015667303

> <r_i_glide_hbond>
-0.149574934010855

> <r_i_glide_metal>
0

> <r_i_glide_rewards>
-0.856233213457929

> <r_i_glide_evdw>
-37.9890594482422

> <r_i_glide_ecoul>
-13.6988334655762

> <r_i_glide_erotb>
0.903264528637111

> <r_i_glide_esite>
0

> <r_i_glide_emodel>
-72.0079032126174

> <r_i_glide_energy>
-51.6878929138184

> <r_i_glide_einternal>
6.49420261383057

> <i_i_glide_confnum>
100

> <i_i_glide_posenum>
358

> <r_i_glide_eff_state_penalty>
0

> <s_user_duplicate_titles>
CHEMBL402_lig38

> <s_m_subgroup_title>
dock_pv

> <s_m_subgroupid>
dock_pv

> <b_m_subgroup_collapsed>
1

$$$$
CHEMBL402_lig116
                    3D
 Schrodinger Suite 2021-1.
 59 61  0  0  1  0            999 V2000
  -13.6417    6.9179   45.3506 N   0  0  0  0  0  0
  -14.1448    6.7058   43.1929 N   0  0  0  0  0  0
  -13.6023    7.9038   43.3714 C   0  0  0  0  0  0
  -13.2751    8.0892   44.7179 C   0  0  0  0  0  0
  -14.1762    6.1173   44.3656 C   0  0  0  0  0  0
  -13.4142    6.6121   46.7019 C   0  0  0  0  0  0
  -12.6203    9.2175   45.4324 C   0  0  0  0  0  0
  -12.1594    6.4886   47.1740 C   0  0  0  0  0  0
  -13.3917    8.8438   42.2179 C   0  0  0  0  0  0
   -8.1085    3.1087   48.8363 C   0  0  0  0  0  0
   -8.0774    4.5445   48.3049 C   0  0  0  0  0  0
  -13.3816   10.1998   46.0714 C   0  0  0  0  0  0
  -11.2268    9.2672   45.4974 C   0  0  0  0  0  0
  -10.5957   10.2826   46.2133 C   0  0  0  0  0  0
  -12.7492   11.2306   46.7692 C   0  0  0  0  0  0
  -11.3555   11.2674   46.8461 C   0  0  0  0  0  0
  -14.7459    4.7120   44.5612 C   0  0  0  0  0  0
   -8.6634    3.0217   50.0756 O   0  0  0  0  0  0
   -7.6595    2.1496   48.2175 O   0  0  0  0  0  0
   -9.4289    5.0808   47.7663 C   0  0  1  0  0  0
  -10.5137    5.2852   48.8605 C   0  0  0  0  0  0
  -13.3871   10.2312   42.4174 C   0  0  0  0  0  0
  -13.2189    8.3444   40.9193 C   0  0  0  0  0  0
  -11.6868    6.2751   48.6080 C   0  0  2  0  0  0
  -13.0633   10.5880   40.0596 C   0  0  0  0  0  0
   -8.8756   10.3001   46.3147 Cl  0  0  0  0  0  0
  -13.6928   12.4536   47.5412 Cl  0  0  0  0  0  0
  -13.0673    9.2144   39.8419 C   0  0  0  0  0  0
  -13.2204   11.0996   41.3427 C   0  0  0  0  0  0
  -12.9068   11.4366   39.0192 F   0  0  0  0  0  0
   -9.1277    6.2964   47.1103 O   0  0  0  0  0  0
  -12.7791    5.9016   49.4220 O   0  0  0  0  0  0
  -16.2203    4.7938   44.9980 C   0  0  0  0  0  0
  -13.9139    3.8353   45.5229 C   0  0  0  0  0  0
  -14.3122    6.5077   47.2914 H   0  0  0  0  0  0
  -11.3748    6.5970   46.4444 H   0  0  0  0  0  0
   -7.6910    5.1930   49.0927 H   0  0  0  0  0  0
   -7.3271    4.5666   47.5125 H   0  0  0  0  0  0
  -14.4607   10.1606   46.0274 H   0  0  0  0  0  0
  -10.6365    8.4994   45.0183 H   0  0  0  0  0  0
  -10.8643   12.0567   47.3969 H   0  0  0  0  0  0
  -14.7315    4.2044   43.5928 H   0  0  0  0  0  0
   -8.6238    2.1119   50.3847 H   0  0  0  0  0  0
   -9.8296    4.3999   47.0143 H   0  0  0  0  0  0
  -10.9196    4.3000   49.0760 H   0  0  0  0  0  0
  -10.0306    5.5966   49.7873 H   0  0  0  0  0  0
  -13.5379   10.6494   43.3994 H   0  0  0  0  0  0
  -13.2183    7.2790   40.7384 H   0  0  0  0  0  0
  -11.3620    7.2630   48.9391 H   0  0  0  0  0  0
  -12.9424    8.8229   38.8426 H   0  0  0  0  0  0
  -13.2207   12.1685   41.4980 H   0  0  0  0  0  0
   -8.5818    6.0936   46.3441 H   0  0  0  0  0  0
  -12.9172    4.9592   49.2981 H   0  0  0  0  0  0
  -16.8245    5.3273   44.2616 H   0  0  0  0  0  0
  -16.6570    3.8045   45.1189 H   0  0  0  0  0  0
  -16.3278    5.3162   45.9509 H   0  0  0  0  0  0
  -12.8439    3.9796   45.3698 H   0  0  0  0  0  0
  -14.1278    4.0512   46.5703 H   0  0  0  0  0  0
  -14.1129    2.7763   45.3858 H   0  0  0  0  0  0
  1  4  1  0  0  0
  1  5  1  0  0  0
  1  6  1  0  0  0
  2  5  2  0  0  0
  2  3  1  0  0  0
  3  4  2  0  0  0
  3  9  1  0  0  0
  4  7  1  0  0  0
  5 17  1  0  0  0
  6  8  2  0  0  0
  6 35  1  0  0  0
  7 12  2  0  0  0
  7 13  1  0  0  0
  8 24  1  0  0  0
  8 36  1  0  0  0
  9 22  1  0  0  0
  9 23  2  0  0  0
 10 11  1  0  0  0
 10 18  1  0  0  0
 10 19  2  0  0  0
 11 20  1  0  0  0
 11 37  1  0  0  0
 11 38  1  0  0  0
 12 15  1  0  0  0
 12 39  1  0  0  0
 13 14  2  0  0  0
 13 40  1  0  0  0
 14 16  1  0  0  0
 14 26  1  0  0  0
 15 27  1  0  0  0
 15 16  2  0  0  0
 16 41  1  0  0  0
 17 33  1  0  0  0
 17 34  1  0  0  0
 17 42  1  0  0  0
 18 43  1  0  0  0
 20 21  1  0  0  0
 20 31  1  0  0  0
 20 44  1  0  0  0
 21 24  1  0  0  0
 21 45  1  0  0  0
 21 46  1  0  0  0
 22 29  2  0  0  0
 22 47  1  0  0  0
 23 28  1  0  0  0
 23 48  1  0  0  0
 24 32  1  0  0  0
 24 49  1  0  0  0
 25 28  2  0  0  0
 25 30  1  0  0  0
 25 29  1  0  0  0
 28 50  1  0  0  0
 29 51  1  0  0  0
 31 52  1  0  0  0
 32 53  1  0  0  0
 33 54  1  0  0  0
 33 55  1  0  0  0
 33 56  1  0  0  0
 34 57  1  0  0  0
 34 58  1  0  0  0
 34 59  1  0  0  0
M  END
> <s_m_entry_id>
60125

> <s_m_entry_name>
dock_pv.12

> <s_m_Source_Path>
/home/csk/Desktop/cluster/DUD-E-result/hmdh

> <s_m_Source_File>
dock_pv.maegz

> <i_m_Source_File_Index>
12

> <chembl_id>
CHEMBL1161664

> <chembl_pref_name>
None

> <i_lp_mmshare_version>
53161

> <i_f3d_flags>
0

> <r_lp_tautomer_probability>
1

> <s_lp_Force_Field>
OPLS_2005

> <r_lp_Energy>
24.792307

> <b_lp_Chiralities_Consistent>
1

> <s_lp_Variant>
CHEMBL402_lig116-1

> <s_i_glide_gridfile>
glide-grid_3ccw

> <i_i_glide_lignum>
160

> <i_i_glide_rotatable_bonds>
12

> <r_i_docking_score>
-6.89357370309563

> <r_i_glide_ligand_efficiency>
-0.202752167738107

> <r_i_glide_ligand_efficiency_sa>
-0.656838314566879

> <r_i_glide_ligand_efficiency_ln>
-1.52298378920672

> <r_i_glide_gscore>
-6.89357370309563

> <r_i_glide_lipo>
-3.00081107972749

> <r_i_glide_hbond>
-0.582604663367652

> <r_i_glide_metal>
0

> <r_i_glide_rewards>
-0.400502473185535

> <r_i_glide_evdw>
-47.6233711242676

> <r_i_glide_ecoul>
-7.53536224365234

> <r_i_glide_erotb>
0.636005656959908

> <r_i_glide_esite>
-0.0341882510136229

> <r_i_glide_emodel>
-70.2941878329369

> <r_i_glide_energy>
-55.1587333679199

> <r_i_glide_einternal>
18.432186126709

> <i_i_glide_confnum>
78

> <i_i_glide_posenum>
74

> <r_i_glide_eff_state_penalty>
0

> <s_user_duplicate_titles>
CHEMBL402_lig116,643203

> <s_m_subgroup_title>
dock_pv

> <s_m_subgroupid>
dock_pv

> <b_m_subgroup_collapsed>
1

$$$$
417102
                    3D
 Schrodinger Suite 2021-1.
 66 68  0  0  1  0            999 V2000
  -15.7341    4.1878   44.7473 C   0  0  0  0  0  0
  -16.5889    5.3078   45.3558 C   0  0  0  0  0  0
  -17.4861    5.9000   44.2570 C   0  0  0  0  0  0
  -15.7654    6.3931   46.0500 C   0  0  0  0  0  0
  -16.0858    7.2340   47.1628 C   0  0  0  0  0  0
  -15.0801    8.0471   47.4473 N   0  0  0  0  0  0
  -14.1126    7.8129   46.5544 N   0  0  0  0  0  0
  -14.4936    6.8216   45.6896 C   0  0  0  0  0  0
  -13.7035    6.3995   44.6567 O   0  0  0  0  0  0
  -13.8950    7.1593   43.4697 C   0  0  0  0  0  0
  -12.5270    7.4508   42.8341 C   0  0  2  0  0  0
  -12.5967    8.4720   41.7044 C   0  0  0  0  0  0
  -12.9964    9.9068   42.0986 C   0  0  2  0  0  0
  -12.6576   10.9063   40.9785 C   0  0  0  0  0  0
  -13.5314   10.7264   39.7431 C   0  0  0  0  0  0
  -14.4250   11.5000   39.4397 O   0  0  0  0  0  0
  -13.2190    9.6213   39.0190 O   0  0  0  0  0  0
  -12.2933   10.3001   43.2602 O   0  0  0  0  0  0
  -12.0190    6.3000   42.2190 O   0  0  0  0  0  0
  -12.9035    8.5508   46.5596 C   0  0  0  0  0  0
  -12.9134    9.9301   46.8066 C   0  0  0  0  0  0
  -11.7221   10.6515   46.7559 C   0  0  0  0  0  0
  -10.5283    9.9983   46.4577 C   0  0  0  0  0  0
  -10.5101    8.6271   46.2194 C   0  0  0  0  0  0
  -11.6944    7.8992   46.2830 C   0  0  0  0  0  0
   -9.3757   10.7000   46.3964 F   0  0  0  0  0  0
  -17.2877    7.2199   47.9835 C   0  0  0  0  0  0
  -17.2948    7.7029   49.1173 O   0  0  0  0  0  0
  -18.3857    6.6846   47.4194 N   0  0  0  0  0  0
  -19.6913    6.5433   48.0746 C   0  0  0  0  0  0
  -19.8334    5.4572   49.1497 C   0  0  0  0  0  0
  -18.8190    4.5290   49.4190 C   0  0  0  0  0  0
  -19.0033    3.5386   50.3795 C   0  0  0  0  0  0
  -20.1986    3.4838   51.0906 C   0  0  0  0  0  0
  -21.2061    4.4152   50.8526 C   0  0  0  0  0  0
  -21.0208    5.4001   49.8852 C   0  0  0  0  0  0
  -11.8021    7.7666   43.5830 H   0  0  0  0  0  0
  -14.0611    9.9576   42.3330 H   0  0  0  0  0  0
  -15.1709    3.6444   45.5077 H   0  0  0  0  0  0
  -16.3885    3.5000   44.2233 H   0  0  0  0  0  0
  -15.0353    4.5372   43.9903 H   0  0  0  0  0  0
  -17.2190    4.8103   46.0906 H   0  0  0  0  0  0
  -18.1280    6.6967   44.6328 H   0  0  0  0  0  0
  -16.8855    6.3000   43.4391 H   0  0  0  0  0  0
  -18.1287    5.1376   43.8190 H   0  0  0  0  0  0
  -14.4178    8.1006   43.6561 H   0  0  0  0  0  0
  -14.5315    6.6067   42.7764 H   0  0  0  0  0  0
  -13.2895    8.0919   40.9526 H   0  0  0  0  0  0
  -11.6190    8.5102   41.2231 H   0  0  0  0  0  0
  -11.6190   10.7908   40.6718 H   0  0  0  0  0  0
  -12.7932   11.9291   41.3337 H   0  0  0  0  0  0
  -13.8934    9.4721   38.3437 H   0  0  0  0  0  0
  -12.5327    9.7108   43.9818 H   0  0  0  0  0  0
  -11.6949    5.6827   42.9080 H   0  0  0  0  0  0
  -13.8376   10.4470   47.0247 H   0  0  0  0  0  0
  -11.7208   11.7158   46.9411 H   0  0  0  0  0  0
   -9.5789    8.1303   45.9889 H   0  0  0  0  0  0
  -11.6664    6.8341   46.0944 H   0  0  0  0  0  0
  -18.2803    6.2143   46.5317 H   0  0  0  0  0  0
  -19.9794    7.5000   48.5141 H   0  0  0  0  0  0
  -20.4323    6.3394   47.2998 H   0  0  0  0  0  0
  -17.8896    4.5560   48.8714 H   0  0  0  0  0  0
  -18.2216    2.8180   50.5715 H   0  0  0  0  0  0
  -20.3405    2.7171   51.8383 H   0  0  0  0  0  0
  -22.1248    4.3733   51.4186 H   0  0  0  0  0  0
  -21.8060    6.1194   49.7066 H   0  0  0  0  0  0
  1  2  1  0  0  0
  1 39  1  0  0  0
  1 40  1  0  0  0
  1 41  1  0  0  0
  2  3  1  0  0  0
  2  4  1  0  0  0
  2 42  1  0  0  0
  3 43  1  0  0  0
  3 44  1  0  0  0
  3 45  1  0  0  0
  4  8  2  0  0  0
  4  5  1  0  0  0
  5  6  2  0  0  0
  5 27  1  0  0  0
  6  7  1  0  0  0
  7  8  1  0  0  0
  7 20  1  0  0  0
  8  9  1  0  0  0
  9 10  1  0  0  0
 10 11  1  0  0  0
 10 46  1  0  0  0
 10 47  1  0  0  0
 11 37  1  0  0  0
 11 12  1  0  0  0
 11 19  1  0  0  0
 12 13  1  0  0  0
 12 48  1  0  0  0
 12 49  1  0  0  0
 13 38  1  0  0  0
 13 14  1  0  0  0
 13 18  1  0  0  0
 14 15  1  0  0  0
 14 50  1  0  0  0
 14 51  1  0  0  0
 15 16  2  0  0  0
 15 17  1  0  0  0
 17 52  1  0  0  0
 18 53  1  0  0  0
 19 54  1  0  0  0
 20 25  1  0  0  0
 20 21  2  0  0  0
 21 22  1  0  0  0
 21 55  1  0  0  0
 22 23  2  0  0  0
 22 56  1  0  0  0
 23 24  1  0  0  0
 23 26  1  0  0  0
 24 25  2  0  0  0
 24 57  1  0  0  0
 25 58  1  0  0  0
 27 28  2  0  0  0
 27 29  1  0  0  0
 29 30  1  0  0  0
 29 59  1  0  0  0
 30 31  1  0  0  0
 30 60  1  0  0  0
 30 61  1  0  0  0
 31 36  1  0  0  0
 31 32  2  0  0  0
 32 33  1  0  0  0
 32 62  1  0  0  0
 33 34  2  0  0  0
 33 63  1  0  0  0
 34 35  1  0  0  0
 34 64  1  0  0  0
 35 36  2  0  0  0
 35 65  1  0  0  0
 36 66  1  0  0  0
M  END
> <s_m_entry_id>
60348

> <s_m_entry_name>
ligand_docking-pose.1

> <s_m_Source_Path>
/home/csk/Desktop/cluster/DUD-E-result/hmdh

> <s_m_Source_File>
ligand_docking-pose.sdf

> <i_m_Source_File_Index>
1

> <i_lp_mmshare_version>
53161

> <r_lp_tautomer_probability>
1

> <s_lp_Force_Field>
OPLS_2005

> <r_lp_Energy>
24.775899

> <b_lp_Chiralities_Consistent>
1

> <s_lp_Variant>
417102-1

> <s_i_glide_gridfile>
glide-grid_3ccw

> <i_i_glide_lignum>
514

> <i_i_glide_rotatable_bonds>
16

> <r_i_docking_score>
-7.49057411931247

> <r_i_glide_ligand_efficiency>
-0.208071503314235

> <r_i_glide_ligand_efficiency_sa>
-0.687036965691072

> <r_i_glide_ligand_efficiency_ln>
-1.63424090090824

> <r_i_glide_gscore>
-7.49057411931247

> <r_i_glide_lipo>
-2.66206407519817

> <r_i_glide_hbond>
-0.244427996581984

> <r_i_glide_metal>
0

> <r_i_glide_rewards>
-0.521001248494866

> <r_i_glide_evdw>
-41.7946739196777

> <r_i_glide_ecoul>
-17.3550834655762

> <r_i_glide_erotb>
0.629915416782859

> <r_i_glide_esite>
0

> <r_i_glide_emodel>
-79.1491326938382

> <r_i_glide_energy>
-59.1497573852539

> <r_i_glide_einternal>
13.6010980606079

> <i_i_glide_confnum>
11

> <i_i_glide_posenum>
19

> <r_i_glide_eff_state_penalty>
0

> <i_f3d_flags>
0

> <s_user_duplicate_titles>
417102

> <s_m_subgroup_title>
dock_pv

> <s_m_subgroupid>
dock_pv1

> <b_m_subgroup_collapsed>
0

$$$$
417172
                    3D
 Schrodinger Suite 2021-1.
 76 79  0  0  1  0            999 V2000
  -16.5814    5.0318   44.6216 C   0  0  0  0  0  0
  -15.1754    5.3896   45.1329 C   0  0  0  0  0  0
  -14.4263    4.2057   45.7729 C   0  0  0  0  0  0
  -15.0921    6.6666   45.9837 C   0  0  0  0  0  0
  -15.6380    7.0452   47.2626 C   0  0  0  0  0  0
  -15.2366    8.2643   47.5777 N   0  0  0  0  0  0
  -14.4666    8.7180   46.5918 N   0  0  0  0  0  0
  -14.3450    7.7771   45.6129 C   0  0  0  0  0  0
  -13.5924    7.9867   44.4918 O   0  0  0  0  0  0
  -12.3861    7.2291   44.4646 C   0  0  0  0  0  0
  -11.4300    7.8764   43.4578 C   0  0  2  0  0  0
  -12.0482    8.1162   42.0526 C   0  0  0  0  0  0
  -12.9647    9.3586   41.8750 C   0  0  2  0  0  0
  -13.1198    9.7517   40.3794 C   0  0  0  0  0  0
  -13.7585   11.1233   40.1264 C   0  0  0  0  0  0
  -14.8150   11.5001   40.6275 O   0  0  0  0  0  0
  -12.9863   11.9000   39.3191 O   0  0  0  0  0  0
  -12.4230   10.4397   42.6148 O   0  0  0  0  0  0
  -10.2552    7.1000   43.3222 O   0  0  0  0  0  0
  -13.8840   10.0032   46.6458 C   0  0  0  0  0  0
  -13.2485   10.4431   47.8130 C   0  0  0  0  0  0
  -12.6267   11.6901   47.8323 C   0  0  0  0  0  0
  -12.6448   12.4909   46.6929 C   0  0  0  0  0  0
  -13.2962   12.0687   45.5376 C   0  0  0  0  0  0
  -13.9198   10.8238   45.5127 C   0  0  0  0  0  0
  -12.0188   13.6883   46.7055 F   0  0  0  0  0  0
  -16.4974    6.2148   48.1180 C   0  0  0  0  0  0
  -16.8152    5.1000   47.7142 O   0  0  0  0  0  0
  -16.9224    6.6331   49.3586 N   0  0  0  0  0  0
  -16.9765    8.0115   49.8807 C   0  0  0  0  0  0
  -18.3543    8.5676   49.4668 C   0  0  0  0  0  0
  -19.5050    7.7093   50.0465 C   0  0  0  0  0  0
  -19.2858    6.1873   49.7925 C   0  0  1  0  0  0
  -17.8314    5.7540   50.1274 C   0  0  0  0  0  0
  -20.2968    5.2398   50.4529 C   0  0  0  0  0  0
  -20.3615    3.9163   49.9973 C   0  0  0  0  0  0
  -21.2200    3.0012   50.5984 C   0  0  0  0  0  0
  -22.0197    3.4068   51.6622 C   0  0  0  0  0  0
  -21.9794    4.7223   52.1185 C   0  0  0  0  0  0
  -21.1221    5.6380   51.5140 C   0  0  0  0  0  0
  -11.0866    8.8180   43.8817 H   0  0  0  0  0  0
  -13.9537    9.1435   42.2843 H   0  0  0  0  0  0
  -19.4571    6.0162   48.7266 H   0  0  0  0  0  0
  -17.0872    5.8969   44.1941 H   0  0  0  0  0  0
  -16.5111    4.2789   43.8346 H   0  0  0  0  0  0
  -17.2181    4.6217   45.3970 H   0  0  0  0  0  0
  -14.6430    5.5797   44.2022 H   0  0  0  0  0  0
  -13.3842    4.4610   45.9695 H   0  0  0  0  0  0
  -14.8679    3.8965   46.7183 H   0  0  0  0  0  0
  -14.4206    3.3359   45.1156 H   0  0  0  0  0  0
  -12.5992    6.2086   44.1543 H   0  0  0  0  0  0
  -11.9110    7.1758   45.4481 H   0  0  0  0  0  0
  -12.5610    7.2172   41.7093 H   0  0  0  0  0  0
  -11.2176    8.2485   41.3728 H   0  0  0  0  0  0
  -13.7133    9.0037   39.8550 H   0  0  0  0  0  0
  -12.1386    9.7361   39.9033 H   0  0  0  0  0  0
  -13.2186   12.8404   39.4194 H   0  0  0  0  0  0
  -12.4819   10.2006   43.5452 H   0  0  0  0  0  0
  -10.4471    6.1366   43.4197 H   0  0  0  0  0  0
  -13.2169    9.8217   48.6958 H   0  0  0  0  0  0
  -12.1245   12.0372   48.7238 H   0  0  0  0  0  0
  -13.3083   12.7030   44.6648 H   0  0  0  0  0  0
  -14.4191   10.4958   44.6117 H   0  0  0  0  0  0
  -16.9214    7.9382   50.9679 H   0  0  0  0  0  0
  -16.1163    8.6428   49.6846 H   0  0  0  0  0  0
  -18.4488    9.5943   49.8202 H   0  0  0  0  0  0
  -18.4174    8.6167   48.3788 H   0  0  0  0  0  0
  -19.5472    7.9174   51.1160 H   0  0  0  0  0  0
  -20.4419    8.0392   49.5932 H   0  0  0  0  0  0
  -17.6189    4.6993   49.9520 H   0  0  0  0  0  0
  -17.6216    5.8885   51.1882 H   0  0  0  0  0  0
  -19.7301    3.5904   49.1835 H   0  0  0  0  0  0
  -21.2594    1.9792   50.2458 H   0  0  0  0  0  0
  -22.6777    2.6957   52.1390 H   0  0  0  0  0  0
  -22.6036    5.0285   52.9451 H   0  0  0  0  0  0
  -21.1042    6.6454   51.8970 H   0  0  0  0  0  0
  1  2  1  0  0  0
  1 44  1  0  0  0
  1 45  1  0  0  0
  1 46  1  0  0  0
  2  3  1  0  0  0
  2  4  1  0  0  0
  2 47  1  0  0  0
  3 48  1  0  0  0
  3 49  1  0  0  0
  3 50  1  0  0  0
  4  8  2  0  0  0
  4  5  1  0  0  0
  5  6  2  0  0  0
  5 27  1  0  0  0
  6  7  1  0  0  0
  7  8  1  0  0  0
  7 20  1  0  0  0
  8  9  1  0  0  0
  9 10  1  0  0  0
 10 11  1  0  0  0
 10 51  1  0  0  0
 10 52  1  0  0  0
 11 41  1  0  0  0
 11 12  1  0  0  0
 11 19  1  0  0  0
 12 13  1  0  0  0
 12 53  1  0  0  0
 12 54  1  0  0  0
 13 42  1  0  0  0
 13 14  1  0  0  0
 13 18  1  0  0  0
 14 15  1  0  0  0
 14 55  1  0  0  0
 14 56  1  0  0  0
 15 16  2  0  0  0
 15 17  1  0  0  0
 17 57  1  0  0  0
 18 58  1  0  0  0
 19 59  1  0  0  0
 20 25  1  0  0  0
 20 21  2  0  0  0
 21 22  1  0  0  0
 21 60  1  0  0  0
 22 23  2  0  0  0
 22 61  1  0  0  0
 23 24  1  0  0  0
 23 26  1  0  0  0
 24 25  2  0  0  0
 24 62  1  0  0  0
 25 63  1  0  0  0
 27 28  2  0  0  0
 27 29  1  0  0  0
 29 34  1  0  0  0
 29 30  1  0  0  0
 30 31  1  0  0  0
 30 64  1  0  0  0
 30 65  1  0  0  0
 31 32  1  0  0  0
 31 66  1  0  0  0
 31 67  1  0  0  0
 32 33  1  0  0  0
 32 68  1  0  0  0
 32 69  1  0  0  0
 33 43  1  0  0  0
 33 34  1  0  0  0
 33 35  1  0  0  0
 34 70  1  0  0  0
 34 71  1  0  0  0
 35 40  1  0  0  0
 35 36  2  0  0  0
 36 37  1  0  0  0
 36 72  1  0  0  0
 37 38  2  0  0  0
 37 73  1  0  0  0
 38 39  1  0  0  0
 38 74  1  0  0  0
 39 40  2  0  0  0
 39 75  1  0  0  0
 40 76  1  0  0  0
M  END
> <s_m_entry_id>
60350

> <s_m_entry_name>
ligand_docking-pose.3

> <s_m_Source_Path>
/home/csk/Desktop/cluster/DUD-E-result/hmdh

> <s_m_Source_File>
ligand_docking-pose.sdf

> <i_m_Source_File_Index>
3

> <i_lp_mmshare_version>
53161

> <r_lp_tautomer_probability>
1

> <s_lp_Force_Field>
OPLS_2005

> <r_lp_Energy>
50.591307

> <b_lp_Chiralities_Consistent>
1

> <s_lp_Variant>
417172-1

> <s_i_glide_gridfile>
glide-grid_3ccw

> <i_i_glide_lignum>
513

> <i_i_glide_rotatable_bonds>
15

> <r_i_docking_score>
-7.43663668090539

> <r_i_glide_ligand_efficiency>
-0.185915917022635

> <r_i_glide_ligand_efficiency_sa>
-0.635823491644266

> <r_i_glide_ligand_efficiency_ln>
-1.58601575358919

> <r_i_glide_gscore>
-7.43663668090539

> <r_i_glide_lipo>
-2.54841463536922

> <r_i_glide_hbond>
-0.272040281272455

> <r_i_glide_metal>
0

> <r_i_glide_rewards>
-0.747036202371694

> <r_i_glide_evdw>
-38.4343109130859

> <r_i_glide_ecoul>
-17.4638977050781

> <r_i_glide_erotb>
0.672154639523999

> <r_i_glide_esite>
0

> <r_i_glide_emodel>
-72.985224763551

> <r_i_glide_energy>
-55.8982086181641

> <r_i_glide_einternal>
16.6961135864258

> <i_i_glide_confnum>
3

> <i_i_glide_posenum>
28

> <r_i_glide_eff_state_penalty>
0

> <i_f3d_flags>
0

> <s_user_duplicate_titles>
417172

> <s_m_subgroup_title>
dock_pv

> <s_m_subgroupid>
dock_pv1

> <b_m_subgroup_collapsed>
0

$$$$
417147
                    3D
 Schrodinger Suite 2021-1.
 72 74  0  0  1  0            999 V2000
  -10.3248   11.0114   48.0565 C   0  0  0  0  0  0
  -11.7108   10.4091   48.3463 C   0  0  0  0  0  0
  -11.6624    9.2602   49.3662 C   0  0  0  0  0  0
  -12.4598   10.0001   47.0763 C   0  0  0  0  0  0
  -13.8314   10.1973   46.7819 C   0  0  0  0  0  0
  -14.1570    9.7699   45.5826 N   0  0  0  0  0  0
  -13.0309    9.2926   45.0491 N   0  0  0  0  0  0
  -11.9709    9.3748   45.9266 C   0  0  0  0  0  0
  -10.6785    9.0153   45.6242 O   0  0  0  0  0  0
  -10.4510    7.6410   45.2838 C   0  0  0  0  0  0
   -9.3770    7.0202   46.2054 C   0  0  2  0  0  0
   -8.7737    5.7147   45.6412 C   0  0  0  0  0  0
   -7.5667    5.0565   46.3572 C   0  0  2  0  0  0
   -7.7303    4.6990   47.8581 C   0  0  0  0  0  0
   -8.7321    3.5842   48.1634 C   0  0  0  0  0  0
   -8.4024    2.5073   48.6421 O   0  0  0  0  0  0
  -10.0171    3.9428   47.8898 O   0  0  0  0  0  0
   -6.4423    5.9001   46.2188 O   0  0  0  0  0  0
  -10.0197    6.7000   47.4199 O   0  0  0  0  0  0
  -13.0405    8.8654   43.7143 C   0  0  0  0  0  0
  -13.2213    7.5112   43.4180 C   0  0  0  0  0  0
  -13.1656    7.0919   42.0935 C   0  0  0  0  0  0
  -12.9368    8.0204   41.0806 C   0  0  0  0  0  0
  -12.8157    9.3759   41.3714 C   0  0  0  0  0  0
  -12.8652    9.8062   42.6949 C   0  0  0  0  0  0
  -12.8188    7.5984   39.8035 F   0  0  0  0  0  0
  -14.7839   10.7631   47.6972 C   0  0  0  0  0  0
  -14.9981   11.9776   47.6581 O   0  0  0  0  0  0
  -15.3265    9.9224   48.6208 N   0  0  0  0  0  0
  -16.1660   10.4601   49.6939 C   0  0  0  0  0  0
  -15.3070    8.4482   48.5512 C   0  0  0  0  0  0
  -16.6070    7.8379   48.0428 C   0  0  0  0  0  0
  -16.7697    7.5548   46.6863 C   0  0  0  0  0  0
  -17.9645    7.0058   46.2201 C   0  0  0  0  0  0
  -18.9969    6.7192   47.1124 C   0  0  0  0  0  0
  -18.8344    6.9566   48.4830 C   0  0  0  0  0  0
  -17.6335    7.5154   48.9383 C   0  0  0  0  0  0
  -19.9410    6.6090   49.4802 C   0  0  0  0  0  0
  -20.8190    5.7442   48.9681 F   0  0  0  0  0  0
  -19.4234    6.0662   50.5825 F   0  0  0  0  0  0
  -20.5953    7.7209   49.8170 F   0  0  0  0  0  0
   -8.5827    7.7473   46.3795 H   0  0  0  0  0  0
   -7.3151    4.1465   45.8102 H   0  0  0  0  0  0
  -10.4172   11.8903   47.4162 H   0  0  0  0  0  0
   -9.8301   11.3304   48.9742 H   0  0  0  0  0  0
   -9.6659   10.3034   47.5556 H   0  0  0  0  0  0
  -12.2728   11.2137   48.8265 H   0  0  0  0  0  0
  -12.6636    8.9871   49.7017 H   0  0  0  0  0  0
  -11.2140    8.3651   48.9438 H   0  0  0  0  0  0
  -11.0857    9.5334   50.2492 H   0  0  0  0  0  0
  -10.0993    7.6253   44.2509 H   0  0  0  0  0  0
  -11.3488    7.0197   45.2979 H   0  0  0  0  0  0
   -8.4882    5.8747   44.6006 H   0  0  0  0  0  0
   -9.5658    4.9800   45.6100 H   0  0  0  0  0  0
   -8.0169    5.5582   48.4573 H   0  0  0  0  0  0
   -6.7672    4.3780   48.2548 H   0  0  0  0  0  0
  -10.6626    3.2575   48.1105 H   0  0  0  0  0  0
   -6.4206    6.4995   46.9794 H   0  0  0  0  0  0
  -10.3130    5.7815   47.3733 H   0  0  0  0  0  0
  -13.3792    6.7852   44.2036 H   0  0  0  0  0  0
  -13.2837    6.0465   41.8537 H   0  0  0  0  0  0
  -12.6540   10.0805   40.5689 H   0  0  0  0  0  0
  -12.7587   10.8558   42.9244 H   0  0  0  0  0  0
  -17.2198   10.2872   49.4848 H   0  0  0  0  0  0
  -15.9223    9.9818   50.6414 H   0  0  0  0  0  0
  -16.0149   11.5314   49.8298 H   0  0  0  0  0  0
  -14.4888    8.0800   47.9308 H   0  0  0  0  0  0
  -15.0969    8.0526   49.5457 H   0  0  0  0  0  0
  -15.9742    7.7660   45.9860 H   0  0  0  0  0  0
  -18.0902    6.7902   45.1677 H   0  0  0  0  0  0
  -19.9162    6.2999   46.7270 H   0  0  0  0  0  0
  -17.4974    7.7096   49.9939 H   0  0  0  0  0  0
  1  2  1  0  0  0
  1 44  1  0  0  0
  1 45  1  0  0  0
  1 46  1  0  0  0
  2  3  1  0  0  0
  2  4  1  0  0  0
  2 47  1  0  0  0
  3 48  1  0  0  0
  3 49  1  0  0  0
  3 50  1  0  0  0
  4  8  2  0  0  0
  4  5  1  0  0  0
  5  6  2  0  0  0
  5 27  1  0  0  0
  6  7  1  0  0  0
  7  8  1  0  0  0
  7 20  1  0  0  0
  8  9  1  0  0  0
  9 10  1  0  0  0
 10 11  1  0  0  0
 10 51  1  0  0  0
 10 52  1  0  0  0
 11 42  1  0  0  0
 11 12  1  0  0  0
 11 19  1  0  0  0
 12 13  1  0  0  0
 12 53  1  0  0  0
 12 54  1  0  0  0
 13 43  1  0  0  0
 13 14  1  0  0  0
 13 18  1  0  0  0
 14 15  1  0  0  0
 14 55  1  0  0  0
 14 56  1  0  0  0
 15 16  2  0  0  0
 15 17  1  0  0  0
 17 57  1  0  0  0
 18 58  1  0  0  0
 19 59  1  0  0  0
 20 25  1  0  0  0
 20 21  2  0  0  0
 21 22  1  0  0  0
 21 60  1  0  0  0
 22 23  2  0  0  0
 22 61  1  0  0  0
 23 24  1  0  0  0
 23 26  1  0  0  0
 24 25  2  0  0  0
 24 62  1  0  0  0
 25 63  1  0  0  0
 27 28  2  0  0  0
 27 29  1  0  0  0
 29 30  1  0  0  0
 29 31  1  0  0  0
 30 64  1  0  0  0
 30 65  1  0  0  0
 30 66  1  0  0  0
 31 32  1  0  0  0
 31 67  1  0  0  0
 31 68  1  0  0  0
 32 37  1  0  0  0
 32 33  2  0  0  0
 33 34  1  0  0  0
 33 69  1  0  0  0
 34 35  2  0  0  0
 34 70  1  0  0  0
 35 36  1  0  0  0
 35 71  1  0  0  0
 36 37  2  0  0  0
 36 38  1  0  0  0
 37 72  1  0  0  0
 38 39  1  0  0  0
 38 40  1  0  0  0
 38 41  1  0  0  0
M  END
> <s_m_entry_id>
60353

> <s_m_entry_name>
ligand_docking-pose.6

> <s_m_Source_Path>
/home/csk/Desktop/cluster/DUD-E-result/hmdh

> <s_m_Source_File>
ligand_docking-pose.sdf

> <i_m_Source_File_Index>
6

> <i_lp_mmshare_version>
53161

> <r_lp_tautomer_probability>
1

> <s_lp_Force_Field>
OPLS_2005

> <r_lp_Energy>
36.937177

> <b_lp_Chiralities_Consistent>
1

> <s_lp_Variant>
417147-1

> <s_i_glide_gridfile>
glide-grid_3ccw

> <i_i_glide_lignum>
528

> <i_i_glide_rotatable_bonds>
17

> <r_i_docking_score>
-7.09952107844927

> <r_i_glide_ligand_efficiency>
-0.173159050693885

> <r_i_glide_ligand_efficiency_sa>
-0.597090023191848

> <r_i_glide_ligand_efficiency_ln>
-1.50618702291598

> <r_i_glide_gscore>
-7.09952107844927

> <r_i_glide_lipo>
-1.72276098424

> <r_i_glide_hbond>
-0.64

> <r_i_glide_metal>
0

> <r_i_glide_rewards>
-0.86913499449926

> <r_i_glide_evdw>
-39.5154876708984

> <r_i_glide_ecoul>
-16.8620109558105

> <r_i_glide_erotb>
0.640921994294789

> <r_i_glide_esite>
-0.00347106708828999

> <r_i_glide_emodel>
-71.9911779784058

> <r_i_glide_energy>
-56.377498626709

> <r_i_glide_einternal>
17.8058261871338

> <i_i_glide_confnum>
132

> <i_i_glide_posenum>
376

> <r_i_glide_eff_state_penalty>
0

> <i_f3d_flags>
0

> <s_user_duplicate_titles>
417147

> <s_m_subgroup_title>
dock_pv

> <s_m_subgroupid>
dock_pv1

> <b_m_subgroup_collapsed>
0

$$$$
200555
                    3D
 Schrodinger Suite 2021-1.
 61 63  0  0  1  0            999 V2000
  -13.6126   12.2127   48.1418 C   0  0  0  0  0  0
  -12.8272   11.2295   47.2920 C   0  0  0  0  0  0
  -11.4504   11.3961   47.1136 C   0  0  0  0  0  0
  -10.7282   10.4987   46.3206 C   0  0  0  0  0  0
  -11.3892    9.4489   45.6885 C   0  0  0  0  0  0
  -12.7581    9.2616   45.8780 C   0  0  0  0  0  0
  -13.4792   10.1566   46.6749 C   0  0  0  0  0  0
  -13.4103    8.1001   45.2283 C   0  0  0  0  0  0
  -13.6804    7.8382   43.8808 C   0  0  0  0  0  0
  -14.2512    6.6480   43.7527 N   0  0  0  0  0  0
  -14.3707    6.1481   44.9614 C   0  0  0  0  0  0
  -13.8173    6.9749   45.9183 N   0  0  0  0  0  0
  -13.6622    6.7109   47.3585 C   0  0  0  0  0  0
  -12.1870    6.4929   47.8051 C   0  0  0  0  0  0
  -11.3378    5.5396   46.9254 C   0  0  2  0  0  0
  -10.1904    4.7909   47.6779 C   0  0  0  0  0  0
   -8.7521    5.3526   47.5263 C   0  0  2  0  0  0
   -7.9698    4.9010   46.2586 C   0  0  0  0  0  0
   -7.3390    3.4986   46.2617 C   0  0  0  0  0  0
   -7.2144    2.7879   47.2565 O   0  0  0  0  0  0
   -6.9339    3.1381   45.0125 O   0  0  0  0  0  0
   -8.0198    5.1000   48.7127 O   0  0  0  0  0  0
  -10.8764    6.3000   45.8233 O   0  0  0  0  0  0
  -15.0182    4.7991   45.2536 C   0  0  0  0  0  0
  -15.6276    4.3000   44.1799 F   0  0  0  0  0  0
  -14.1197    3.9012   45.6513 F   0  0  0  0  0  0
  -15.9465    4.8997   46.2050 F   0  0  0  0  0  0
  -13.4243    8.7048   42.6809 C   0  0  0  0  0  0
  -13.4134   10.1021   42.8007 C   0  0  0  0  0  0
  -13.2174   10.9068   41.6820 C   0  0  0  0  0  0
  -13.0176   10.3174   40.4366 C   0  0  0  0  0  0
  -13.0181    8.9332   40.3007 C   0  0  0  0  0  0
  -13.2195    8.1285   41.4197 C   0  0  0  0  0  0
  -12.8194   11.1003   39.3515 F   0  0  0  0  0  0
   -9.2251   10.6181   46.1874 C   0  0  0  0  0  0
  -11.9997    4.7678   46.5337 H   0  0  0  0  0  0
   -8.8411    6.4358   47.4589 H   0  0  0  0  0  0
  -13.0811   13.1599   48.2559 H   0  0  0  0  0  0
  -14.5714   12.4410   47.6743 H   0  0  0  0  0  0
  -13.8064   11.7911   49.1280 H   0  0  0  0  0  0
  -10.9399   12.2161   47.5981 H   0  0  0  0  0  0
  -10.8339    8.7557   45.0729 H   0  0  0  0  0  0
  -14.5425   10.0145   46.8128 H   0  0  0  0  0  0
  -14.2437    5.8279   47.6190 H   0  0  0  0  0  0
  -14.1041    7.5482   47.8993 H   0  0  0  0  0  0
  -12.2317    6.0979   48.8206 H   0  0  0  0  0  0
  -11.6778    7.4534   47.9068 H   0  0  0  0  0  0
  -10.1889    3.7328   47.4187 H   0  0  0  0  0  0
  -10.4528    4.7732   48.7356 H   0  0  0  0  0  0
   -7.1586    5.6088   46.0829 H   0  0  0  0  0  0
   -8.6295    4.9821   45.3925 H   0  0  0  0  0  0
   -7.2168    3.7393   44.3196 H   0  0  0  0  0  0
   -7.2314    5.6574   48.6890 H   0  0  0  0  0  0
  -10.8188    5.6977   45.0563 H   0  0  0  0  0  0
  -13.5902   10.5724   43.7563 H   0  0  0  0  0  0
  -13.2185   11.9830   41.7742 H   0  0  0  0  0  0
  -12.8569    8.4865   39.3306 H   0  0  0  0  0  0
  -13.2282    7.0556   41.3005 H   0  0  0  0  0  0
   -8.8191   11.1820   47.0192 H   0  0  0  0  0  0
   -8.7566    9.6334   46.2182 H   0  0  0  0  0  0
   -8.9456   11.1000   45.2531 H   0  0  0  0  0  0
  1  2  1  0  0  0
  1 38  1  0  0  0
  1 39  1  0  0  0
  1 40  1  0  0  0
  2  7  1  0  0  0
  2  3  2  0  0  0
  3  4  1  0  0  0
  3 41  1  0  0  0
  4  5  2  0  0  0
  4 35  1  0  0  0
  5  6  1  0  0  0
  5 42  1  0  0  0
  6  7  2  0  0  0
  6  8  1  0  0  0
  7 43  1  0  0  0
  8 12  1  0  0  0
  8  9  2  0  0  0
  9 10  1  0  0  0
  9 28  1  0  0  0
 10 11  2  0  0  0
 11 12  1  0  0  0
 11 24  1  0  0  0
 12 13  1  0  0  0
 13 14  1  0  0  0
 13 44  1  0  0  0
 13 45  1  0  0  0
 14 15  1  0  0  0
 14 46  1  0  0  0
 14 47  1  0  0  0
 15 36  1  0  0  0
 15 16  1  0  0  0
 15 23  1  0  0  0
 16 17  1  0  0  0
 16 48  1  0  0  0
 16 49  1  0  0  0
 17 37  1  0  0  0
 17 18  1  0  0  0
 17 22  1  0  0  0
 18 19  1  0  0  0
 18 50  1  0  0  0
 18 51  1  0  0  0
 19 20  2  0  0  0
 19 21  1  0  0  0
 21 52  1  0  0  0
 22 53  1  0  0  0
 23 54  1  0  0  0
 24 25  1  0  0  0
 24 26  1  0  0  0
 24 27  1  0  0  0
 28 33  1  0  0  0
 28 29  2  0  0  0
 29 30  1  0  0  0
 29 55  1  0  0  0
 30 31  2  0  0  0
 30 56  1  0  0  0
 31 32  1  0  0  0
 31 34  1  0  0  0
 32 33  2  0  0  0
 32 57  1  0  0  0
 33 58  1  0  0  0
 35 59  1  0  0  0
 35 60  1  0  0  0
 35 61  1  0  0  0
M  END
> <s_m_entry_id>
60354

> <s_m_entry_name>
ligand_docking-pose.7

> <s_m_Source_Path>
/home/csk/Desktop/cluster/DUD-E-result/hmdh

> <s_m_Source_File>
ligand_docking-pose.sdf

> <i_m_Source_File_Index>
7

> <i_lp_mmshare_version>
53161

> <r_lp_tautomer_probability>
1

> <s_lp_Force_Field>
OPLS_2005

> <r_lp_Energy>
26.259949

> <b_lp_Chiralities_Consistent>
1

> <s_lp_Variant>
200555-1

> <s_i_glide_gridfile>
glide-grid_3ccw

> <i_i_glide_lignum>
183

> <i_i_glide_rotatable_bonds>
13

> <r_i_docking_score>
-7.01419597087886

> <r_i_glide_ligand_efficiency>
-0.200405599167967

> <r_i_glide_ligand_efficiency_sa>
-0.655540003034605

> <r_i_glide_ligand_efficiency_ln>
-1.53977168730011

> <r_i_glide_gscore>
-7.01419597087886

> <r_i_glide_lipo>
-2.20461988619224

> <r_i_glide_hbond>
-0.152275274546172

> <r_i_glide_metal>
0

> <r_i_glide_rewards>
-1.56751918877821

> <r_i_glide_evdw>
-43.8857116699219

> <r_i_glide_ecoul>
-10.9163236618042

> <r_i_glide_erotb>
0.750109981462223

> <r_i_glide_esite>
-0.0081574700577328

> <r_i_glide_emodel>
-74.4685190422163

> <r_i_glide_energy>
-54.8020353317261

> <r_i_glide_einternal>
10.2802314758301

> <i_i_glide_confnum>
201

> <i_i_glide_posenum>
48

> <r_i_glide_eff_state_penalty>
0

> <i_f3d_flags>
0

> <s_user_duplicate_titles>
200555

> <s_m_subgroup_title>
dock_pv

> <s_m_subgroupid>
dock_pv1

> <b_m_subgroup_collapsed>
0

$$$$
258565
                    3D
 Schrodinger Suite 2021-1.
 57 59  0  0  1  0            999 V2000
  -20.0704    6.8464   48.7306 C   0  0  0  0  0  0
  -19.0181    5.8310   48.2446 C   0  0  0  0  0  0
  -18.6981    4.8105   49.3562 C   0  0  0  0  0  0
  -17.7451    6.4381   47.6300 C   0  0  0  0  0  0
  -17.3780    7.7665   47.8289 C   0  0  0  0  0  0
  -16.2034    8.2639   47.2521 C   0  0  0  0  0  0
  -15.4084    7.4074   46.4609 C   0  0  0  0  0  0
  -15.8514    6.0782   46.2859 C   0  0  0  0  0  0
  -16.9864    5.6049   46.8734 N   0  0  0  0  0  0
  -15.1052    5.0510   45.4184 C   0  0  0  0  0  0
  -16.0231    4.4395   44.3437 C   0  0  0  0  0  0
  -14.3896    3.9878   46.2672 C   0  0  0  0  0  0
  -14.1322    7.8948   45.8917 C   0  0  0  0  0  0
  -13.8738    8.0409   44.5793 C   0  0  0  0  0  0
  -12.5394    8.5086   44.0104 C   0  0  2  0  0  0
  -12.6073    9.9459   43.4282 C   0  0  0  0  0  0
  -13.0374   10.0121   41.9399 C   0  0  2  0  0  0
  -13.4711    8.6458   41.3926 C   0  0  0  0  0  0
  -12.4751    7.5492   41.7716 C   0  0  0  0  0  0
  -12.0190    6.7000   41.0192 O   0  0  0  0  0  0
  -12.0288    7.5547   43.0660 O   0  0  0  0  0  0
  -12.0198   10.5580   41.1202 O   0  0  0  0  0  0
  -15.8699    9.6924   47.4968 C   0  0  0  0  0  0
  -15.6199   10.5692   46.4354 C   0  0  0  0  0  0
  -15.3869   11.9178   46.6746 C   0  0  0  0  0  0
  -15.4019   12.3893   47.9805 C   0  0  0  0  0  0
  -15.6171   11.5236   49.0464 C   0  0  0  0  0  0
  -15.8507   10.1790   48.8067 C   0  0  0  0  0  0
  -15.2193   13.7022   48.2190 F   0  0  0  0  0  0
  -13.8755   10.7069   41.8609 H   0  0  0  0  0  0
  -20.3723    7.4991   47.9126 H   0  0  0  0  0  0
  -20.9727    6.3418   49.0787 H   0  0  0  0  0  0
  -19.7040    7.4596   49.5541 H   0  0  0  0  0  0
  -19.5236    5.3120   47.4317 H   0  0  0  0  0  0
  -18.0192    4.0302   49.0148 H   0  0  0  0  0  0
  -18.2298    5.2959   50.2130 H   0  0  0  0  0  0
  -19.6015    4.3126   49.7087 H   0  0  0  0  0  0
  -17.9946    8.4202   48.4252 H   0  0  0  0  0  0
  -14.3127    5.5419   44.8579 H   0  0  0  0  0  0
  -16.5731    5.2199   43.8189 H   0  0  0  0  0  0
  -15.4420    3.9000   43.5978 H   0  0  0  0  0  0
  -16.7569    3.7586   44.7744 H   0  0  0  0  0  0
  -13.5921    4.4352   46.8618 H   0  0  0  0  0  0
  -15.0717    3.5043   46.9630 H   0  0  0  0  0  0
  -13.9373    3.2161   45.6448 H   0  0  0  0  0  0
  -13.3618    8.1351   46.6093 H   0  0  0  0  0  0
  -14.6465    7.7967   43.8693 H   0  0  0  0  0  0
  -11.8177    8.5302   44.8293 H   0  0  0  0  0  0
  -11.6191   10.3784   43.5438 H   0  0  0  0  0  0
  -13.2601   10.5700   44.0401 H   0  0  0  0  0  0
  -13.5922    8.6666   40.3099 H   0  0  0  0  0  0
  -14.4190    8.3447   41.8168 H   0  0  0  0  0  0
  -11.4060    9.8569   40.8530 H   0  0  0  0  0  0
  -15.6246   10.2104   45.4193 H   0  0  0  0  0  0
  -15.2093   12.5957   45.8529 H   0  0  0  0  0  0
  -15.6189   11.8984   50.0566 H   0  0  0  0  0  0
  -16.0325    9.5168   49.6406 H   0  0  0  0  0  0
  1  2  1  0  0  0
  1 31  1  0  0  0
  1 32  1  0  0  0
  1 33  1  0  0  0
  2  3  1  0  0  0
  2  4  1  0  0  0
  2 34  1  0  0  0
  3 35  1  0  0  0
  3 36  1  0  0  0
  3 37  1  0  0  0
  4  9  1  0  0  0
  4  5  2  0  0  0
  5  6  1  0  0  0
  5 38  1  0  0  0
  6  7  2  0  0  0
  6 23  1  0  0  0
  7  8  1  0  0  0
  7 13  1  0  0  0
  8  9  2  0  0  0
  8 10  1  0  0  0
 10 11  1  0  0  0
 10 12  1  0  0  0
 10 39  1  0  0  0
 11 40  1  0  0  0
 11 41  1  0  0  0
 11 42  1  0  0  0
 12 43  1  0  0  0
 12 44  1  0  0  0
 12 45  1  0  0  0
 13 14  2  0  0  0
 13 46  1  0  0  0
 14 15  1  0  0  0
 14 47  1  0  0  0
 15 21  1  0  0  0
 15 16  1  0  0  0
 15 48  1  0  0  0
 16 17  1  0  0  0
 16 49  1  0  0  0
 16 50  1  0  0  0
 17 30  1  0  0  0
 17 18  1  0  0  0
 17 22  1  0  0  0
 18 19  1  0  0  0
 18 51  1  0  0  0
 18 52  1  0  0  0
 19 20  2  0  0  0
 19 21  1  0  0  0
 22 53  1  0  0  0
 23 28  1  0  0  0
 23 24  2  0  0  0
 24 25  1  0  0  0
 24 54  1  0  0  0
 25 26  2  0  0  0
 25 55  1  0  0  0
 26 27  1  0  0  0
 26 29  1  0  0  0
 27 28  2  0  0  0
 27 56  1  0  0  0
 28 57  1  0  0  0
M  END
> <s_m_entry_id>
60355

> <s_m_entry_name>
ligand_docking-pose.8

> <s_m_Source_Path>
/home/csk/Desktop/cluster/DUD-E-result/hmdh

> <s_m_Source_File>
ligand_docking-pose.sdf

> <i_m_Source_File_Index>
8

> <i_lp_mmshare_version>
53161

> <r_lp_tautomer_probability>
1

> <s_lp_Force_Field>
OPLS_2005

> <r_lp_Energy>
20.654626

> <b_lp_Chiralities_Consistent>
1

> <s_lp_Variant>
258565-1

> <s_i_glide_gridfile>
glide-grid_3ccw

> <i_i_glide_lignum>
357

> <i_i_glide_rotatable_bonds>
6

> <r_i_docking_score>
-6.8929885741239

> <r_i_glide_ligand_efficiency>
-0.237689261176686

> <r_i_glide_ligand_efficiency_sa>
-0.730256715578308

> <r_i_glide_ligand_efficiency_ln>
-1.57831959236552

> <r_i_glide_gscore>
-6.8929885741239

> <r_i_glide_lipo>
-2.96645693752175

> <r_i_glide_hbond>
-0.650042210772167

> <r_i_glide_metal>
0

> <r_i_glide_rewards>
-1.12761517103796

> <r_i_glide_evdw>
-31.6586894989014

> <r_i_glide_ecoul>
-5.50752830505371

> <r_i_glide_erotb>
0.260189465911095

> <r_i_glide_esite>
0

> <r_i_glide_emodel>
-51.0659873759483

> <r_i_glide_energy>
-37.1662178039551

> <r_i_glide_einternal>
5.29177570343018

> <i_i_glide_confnum>
129

> <i_i_glide_posenum>
216

> <r_i_glide_eff_state_penalty>
0

> <i_f3d_flags>
0

> <s_user_duplicate_titles>
258565

> <s_m_subgroup_title>
dock_pv

> <s_m_subgroupid>
dock_pv1

> <b_m_subgroup_collapsed>
0

$$$$
201728
                    3D
 Schrodinger Suite 2021-1.
 63 66  0  0  1  0            999 V2000
  -17.9795    5.5000   49.8960 C   0  0  0  0  0  0
  -18.9120    4.8234   50.6788 C   0  0  0  0  0  0
  -20.2210    4.6832   50.2260 C   0  0  0  0  0  0
  -20.6052    5.2243   49.0035 C   0  0  0  0  0  0
  -19.6758    5.9000   48.2190 C   0  0  0  0  0  0
  -18.3529    6.0212   48.6521 C   0  0  0  0  0  0
  -17.3437    6.7527   47.7713 C   0  0  0  0  0  0
  -15.9651    6.0596   47.5833 C   0  0  1  0  0  0
  -16.0270    4.6764   46.8855 C   0  0  0  0  0  0
  -16.1777    4.7771   45.3570 C   0  0  0  0  0  0
  -14.9181    5.3943   44.7166 C   0  0  0  0  0  0
  -14.5210    6.6479   45.4918 C   0  0  0  0  0  0
  -15.0195    6.9458   46.7803 C   0  0  0  0  0  0
  -14.6182    8.1139   47.2092 N   0  0  0  0  0  0
  -13.8621    8.6148   46.2303 N   0  0  0  0  0  0
  -13.7398    7.7506   45.1566 C   0  0  0  0  0  0
  -12.9674    8.0946   43.9746 C   0  0  0  0  0  0
  -13.1628    7.6740   42.7135 C   0  0  0  0  0  0
  -12.3658    8.1671   41.5222 C   0  0  2  0  0  0
  -13.2496    8.7351   40.3829 C   0  0  0  0  0  0
  -13.0636   10.2301   40.0200 C   0  0  2  0  0  0
  -12.6739   11.2103   41.1472 C   0  0  0  0  0  0
  -13.6212   11.2758   42.3426 C   0  0  0  0  0  0
  -14.8190   11.5000   42.2458 O   0  0  0  0  0  0
  -12.9639   11.1019   43.5161 O   0  0  0  0  0  0
  -14.2513   10.7023   39.4190 O   0  0  0  0  0  0
  -11.6190    7.1000   41.0190 O   0  0  0  0  0  0
  -13.3787    9.9272   46.3890 C   0  0  0  0  0  0
  -12.0038   10.1692   46.4522 C   0  0  0  0  0  0
  -11.5486   11.4744   46.6194 C   0  0  0  0  0  0
  -12.4621   12.5228   46.7168 C   0  0  0  0  0  0
  -13.8318   12.2807   46.6570 C   0  0  0  0  0  0
  -14.2954   10.9793   46.4989 C   0  0  0  0  0  0
  -12.0190   13.7891   46.8671 F   0  0  0  0  0  0
  -21.1289    4.0213   50.9780 F   0  0  0  0  0  0
  -11.6218    8.8823   41.8660 H   0  0  0  0  0  0
  -12.2804   10.2876   39.2615 H   0  0  0  0  0  0
  -16.9688    5.6072   50.2609 H   0  0  0  0  0  0
  -18.6226    4.4085   51.6331 H   0  0  0  0  0  0
  -21.6190    5.1118   48.6588 H   0  0  0  0  0  0
  -19.9823    6.3033   47.2638 H   0  0  0  0  0  0
  -17.2003    7.7388   48.2160 H   0  0  0  0  0  0
  -17.7817    6.9373   46.7887 H   0  0  0  0  0  0
  -15.5131    5.9121   48.5646 H   0  0  0  0  0  0
  -15.1078    4.1254   47.0894 H   0  0  0  0  0  0
  -16.8190    4.0729   47.3134 H   0  0  0  0  0  0
  -16.3633    3.7964   44.9240 H   0  0  0  0  0  0
  -17.0560    5.3754   45.1093 H   0  0  0  0  0  0
  -15.1201    5.6077   43.6685 H   0  0  0  0  0  0
  -14.0950    4.6779   44.7254 H   0  0  0  0  0  0
  -12.1601    8.7861   44.1568 H   0  0  0  0  0  0
  -13.9438    6.9658   42.4878 H   0  0  0  0  0  0
  -14.2864    8.5364   40.6399 H   0  0  0  0  0  0
  -13.1140    8.1608   39.4639 H   0  0  0  0  0  0
  -12.6215   12.2189   40.7414 H   0  0  0  0  0  0
  -11.6695   10.9784   41.4896 H   0  0  0  0  0  0
  -13.5825   11.1285   44.2508 H   0  0  0  0  0  0
  -14.5911   10.0217   38.8180 H   0  0  0  0  0  0
  -10.9805    7.5113   40.4169 H   0  0  0  0  0  0
  -11.2950    9.3557   46.3807 H   0  0  0  0  0  0
  -10.4893   11.6762   46.6753 H   0  0  0  0  0  0
  -14.5299   13.1000   46.7403 H   0  0  0  0  0  0
  -15.3600   10.7912   46.4615 H   0  0  0  0  0  0
  1  6  1  0  0  0
  1  2  2  0  0  0
  1 38  1  0  0  0
  2  3  1  0  0  0
  2 39  1  0  0  0
  3  4  2  0  0  0
  3 35  1  0  0  0
  4  5  1  0  0  0
  4 40  1  0  0  0
  5  6  2  0  0  0
  5 41  1  0  0  0
  6  7  1  0  0  0
  7  8  1  0  0  0
  7 42  1  0  0  0
  7 43  1  0  0  0
  8 13  1  0  0  0
  8  9  1  0  0  0
  8 44  1  0  0  0
  9 10  1  0  0  0
  9 45  1  0  0  0
  9 46  1  0  0  0
 10 11  1  0  0  0
 10 47  1  0  0  0
 10 48  1  0  0  0
 11 12  1  0  0  0
 11 49  1  0  0  0
 11 50  1  0  0  0
 12 16  2  0  0  0
 12 13  1  0  0  0
 13 14  2  0  0  0
 14 15  1  0  0  0
 15 16  1  0  0  0
 15 28  1  0  0  0
 16 17  1  0  0  0
 17 18  2  0  0  0
 17 51  1  0  0  0
 18 19  1  0  0  0
 18 52  1  0  0  0
 19 36  1  0  0  0
 19 20  1  0  0  0
 19 27  1  0  0  0
 20 21  1  0  0  0
 20 53  1  0  0  0
 20 54  1  0  0  0
 21 37  1  0  0  0
 21 22  1  0  0  0
 21 26  1  0  0  0
 22 23  1  0  0  0
 22 55  1  0  0  0
 22 56  1  0  0  0
 23 24  2  0  0  0
 23 25  1  0  0  0
 25 57  1  0  0  0
 26 58  1  0  0  0
 27 59  1  0  0  0
 28 33  1  0  0  0
 28 29  2  0  0  0
 29 30  1  0  0  0
 29 60  1  0  0  0
 30 31  2  0  0  0
 30 61  1  0  0  0
 31 32  1  0  0  0
 31 34  1  0  0  0
 32 33  2  0  0  0
 32 62  1  0  0  0
 33 63  1  0  0  0
M  END
> <s_m_entry_id>
60356

> <s_m_entry_name>
ligand_docking-pose.9

> <s_m_Source_Path>
/home/csk/Desktop/cluster/DUD-E-result/hmdh

> <s_m_Source_File>
ligand_docking-pose.sdf

> <i_m_Source_File_Index>
9

> <i_lp_mmshare_version>
53161

> <r_lp_tautomer_probability>
1

> <s_lp_Force_Field>
OPLS_2005

> <r_lp_Energy>
25.552603

> <b_lp_Chiralities_Consistent>
1

> <s_lp_Variant>
201728-2

> <s_i_glide_gridfile>
glide-grid_3ccw

> <i_i_glide_lignum>
48

> <i_i_glide_rotatable_bonds>
12

> <r_i_docking_score>
-6.89231740577788

> <r_i_glide_ligand_efficiency>
-0.196923354450797

> <r_i_glide_ligand_efficiency_sa>
-0.644149349669935

> <r_i_glide_ligand_efficiency_ln>
-1.51301663731144

> <r_i_glide_gscore>
-6.89231740577788

> <r_i_glide_lipo>
-2.93835250038274

> <r_i_glide_hbond>
-0.383882195305221

> <r_i_glide_metal>
0

> <r_i_glide_rewards>
-0.623493996510439

> <r_i_glide_evdw>
-40.0308151245117

> <r_i_glide_ecoul>
-11.5302124023438

> <r_i_glide_erotb>
0.784483902997671

> <r_i_glide_esite>
0

> <r_i_glide_emodel>
-67.8912737603331

> <r_i_glide_energy>
-51.5610275268555

> <r_i_glide_einternal>
11.2071180343628

> <i_i_glide_confnum>
8

> <i_i_glide_posenum>
351

> <r_i_glide_eff_state_penalty>
0

> <i_f3d_flags>
0

> <s_user_duplicate_titles>
201728

> <s_m_subgroup_title>
dock_pv

> <s_m_subgroupid>
dock_pv1

> <b_m_subgroup_collapsed>
0

$$$$
643180
                    3D
 Schrodinger Suite 2021-1.
 65 67  0  0  1  0            999 V2000
  -14.0897    3.8722   45.8006 C   0  0  0  0  0  0
  -15.3151    4.7142   45.3847 C   0  0  0  0  0  0
  -15.3834    5.1378   43.8994 C   0  0  0  0  0  0
  -15.6547    5.8407   46.3655 C   0  0  0  0  0  0
  -16.6628    5.6988   47.1879 N   0  0  0  0  0  0
  -16.8364    6.8433   47.8275 C   0  0  0  0  0  0
  -15.8791    7.7756   47.3908 C   0  0  0  0  0  0
  -15.0539    7.0863   46.5073 N   0  0  0  0  0  0
  -13.8948    7.6443   45.9062 C   0  0  0  0  0  0
  -12.9366    7.0531   45.1750 C   0  0  0  0  0  0
  -11.7499    7.7906   44.5952 C   0  0  2  0  0  0
  -11.8055    7.8783   43.0553 C   0  0  0  0  0  0
  -12.8105    8.9116   42.4833 C   0  0  2  0  0  0
  -12.9211    8.7949   40.9327 C   0  0  0  0  0  0
  -13.2053   10.0797   40.1373 C   0  0  0  0  0  0
  -14.0188   10.9344   40.4846 O   0  0  0  0  0  0
  -12.4283   10.1617   39.0219 O   0  0  0  0  0  0
  -12.4195   10.2075   42.9107 O   0  0  0  0  0  0
  -10.5913    7.1001   45.0141 O   0  0  0  0  0  0
  -15.6994    9.2350   47.6865 C   0  0  0  0  0  0
  -15.3921    9.7270   48.9572 C   0  0  0  0  0  0
  -15.2302   11.1008   49.1457 C   0  0  0  0  0  0
  -15.3785   11.9722   48.0640 C   0  0  0  0  0  0
  -15.6828   11.4859   46.8011 C   0  0  0  0  0  0
  -15.8352   10.1217   46.6189 C   0  0  0  0  0  0
  -15.2182   13.3040   48.2192 F   0  0  0  0  0  0
  -17.9747    6.9710   48.8138 C   0  0  0  0  0  0
  -18.3666    8.2083   49.3428 C   0  0  0  0  0  0
  -19.4059    8.3071   50.2673 C   0  0  0  0  0  0
  -20.0847    7.1630   50.6768 C   0  0  0  0  0  0
  -19.7304    5.9206   50.1517 C   0  0  0  0  0  0
  -18.6885    5.8312   49.2244 C   0  0  0  0  0  0
  -20.6117    4.4429   50.6384 S   0  0  0  0  0  0
  -21.4484    4.7793   51.7981 O   0  0  0  0  0  0
  -21.2192    3.8998   49.4190 O   0  0  0  0  0  0
  -19.2592    3.2611   51.2040 C   0  0  0  0  0  0
  -11.6834    8.7938   45.0228 H   0  0  0  0  0  0
  -13.7961    8.7184   42.9121 H   0  0  0  0  0  0
  -14.3870    3.1013   46.5105 H   0  0  0  0  0  0
  -13.6402    3.3665   44.9456 H   0  0  0  0  0  0
  -13.3131    4.4489   46.3021 H   0  0  0  0  0  0
  -16.1372    3.9978   45.4573 H   0  0  0  0  0  0
  -16.3896    5.4765   43.6467 H   0  0  0  0  0  0
  -14.7140    5.9502   43.6346 H   0  0  0  0  0  0
  -15.1442    4.3036   43.2400 H   0  0  0  0  0  0
  -13.7844    8.6949   46.1088 H   0  0  0  0  0  0
  -12.9614    6.0071   44.9364 H   0  0  0  0  0  0
  -12.0228    6.8884   42.6531 H   0  0  0  0  0  0
  -10.8193    8.1290   42.6749 H   0  0  0  0  0  0
  -13.7094    8.0830   40.6882 H   0  0  0  0  0  0
  -12.0187    8.3322   40.5428 H   0  0  0  0  0  0
  -11.7248    9.4991   39.0249 H   0  0  0  0  0  0
  -13.0756   10.8259   42.5721 H   0  0  0  0  0  0
  -10.5987    6.2116   44.6123 H   0  0  0  0  0  0
  -15.2793    9.0467   49.7880 H   0  0  0  0  0  0
  -14.9915   11.4884   50.1232 H   0  0  0  0  0  0
  -15.7833   12.1633   45.9684 H   0  0  0  0  0  0
  -16.0189    9.7465   45.6279 H   0  0  0  0  0  0
  -17.8880    9.1179   49.0324 H   0  0  0  0  0  0
  -19.6841    9.2722   50.6625 H   0  0  0  0  0  0
  -20.8888    7.2506   51.3951 H   0  0  0  0  0  0
  -18.4343    4.8613   48.8221 H   0  0  0  0  0  0
  -19.7326    2.3553   51.5799 H   0  0  0  0  0  0
  -18.6176    3.0190   50.3565 H   0  0  0  0  0  0
  -18.6802    3.7392   51.9948 H   0  0  0  0  0  0
  1  2  1  0  0  0
  1 39  1  0  0  0
  1 40  1  0  0  0
  1 41  1  0  0  0
  2  3  1  0  0  0
  2  4  1  0  0  0
  2 42  1  0  0  0
  3 43  1  0  0  0
  3 44  1  0  0  0
  3 45  1  0  0  0
  4  8  1  0  0  0
  4  5  2  0  0  0
  5  6  1  0  0  0
  6  7  2  0  0  0
  6 27  1  0  0  0
  7  8  1  0  0  0
  7 20  1  0  0  0
  8  9  1  0  0  0
  9 10  2  0  0  0
  9 46  1  0  0  0
 10 11  1  0  0  0
 10 47  1  0  0  0
 11 37  1  0  0  0
 11 12  1  0  0  0
 11 19  1  0  0  0
 12 13  1  0  0  0
 12 48  1  0  0  0
 12 49  1  0  0  0
 13 38  1  0  0  0
 13 14  1  0  0  0
 13 18  1  0  0  0
 14 15  1  0  0  0
 14 50  1  0  0  0
 14 51  1  0  0  0
 15 16  2  0  0  0
 15 17  1  0  0  0
 17 52  1  0  0  0
 18 53  1  0  0  0
 19 54  1  0  0  0
 20 25  1  0  0  0
 20 21  2  0  0  0
 21 22  1  0  0  0
 21 55  1  0  0  0
 22 23  2  0  0  0
 22 56  1  0  0  0
 23 24  1  0  0  0
 23 26  1  0  0  0
 24 25  2  0  0  0
 24 57  1  0  0  0
 25 58  1  0  0  0
 27 32  1  0  0  0
 27 28  2  0  0  0
 28 29  1  0  0  0
 28 59  1  0  0  0
 29 30  2  0  0  0
 29 60  1  0  0  0
 30 31  1  0  0  0
 30 61  1  0  0  0
 31 32  2  0  0  0
 31 33  1  0  0  0
 32 62  1  0  0  0
 33 34  2  0  0  0
 33 35  2  0  0  0
 33 36  1  0  0  0
 36 63  1  0  0  0
 36 64  1  0  0  0
 36 65  1  0  0  0
M  END
> <s_m_entry_id>
60358

> <s_m_entry_name>
ligand_docking-pose.11

> <s_m_Source_Path>
/home/csk/Desktop/cluster/DUD-E-result/hmdh

> <s_m_Source_File>
ligand_docking-pose.sdf

> <i_m_Source_File_Index>
11

> <i_lp_mmshare_version>
53161

> <r_lp_tautomer_probability>
1

> <s_lp_Force_Field>
OPLS_2005

> <r_lp_Energy>
21.926264

> <b_lp_Chiralities_Consistent>
1

> <s_lp_Variant>
643180-1

> <s_i_glide_gridfile>
glide-grid_3ccw

> <i_i_glide_lignum>
544

> <i_i_glide_rotatable_bonds>
13

> <r_i_docking_score>
-6.80563519058003

> <r_i_glide_ligand_efficiency>
-0.189045421960556

> <r_i_glide_ligand_efficiency_sa>
-0.624214229304716

> <r_i_glide_ligand_efficiency_ln>
-1.48480573157016

> <r_i_glide_gscore>
-6.80563519058003

> <r_i_glide_lipo>
-2.55581561691388

> <r_i_glide_hbond>
-0.152917777579314

> <r_i_glide_metal>
0

> <r_i_glide_rewards>
-0.858187824872259

> <r_i_glide_evdw>
-45.2790451049805

> <r_i_glide_ecoul>
-9.37006282806396

> <r_i_glide_erotb>
0.430747708244044

> <r_i_glide_esite>
0

> <r_i_glide_emodel>
-77.2553940903358

> <r_i_glide_energy>
-54.6491079330444

> <r_i_glide_einternal>
10.5637245178223

> <i_i_glide_confnum>
89

> <i_i_glide_posenum>
108

> <r_i_glide_eff_state_penalty>
0

> <i_f3d_flags>
0

> <s_user_duplicate_titles>
643180

> <s_m_subgroup_title>
dock_pv

> <s_m_subgroupid>
dock_pv1

> <b_m_subgroup_collapsed>
0

$$$$
